#------------------------------------------------------------------------------
#$Date: 2016-03-11 04:40:16 +0200 (Fri, 11 Mar 2016) $
#$Revision: 178121 $
#$URL: svn://www.crystallography.net/cod/cif/1/54/27/1542755.cif $
#------------------------------------------------------------------------------
#
# This file is available in the Crystallography Open Database (COD),
# http://www.crystallography.net/
#
# All data on this site have been placed in the public domain by the
# contributors.
#
data_1542755
loop_
_publ_author_name
'Wickramasinhage, Ravindra'
'McAdam, C. John'
'Simpson, Jim'
_publ_section_title
;
 2,5-Dimethoxy-3,4,6-trimethylbenzaldehyde
;
_journal_coeditor_code           HG4003
_journal_issue                   2
_journal_name_full               IUCrData
_journal_page_first              x160307
_journal_paper_doi               10.1107/S2414314616003072
_journal_volume                  1
_journal_year                    2016
_chemical_formula_iupac          'C12 H16 O3'
_chemical_formula_moiety         'C12 H16 O3'
_chemical_formula_sum            'C12 H16 O3'
_chemical_formula_weight         208.25
_chemical_name_systematic
;
2,5-Dimethoxy-3,4,6-trimethylbenzaldehyde
;
_space_group_crystal_system      monoclinic
_space_group_IT_number           14
_space_group_name_Hall           '-P 2ybc'
_space_group_name_H-M_alt        'P 1 21/c 1'
_symmetry_space_group_name_Hall  '-P 2ybc'
_symmetry_space_group_name_H-M   'P 1 21/c 1'
_atom_sites_solution_hydrogens   geom
_cell_angle_alpha                90
_cell_angle_beta                 98.515(5)
_cell_angle_gamma                90
_cell_formula_units_Z            2
_cell_length_a                   4.5856(3)
_cell_length_b                   14.2281(9)
_cell_length_c                   8.3312(4)
_cell_measurement_reflns_used    1932
_cell_measurement_temperature    100(2)
_cell_measurement_theta_max      72.2190
_cell_measurement_theta_min      6.1440
_cell_volume                     537.57(6)
_computing_cell_refinement
;
CrysAlis PRO (Agilent, 2014)
;
_computing_data_collection
;
CrysAlis PRO (Agilent, 2014)
;
_computing_data_reduction
;
CrysAlis PRO (Agilent, 2014)
;
_computing_molecular_graphics
;
Mercury (Macrae <i>et al.</i>,  2008)
;
_computing_publication_material
;
SHELXL2014 (Sheldrick, 2015b), enCIFer (Allen <i>et al.</i>,
2004),
PLATON (Spek, 2009),  publCIF (Westrip, 2010) and WinGX
(Farrugia, 2012)
;
_computing_structure_refinement
;
SHELXL2014 (Sheldrick, 2015b) and <i>TITAN2000</i> (Hunter & Simpson,
1999)
;
_computing_structure_solution
;
SHELXT (Sheldrick, 2015a)
;
_diffrn_ambient_temperature      100(2)
_diffrn_detector_area_resol_mean 5.1725
_diffrn_measured_fraction_theta_full 0.999
_diffrn_measured_fraction_theta_max 0.974
_diffrn_measurement_device_type
'Agilent SuperNova Dual Source diffractometer with an Atlas detector'
_diffrn_measurement_method       '\w scans'
_diffrn_radiation_source         'SuperNova (Cu) X-ray Source'
_diffrn_radiation_type           CuK\a
_diffrn_radiation_wavelength     1.54184
_diffrn_reflns_av_R_equivalents  0.0460
_diffrn_reflns_limit_h_max       5
_diffrn_reflns_limit_h_min       -5
_diffrn_reflns_limit_k_max       17
_diffrn_reflns_limit_k_min       -17
_diffrn_reflns_limit_l_max       10
_diffrn_reflns_limit_l_min       -10
_diffrn_reflns_number            4051
_diffrn_reflns_theta_full        67.684
_diffrn_reflns_theta_max         73.759
_diffrn_reflns_theta_min         6.207
_diffrn_standards_number         0
_exptl_absorpt_coefficient_mu    0.745
_exptl_absorpt_correction_T_max  1.00000
_exptl_absorpt_correction_T_min  0.71851
_exptl_absorpt_correction_type   multi-scan
_exptl_absorpt_process_details
;
(CrysAlis PRO; Agilent, 2014)
;
_exptl_crystal_colour            'pale yellow'
_exptl_crystal_density_diffrn    1.287
_exptl_crystal_density_method    'not measured'
_exptl_crystal_description       needle
_exptl_crystal_F_000             224
_exptl_crystal_size_max          0.422
_exptl_crystal_size_mid          0.131
_exptl_crystal_size_min          0.059
_refine_diff_density_max         0.221
_refine_diff_density_min         -0.241
_refine_ls_extinction_method     none
_refine_ls_goodness_of_fit_ref   1.120
_refine_ls_hydrogen_treatment    constr
_refine_ls_matrix_type           full
_refine_ls_number_parameters     103
_refine_ls_number_reflns         1068
_refine_ls_number_restraints     0
_refine_ls_restrained_S_all      1.120
_refine_ls_R_factor_all          0.0720
_refine_ls_R_factor_gt           0.0648
_refine_ls_shift/su_max          0.008
_refine_ls_shift/su_mean         0.001
_refine_ls_structure_factor_coef Fsqd
_refine_ls_weighting_details
'w=1/[\s^2^(Fo^2^)+(0.0763P)^2^+0.4967P] where P=(Fo^2^+2Fc^2^)/3'
_refine_ls_weighting_scheme      calc
_refine_ls_wR_factor_gt          0.1815
_refine_ls_wR_factor_ref         0.1864
_reflns_number_gt                907
_reflns_number_total             1068
_reflns_threshold_expression     'I > 2\s(I)'
_cod_data_source_file            hg4003sup1.cif
_cod_data_source_block           I
_cod_database_code               1542755
_shelx_space_group_comment
;
The symmetry employed for this shelxl refinement is uniquely defined
by the following loop, which should always be used as a source of
symmetry information in preference to the above space-group names.
They are only intended as comments.
;
_shelx_estimated_absorpt_t_min   0.744
_shelx_estimated_absorpt_t_max   0.957
_shelx_hkl_file
;
   0   0   1 421.766 103.721  12
   0   0  -1 294.811 96.3144  13
   0   0  -1 306.673 64.3360  11
   0   0  -2 95866.3 1500.13   3
   0   0  -2 92452.3 1848.94  13
   0   0  -2 96370.2 1427.67  11
   0   0  -3 5712.41 581.836  13
   0   0  -3 7293.99 506.711   3
   0   0  -3 7220.74 449.244  11
   0   0   3 6381.36 573.679  12
   0   0  -4 402.901 156.997  11
   0   0   4 516.103 270.793  12
   0   0  -4 335.783 225.980   1
   0   0  -4 676.505 208.879   3
   0   0   5 677.087 379.271  12
   0   0  -5 423.750 230.261   1
   0   0  -5 646.551 216.529  11
   0   0  -6 192131. 3646.00  14
   0   0  -6 202899. 3744.57  11
   0   0   6 176739. 3229.67   6
   0   0  -6 216242. 5306.32   1
   0   0   6 194917. 3784.69  10
   0   0  -7 9684.34 1249.88   1
   0   0  -7 11083.1 879.324  14
   0   0   7 9214.77 718.556   6
   0   0   7 10567.5 883.535  10
   0   0   8 3667.03 513.937  10
   0   0  -8 3187.21 487.242  14
   0   0   9 389.686 175.507  10
   0   0  10 419.557 114.852  10
   0   1   0 40.7778 38.2867   2
   0   1  -1 266729. 2451.82  13
   0   1   1 263750. 2429.50  12
   0  -1  -1 261224. 2217.86  11
   0  -1  -2 72745.6 1544.32   1
   0  -1  -2 74631.9 1326.46   3
   0   1   2 72723.3 1495.82  12
   0   1  -2 71363.6 1519.10  13
   0  -1  -2 72846.4 1223.33  11
   0  -1   3 268142. 3945.80  12
   0   1  -3 273237. 3197.68  11
   0  -1  -3 275816. 3923.50   1
   0   1   3 262372. 3973.74  12
   0  -1  -3 279114. 3194.27  11
   0  -1  -3 269546. 3336.76   3
   0   1  -3 273766. 4061.80  13
   0   1  -4 1112.39 369.087  13
   0   1  -4 1450.30 245.270  11
   0  -1  -4 1388.05 238.705  11
   0  -1   4 1248.76 332.250  12
   0  -1  -4 1090.50 315.118   1
   0  -1  -4 1341.82 260.341   3
   0   1   4 772.248 333.538  12
   0  -1  -5 39332.5 1407.00  11
   0   1  -5 38933.4 1382.11  11
   0  -1  -5 40235.8 1616.59   3
   0  -1   5 36818.3 1999.20  12
   0  -1  -5 41303.6 2017.00   1
   0   1  -5 41372.4 1934.18   1
   0   1   5 36512.8 1963.95  12
   0  -1   6 7438.42 629.094   6
   0  -1   6 6911.97 1018.31  12
   0  -1   6 8562.55 772.987  10
   0   1  -6 8226.05 727.288  14
   0  -1  -6 8989.18 1083.09   1
   0  -1  -6 7369.16 684.174  11
   0   1  -6 8742.37 750.687  11
   0   1   6 7807.27 756.677  10
   0   1  -6 8284.10 1003.02   1
   0  -1  -6 8846.21 754.449  14
   0   1   7 126221. 3111.36  10
   0   1  -7 111145. 4217.04   1
   0  -1  -7 128490. 3044.87  14
   0  -1   7 126508. 3081.63  10
   0   1  -7 128360. 3040.95  14
   0  -1   7 119256. 2655.64   6
   0  -1  -7 107431. 4161.07   1
   0  -1  -8 418.874 226.224  14
   0  -1   8 524.968 242.929  10
   0   1   8 771.517 279.832  10
   0   1   9 309.352 156.632  10
   0  -1   9 297.232 172.689  10
   0  -1  10 629.139 145.816  10
   0   1  10 573.953 136.543  10
   0  -2   0 542307. 4221.87  11
   0   2   0 549279. 4396.21   2
   0   2  -1 77699.5 1197.76  13
   0  -2   1 81629.2 1316.77  12
   0  -2  -1 71518.7 1077.82  11
   0  -2  -1 67176.2 1294.43   1
   0   2   2 112490. 1990.16  12
   0   2  -2 119566. 2013.70  13
   0  -2  -2 116543. 2156.89   1
   0  -2  -2 118685. 1787.35   3
   0  -2  -2 119463. 1694.29  11
   0   2  -3 18660.7 971.654  13
   0  -2  -3 18574.1 739.198  11
   0  -2   3 19560.1 977.944  12
   0  -2  -3 18379.5 814.157   3
   0  -2  -3 17599.8 977.189   1
   0   2   3 16921.1 922.627  12
   0  -2  -4 11985.0 684.690  11
   0   2  -4 11194.0 677.545  11
   0  -2  -4 10661.2 716.346   3
   0  -2   4 10414.8 879.267  12
   0  -2  -4 11181.0 900.939   1
   0   2   4 10200.8 905.382  12
   0   2  -4 11155.8 940.687  13
   0   2  -5 698.262 210.200  11
   0   2  -5 936.950 400.538  13
   0  -2  -5 723.114 332.660   1
   0  -2   5 1236.23 432.177  12
   0  -2  -5 648.620 248.277   3
   0  -2  -5 479.754 205.032  11
   0  -2  -6 27129.1 1905.53   1
   0  -2   6 28407.6 1375.90  10
   0   2  -6 27557.5 1320.67  11
   0   2   6 28865.3 1444.88  10
   0   2  -6 28974.1 1337.48  14
   0  -2   6 24511.9 1923.99  12
   0   2  -6 27545.1 1832.40   1
   0  -2  -6 22849.8 1515.54  16
   0  -2  -6 26560.5 1327.26  11
   0  -2   6 26021.5 1182.25   6
   0  -2   7 4997.01 546.618   6
   0   2   7 4972.24 636.859  10
   0  -2   7 5451.02 636.492  10
   0  -2  -7 3945.66 809.417   1
   0  -2  -7 4749.85 599.078  14
   0   2  -7 3901.18 788.182   1
   0  -2  -8 137.083 148.616  14
   0  -2   8 299.310 181.135  10
   0   2   8 223.055 206.438  10
   0  -2   9 1850.16 311.849  10
   0   2   9 1996.68 327.359  10
   0   2  10 412.441 120.978  10
   0  -2  10 437.597 117.999  10
   0  -3   0-22.4996 91.4253  12
   0   3   0-8.73462 85.5346  13
   0  -3  -1 3659.68 295.722  11
   0   3  -1 2879.59 298.321   2
   0  -3  -1 3600.31 340.730   1
   0   3  -1 3503.74 276.921  13
   0  -3   1 3716.66 309.847  12
   0  -3  -2 4246.50 342.212  11
   0  -3  -2 4375.23 355.533   3
   0   3  -2 4443.23 393.082  13
   0  -3   2 3602.66 384.097  12
   0  -3  -2 4069.68 426.092   1
   0  -3  -3 362838. 5028.84   1
   0  -3  -3 354419. 4001.64  11
   0   3  -3 369762. 4753.95  13
   0  -3  -3 368918. 4277.40   3
   0  -3  -4 2602.95 483.098   1
   0  -3  -4 2406.35 336.357  11
   0   3  -4 2786.26 506.321  13
   0  -3  -4 2141.20 364.701   3
   0  -3   4 1724.14 404.452  12
   0   3  -4 1890.87 282.596  11
   0  -3  -5 561.029 213.732  11
   0  -3  -5 302.161 149.612   3
   0  -3  -5 530.705 287.163   1
   0   3  -5 478.133 235.071  11
   0   3  -5 807.214 358.874  13
   0  -3   5-4.85398 267.818  12
   0   3  -6 6280.68 643.272  11
   0  -3  -6 5667.51 775.687  16
   0  -3   6 6545.00 600.929   6
   0  -3  -6 6695.77 719.033  11
   0   3  -6 6867.72 933.093   1
   0  -3   6 6432.58 661.397  10
   0  -3   6 6221.35 1005.53  12
   0  -3  -6 7048.40 790.546   3
   0   3   6 6231.08 695.390  10
   0  -3  -6 6923.85 978.342   1
   0  -3  -7 14663.7 1288.02  16
   0  -3  -7 15455.3 1066.99  14
   0  -3  -7 13239.4 1474.58   1
   0   3   7 15349.4 1096.47  10
   0   3  -7 12622.4 1399.36   1
   0  -3   7 16329.2 1071.53  10
   0   3   8 2294.52 417.591  10
   0  -3   8 2710.36 429.370  10
   0  -3  -8 2015.34 393.612  14
   0  -3   9 12738.2 776.335  10
   0   3   9 12942.8 794.816  10
   0   3  10 3151.33 278.514  10
   0  -3  10 3174.45 283.753  10
   0   4   0 250659. 2361.10  13
   0   4   0 193610. 2600.88   2
   0  -4  -1 3249.27 369.137   1
   0  -4  -1 2933.58 268.037   3
   0  -4  -1 1964.13 147.790  12
   0   4   1 3276.62 410.082   2
   0   4  -1 3250.52 290.473  13
   0   4  -1 2490.61 319.742   2
   0  -4   1 2819.44 266.694  12
   0  -4  -1 2766.77 312.977  11
   0   4  -2 1491.24 272.903  13
   0  -4   2 1864.22 328.237  12
   0  -4  -2 1058.30 216.584  11
   0  -4  -2 1163.06 216.667   3
   0  -4  -2 1020.11 255.266   1
   0   4  -3 15467.0 896.932  13
   0  -4  -3 13435.6 943.749   1
   0  -4  -3 15141.2 784.207   3
   0  -4  -3 15109.2 771.255  11
   0  -4   3 15102.3 951.367  12
   0  -4  -4 78255.1 2011.62  11
   0  -4   4 75362.4 2515.05  12
   0  -4  -4 74295.5 2533.39   1
   0   4  -4 72132.4 2385.29  13
   0  -4  -4 74646.9 2089.73   3
   0   4  -5 12346.8 1183.04  13
   0  -4  -5 13376.5 1220.58   1
   0  -4  -5 12421.0 942.153   3
   0  -4  -5 13145.1 924.521  11
   0   4  -5 12587.4 875.174  11
   0  -4   5 12552.0 1228.98  12
   0  -4  -6 8348.36 1077.30   1
   0   4   6 8398.17 802.098  10
   0  -4   6 7215.77 1110.63  12
   0  -4  -6 6793.36 787.735   3
   0   4  -6 6457.92 674.182  11
   0  -4  -6 6380.64 722.804  11
   0  -4   6 8405.16 748.735  10
   0   4  -6 5448.11 909.437  13
   0  -4  -6 8047.41 937.987  16
   0   4   7 10066.0 905.455  10
   0  -4  -7 9531.29 1085.94  16
   0  -4   7 10192.7 861.932  10
   0  -4  -7 9140.37 825.133  14
   0  -4  -8 664.611 246.119  14
   0   4   8 829.443 272.404  10
   0  -4  -8-85.5743 264.485  16
   0  -4   8 761.160 268.033  10
   0  -4   9 1148.02 254.545  10
   0   4   9 960.061 240.049  10
   0  -4  -9 801.824 205.068  14
   0  -5   0-34.9349 78.6859  12
   0   5   0-14.0804 105.062  13
   0   5   0 47.6737 126.053   2
   0  -5  -1 23659.4 1028.50   1
   0   5  -1 20875.9 923.485   2
   0  -5  -1 23813.6 842.565   3
   0  -5  -1 22095.9 948.995  11
   0   5   1 21905.2 1120.23   2
   0  -5   1 22517.8 781.450  12
   0   5  -1 22590.8 836.674  13
   0  -5  -2 54654.1 1443.39   3
   0  -5  -2 57150.0 1578.80  11
   0  -5  -2 53882.8 1742.17   1
   0  -5  -3 222393. 4153.37   1
   0  -5   3 234505. 4102.83  12
   0  -5  -3 231210. 3588.29  11
   0  -5  -3 224674. 3491.63   3
   0   5  -3 232527. 3840.04  13
   0   5  -4 2558.44 472.280  13
   0  -5   4 1590.94 445.570  12
   0  -5  -4 2503.47 411.968  11
   0  -5  -4 2180.77 467.810   1
   0  -5  -4 2384.93 413.662   3
   0  -5   5 5997.72 629.667  10
   0   5   5 5177.14 617.945  10
   0  -5  -5 6072.67 678.894  11
   0  -5  -5 5806.56 744.165  16
   0   5  -5 6014.62 830.809  13
   0  -5   5 5531.67 862.125  12
   0  -5  -5 5709.61 673.986   3
   0  -5  -5 5534.52 815.917   1
   0   5  -5 5040.62 576.539  11
   0  -5   6 7562.70 727.493  10
   0  -5  -6 5500.06 731.030   3
   0  -5  -6 7335.09 917.187  16
   0   5   6 7047.12 759.592  10
   0   5  -6 7393.03 1051.22  13
   0  -5  -6 6417.88 757.753  11
   0  -5  -6 7077.82 1047.51   1
   0  -5   6 6073.83 1079.64  12
   0   5   6 7149.05 1267.61   2
   0   5  -6 6380.96 694.490  11
   0   5   7 7215.28 765.157  10
   0  -5  -7 7237.75 945.056  16
   0  -5   7 6389.57 675.349  10
   0  -5  -8 3895.27 653.223  16
   0  -5   8 5821.92 602.470  10
   0   5   8 5623.76 607.831  10
   0  -5  -8 5565.98 605.078  14
   0  -5   9 171.401 110.035  10
   0  -5  -9 145.175 137.010  14
   0   5   9 82.4068 112.812  10
   0   6   0 6871.11 662.935   2
   0  -6   0 7088.37 350.696  12
   0  -6   0 7916.03 525.759   3
   0   6   0 7606.65 504.847  13
   0   6  -1 8580.65 571.901  13
   0  -6  -1 7980.98 649.279  11
   0   6  -1 7606.53 599.408   2
   0  -6  -1 9219.69 587.323   3
   0   6   1 7770.80 740.997   2
   0  -6  -1 8816.04 703.228   1
   0   6   1 7913.68 516.126  13
   0   6   2 61383.5 2334.93   2
   0  -6  -2 60057.1 1662.95   3
   0  -6  -2 59896.4 1967.81   1
   0  -6   2 66603.0 1905.97  12
   0   6  -2 61960.2 1734.28  13
   0  -6  -2 59694.5 1812.78  11
   0  -6  -3 2658.27 472.945   1
   0   6   3 2402.34 578.311   2
   0   6  -3 2989.17 453.152  13
   0  -6  -3 2822.85 410.264   3
   0  -6   3 2118.49 460.480  12
   0  -6  -3 2546.10 413.625  11
   0   6   4 76616.9 3338.23   2
   0  -6   4 68922.7 2798.67  12
   0  -6  -4 72420.5 2264.46   3
   0  -6  -4 70780.3 2719.74   1
   0   6  -4 68680.2 2425.39  13
   0  -6  -4 77471.8 2435.16  11
   0  -6  -5 2373.25 469.497   3
   0   6  -5 2571.38 462.776  11
   0   6   5 2371.84 452.870  10
   0  -6  -5 3109.56 560.773  16
   0   6   5 3227.92 804.117   2
   0  -6  -5 3097.99 566.682  11
   0  -6   5 2207.81 614.927  12
   0  -6   5 3100.70 458.646  10
   0  -6  -5 3268.00 674.592   1
   0   6  -5 3334.78 674.931  13
   0  -6  -6 1734.85 437.459   3
   0  -6  -6 1336.51 396.745  11
   0  -6  -6 2255.82 557.565  16
   0  -6  -6 1926.57 566.828   1
   0   6   6 1926.16 671.822   2
   0  -6   6 1420.93 552.066  12
   0   6   6 1812.94 429.988  10
   0  -6   6 1333.92 328.236  10
   0   6  -6 2116.81 608.753  13
   0  -6   7 1801.08 375.006  10
   0   6   7 1822.97 406.134  10
   0  -6  -7 2248.87 590.442  16
   0  -6  -8 1882.07 463.438  16
   0   6   8 2008.01 372.167  10
   0  -6  -8 1942.77 360.176  14
   0  -6   8 2932.34 429.769  10
   0  -6   9 253.031 127.169  10
   0  -6  -9 386.425 158.415  16
   0   6   9 448.479 154.455  10
   0  -6  -9 526.553 159.542  14
   0   7   0 59.6533 115.878  13
   0   7   0 189.766 211.699   2
   0  -7   0-13.1570 105.144   3
   0   7   1 2399.24 469.324   2
   0   7  -1 3204.63 383.993  13
   0  -7  -1 3287.60 400.829   3
   0   7   1 2102.54 294.412  13
   0  -7   1 3469.01 389.356  12
   0  -7  -2 2802.82 412.449   3
   0   7   2 2045.76 498.173   2
   0  -7  -2 2914.17 472.570  11
   0  -7  -2 2916.52 489.810   1
   0   7  -2 2986.27 430.203  13
   0  -7   2 2910.55 466.309  12
   0   7  -3 7995.78 763.825  13
   0  -7   3 7482.43 815.981  12
   0  -7  -3 7809.05 852.453   1
   0   7   3 6636.30 936.013   2
   0  -7  -3 7656.66 779.202  11
   0  -7  -3 8247.37 710.969   3
   0  -7  -4 1083.23 359.671  11
   0  -7  -4 977.397 265.284   5
   0  -7  -4 1137.45 385.345   1
   0  -7  -4 1193.75 338.623   3
   0  -7   4 1244.39 474.304  12
   0  -7   4 938.179 260.837  10
   0   7   4 586.224 402.447   2
   0  -7  -4 1098.44 354.237  16
   0   7  -4 1227.49 382.545  13
   0  -7  -5 22650.4 1486.17  16
   0   7   5 17507.6 1898.50   2
   0   7  -5 16723.4 1145.16  11
   0  -7  -5 22694.9 1231.23   5
   0  -7  -5 21589.2 1746.80   1
   0  -7   5 19510.6 1807.34  12
   0  -7  -5 20677.5 1527.24  11
   0  -7   5 20955.7 1218.33  10
   0  -7  -5 20138.6 1404.93   3
   0   7  -5 21649.4 1657.91  13
   0   7   6 639.724 296.250  10
   0  -7  -6 1014.43 395.156  16
   0  -7   6 805.221 300.013  10
   0   7   7 26687.1 1412.78  10
   0  -7   7 29943.3 1415.42  10
   0  -7  -7 26861.4 1790.50  16
   0   7   8 2744.35 413.757  10
   0  -7   8 2895.97 420.204  10
   0  -7  -8 2362.50 472.416  16
   0  -7  -8 2782.69 400.773  14
   0  -7   9 1359.23 230.014  10
   0  -7  -9 761.084 208.038  16
   0  -7   9 1154.35 334.770  15
   0   7   9 1284.06 220.430  10
   0  -8   0 214840. 3571.53   3
   0   8   0 207174. 3289.24  13
   0   8   1 6128.28 520.922  13
   0   8  -1 6597.83 598.688  13
   0   8   1 5114.43 739.688   2
   0  -8  -1 5850.09 590.526   3
   0   8   2 3423.66 428.197  13
   0   8  -2 3508.05 497.213  13
   0  -8  -2 3728.12 510.190   3
   0   8   2 2975.10 627.735   2
   0  -8   2 3383.78 521.318  12
   0   8   3 12392.9 1376.42   2
   0   8  -3 14473.3 1072.76  13
   0  -8   3 14857.9 1233.97  12
   0  -8  -3 13840.8 1211.53   1
   0  -8  -3 14401.9 1032.27   3
   0  -8  -3 15247.3 1185.44  11
   0  -8   4 2455.78 444.247  10
   0  -8  -4 2257.60 409.082   5
   0  -8  -4 2154.62 519.771  11
   0   8   4 2746.59 705.918   2
   0  -8  -4 2815.36 521.788   3
   0  -8  -4 2556.25 609.994   1
   0  -8   4 2264.09 615.888  12
   0   8  -4 2585.34 515.971  13
   0  -8  -4 2571.83 497.813  16
   0  -8   5 7203.72 752.206  10
   0  -8  -5 7097.71 977.074  11
   0   8  -5 7764.73 1035.00  13
   0  -8  -5 6798.39 1037.08   1
   0  -8  -5 6908.32 869.249   3
   0  -8   5 6660.84 1141.00  12
   0  -8  -5 7333.59 887.065  16
   0  -8  -5 8620.33 782.589   5
   0   8   5 5705.48 1162.10   2
   0   8   6 4626.49 635.029  10
   0  -8  -6 5850.61 864.062  16
   0  -8   6 5080.32 629.182  10
   0  -8  -7 3530.72 692.108  16
   0  -8   7 2539.85 442.897  10
   0   8   7 2715.19 463.197  10
   0  -8  -8 762.310 235.072  14
   0  -8  -8 588.122 327.101  16
   0  -8   8 413.328 189.072  10
   0   8   8 530.920 196.100  10
   0   8   9 532.354 146.308  10
   0  -8   9 24.6212 145.455  15
   0   9   0 33.2870 147.530  13
   0  -9   0 160.694 157.177   3
   0   9  -1 18868.6 1101.64  13
   0   9   1 17792.1 965.419  13
   0  -9   1 20532.2 1143.35   3
   0  -9  -1 20776.6 1150.01   3
   0   9  -2 220.615 207.756  13
   0  -9  -2-89.4830 162.721   3
   0   9   2-30.1457 134.815  13
   0   9   3 16263.2 1016.74  13
   0  -9   3 15692.5 1053.75  10
   0  -9  -3 16875.7 1031.77   5
   0  -9  -3 17730.9 1221.06   3
   0  -9  -3 16919.5 1284.29  16
   0   9  -3 16444.5 1218.18  13
   0   9   3 13526.3 1538.17   2
   0   9  -4 507.106 231.436  13
   0  -9   4-15.5576 155.199  10
   0  -9  -4-79.3875 328.468  11
   0  -9  -4-9.99761 259.409  16
   0  -9  -4-120.574 275.509   1
   0  -9  -4 145.286 188.545   5
   0   9   4-307.889 292.489   2
   0  -9  -4 467.609 307.845   3
   0  -9  -5 692.412 382.713   1
   0  -9   5 662.104 296.313  10
   0  -9  -5 872.505 263.855   5
   0  -9  -5 1047.62 438.830  16
   0   9   6 6092.43 705.523  10
   0  -9  -6 6491.73 890.593  16
   0  -9   6 6580.74 693.048  10
   0   9   7 11728.2 889.078  10
   0  -9   7 12766.7 883.833  10
   0  -9  -7 10670.4 1090.57  16
   0   9   8 5209.06 508.536  10
   0  -9   8 4839.00 723.244  15
   0  -9  -8 4924.52 453.350  14
   0  -9  -8 5172.12 634.542  16
   0  10   0 86894.2 2449.89  13
   0 -10   0 91424.7 2388.64   5
   0  10   1 9434.23 767.607  13
   0 -10  -1 10330.8 802.579   5
   0  10  -1 9795.28 858.448  13
   0 -10  -1 10338.6 907.460   3
   0 -10   1 11143.9 923.001   3
   0  10   2 564.272 217.384  13
   0 -10   2 482.444 250.049   3
   0 -10  -2 1096.22 344.583   3
   0 -10  -2 713.224 242.737   5
   0  10  -2 117.969 178.495  13
   0 -10  -2 1025.42 387.049  16
   0 -10  -3 2413.42 531.147  16
   0  10   3 2117.55 410.922  13
   0 -10  -3 2913.97 557.859   3
   0  10  -3 2440.36 542.409  13
   0 -10  -3 3172.98 502.475   5
   0  10  -4 11108.1 1177.45  13
   0 -10   4 11514.9 1419.41  15
   0 -10  -4 12186.4 946.254   5
   0 -10  -4 12219.6 1199.26  16
   0 -10  -4 10699.6 1099.42   3
   0 -10   5 124.157 200.335  10
   0 -10  -5 373.593 326.438  16
   0 -10  -5-122.820 254.730   5
   0 -10   5 127.019 528.030  15
   0  10   6 31974.8 1560.89  10
   0 -10   6 33440.2 1505.89  10
   0 -10  -6 36170.8 2044.04  16
   0 -10  -7-241.958 309.547  16
   0  10   7 364.677 201.967  10
   0 -10   7 42.0388 248.644  15
   0 -10  -8 1043.27 294.138  16
   0  10   8 871.023 199.870  10
   0 -10   8 719.820 293.407  15
   0 -11   0-132.806 163.879   5
   0 -11   0 187.903 181.351   3
   0  11   0 228.953 223.104  13
   0  11  -1 898.334 324.307  13
   0 -11  -1 672.341 283.506   3
   0 -11   1 1225.15 384.971   3
   0  11   1 1055.24 284.428  13
   0 -11  -1 1187.95 321.803   5
   0  11   2 257.296 205.882  13
   0 -11   2 230.205 204.459   3
   0 -11  -2 158.961 209.957  16
   0  11  -2 326.639 248.643  13
   0 -11  -2 118.462 184.410   5
   0 -11  -2 525.997 292.941   3
   0 -11  -3 11615.6 1153.57  16
   0 -11  -3 11327.7 1132.25   3
   0  11  -3 11824.1 1171.67  13
   0 -11   3 11411.9 1095.16   3
   0 -11  -3 13581.0 995.500   5
   0 -11  -4 868.866 388.032  16
   0 -11  -4 1220.82 341.835   5
   0 -11  -5 1006.05 299.927   5
   0 -11  -5 1070.59 448.100  16
   0 -11   5 1558.30 581.169  15
   0 -11  -6 53.9846 246.036  16
   0 -11   6 207.506 330.697  15
   0  11   6 325.308 200.926  10
   0 -11   7 367.448 261.186  15
   0 -11  -7 243.918 202.823  16
   0  11   7-76.7716 140.348  10
   0 -11  -7 164.623 125.747  14
   0 -11  -8 81.7697 93.8378  16
   0  12   0 10915.4 1031.13  13
   0 -12   0 11666.9 1133.44   3
   0 -12   0 13322.1 1007.84   5
   0 -12  -1 685.943 328.653   5
   0  12   1 132.105 177.714  13
   0 -12   1 350.827 208.797   3
   0 -12  -1 587.445 287.357   3
   0  12  -1 836.985 321.568  13
   0 -12   1 521.692 255.937   5
   0 -12  -2 869.829 317.146   5
   0 -12  -3 3585.64 694.429  16
   0 -12  -3 4739.06 611.723   5
   0 -12  -4 51009.5 2446.19  16
   0 -12  -4 55696.0 2004.04   5
   0  12   5 2375.75 444.114  10
   0 -12  -5 2755.90 563.546  16
   0 -12  -6 867.917 342.413  16
   0  12   6 548.855 237.276  10
   0  12   7 308.175 149.971  10
   0 -12  -7 319.610 228.349  16
   0 -13   0-14.6568 181.601   5
   0 -13   1 514.671 289.502   5
   0 -13  -1 486.428 270.312   5
   0 -13  -2 7777.81 761.196   5
   0 -13   2 8088.21 803.093   5
   0 -13  -3 125960. 3783.19  16
   0 -13  -3 145265. 3333.17   5
   0 -13  -4 7867.85 743.312   5
   0 -13  -4 4995.05 767.254  16
   0  13   5 186.625 186.211  10
   0 -13  -5-41.0176 243.173  16
   0  13   6 390.403 192.655  10
   0 -13  -6 599.956 267.276  16
   0 -14   0 9600.48 852.306   5
   0 -14  -1 6342.04 701.561   5
   0 -14   1 5657.39 671.763   5
   0 -14   2 627.027 316.777   5
   0 -14  -2 160.676 179.534   5
   0 -14   3 2174.82 446.478   5
   0 -14  -3 2082.70 424.192   5
   0 -14  -4 29806.2 1312.57   5
   0 -14   4 29883.7 1328.97   5
   0 -14   5-39.8564 134.984   5
   0  14   5-27.9904 116.825  10
   0 -14  -5 82.4806 156.627  16
   0  14   6 535.668 177.035  10
   0 -14   6 1053.83 204.346   5
   0 -14  -6 999.734 256.730  16
   0 -15   0-100.021 198.098   5
   0 -15   1 3121.98 487.342   5
   0 -15  -1 3238.49 498.779   5
   0 -15  -2 5980.01 620.382   5
   0 -15   2 5953.70 632.194   5
   0 -15   3 19653.9 1069.15   5
   0 -15  -3 19291.1 1035.38   5
   0 -15   4 3351.44 421.175   5
   0 -15  -4 3383.42 404.611   5
   0 -15   5 264.994 130.736   5
   0  15   5 440.438 153.234  10
   0 -16   0 13228.1 873.165   5
   0 -16  -1-85.3042 214.756   5
   0 -16   1 91.3460 154.711   5
   0 -16  -2 50.1085 143.389   5
   0 -16   2-44.1329 166.830   5
   0 -16  -3 294.275 153.343   5
   0 -16   3 362.373 163.886   5
   0 -16   4 680.446 167.336   5
   0  16   4 304.731 142.499  10
   0 -17   0 15.7377 115.087   5
   0 -17  -1 1944.93 296.817   5
   0 -17   1 2002.12 298.283   5
   0 -17   2 164.473 114.236   5
   0 -17  -2-98.7235 89.0026   5
  -1   0  10 568.805 145.453  10
   1   0 -10 585.716 132.486   7
  -1   0   9 649.468 218.464  10
  -1   0   8 7.41630 150.668  10
   1   0  -7 3262.52 678.368  16
   1   0  -7 3845.79 807.189   1
  -1   0   7 3381.39 520.013  10
  -1   0   7 2634.19 699.621  12
  -1   0   6 12802.4 1265.76  12
   1   0  -6 12026.6 813.752  14
  -1   0   6 13333.0 930.351  10
   1   0  -6 11136.9 1071.51  16
   1   0  -6 13109.9 1277.09   1
  -1   0   5 6341.19 734.925  12
   1   0  -5 5482.91 750.388   1
  -1   0   4 14860.1 885.454  12
   1   0  -4 12879.5 988.241   1
   1   0  -4 14581.6 894.485   3
   1   0  -3 291.031 83.2898  11
   1   0  -3 220.461 125.676   3
   1   0  -3 141.533 164.991   1
  -1   0   3 338.935 434.169  12
  -1   0   2 604078. 6439.57  12
   1   0  -2 605174. 5928.24   1
   1   0  -1 604.406 145.635   1
   1   0  -1 584.477 132.998   3
   1   0  -1 568.174 279.476   2
  -1   0   0 262073. 2208.45  11
   1   0   0 259981. 3763.19   2
  -1   0  -1 46.7055 89.8314  11
  -1   0  -1 12.9634 49.8505  13
  -1   0  -1 26.6002 30.8633   1
  -1   0  -2 62474.8 1253.93   1
  -1   0  -2 65063.9 1430.57  11
   1   0   2 66940.4 2017.95   2
  -1   0  -3 1151.06 279.863  13
  -1   0  -3 1000.33 231.557   1
  -1   0  -3 1394.05 273.556  11
   1   0   3 1351.90 368.352   2
   1   0   4 35861.7 2023.04   2
  -1   0  -4 37385.9 1511.39   1
  -1   0  -4 39907.1 1413.94  11
  -1   0  -5-24.2363 127.531  11
   1   0   5-9.86453 191.240   2
  -1   0  -5 286.876 204.619   1
   1   0   6 1716.92 628.657   2
   1   0   6 1802.60 348.666   6
  -1   0  -6 2198.13 432.199  11
   1   0   6 2024.02 372.142  10
  -1   0  -6 1790.63 359.753  14
  -1   0  -7 200.707 174.049  14
   1   0   7 21.1319 168.296  10
   1   0   7 10.4331 157.589   6
   1   0   8 2870.46 406.089   6
   1   0   8 3230.08 434.275  10
  -1   0  -8 2065.54 360.652  14
   1   0   9 1219.96 216.119  10
  -1  -1  10 5073.43 386.875  10
  -1   1  10 4623.73 369.124  10
   1   1 -10 3417.31 291.080   7
   1  -1 -10 3817.17 331.407   7
  -1  -1   9 3439.37 423.523  10
   1   1  -9 2628.92 373.938   7
  -1   1   9 3255.05 420.841  10
  -1  -1   8 205.892 164.953  10
  -1   1   8 191.862 159.975  10
   1  -1  -8 360.880 219.648  16
   1  -1  -7 65614.2 2047.85  14
  -1  -1   7 70148.7 2218.14  10
   1  -1  -7 71046.9 3454.85   1
  -1  -1   7 58109.2 3131.54  12
  -1   1   7 50680.3 2951.29  12
   1  -1  -7 67358.4 2791.46  16
  -1   1   7 70040.7 2277.70  10
   1   1  -7 75405.9 3522.02   1
   1  -1  -6 846.537 218.495  14
  -1  -1   6 811.859 344.539  12
   1   1  -6 911.484 351.997   1
  -1  -1   6 1015.26 257.444  10
  -1   1   6 764.139 286.872  12
   1   1  -6 1067.96 257.788  14
   1  -1  -6 721.468 285.069  16
   1  -1  -6 1294.09 426.706   1
  -1   1   6 1105.93 277.566  10
   1  -1  -5 101483. 2747.95   3
  -1   1   5 98296.4 2886.60  12
   1   1  -5 95290.1 3085.41   1
   1  -1  -5 100753. 3332.38   1
   1  -1  -4 213710. 4242.99   1
   1  -1  -4 191209. 2524.37  11
  -1   1   4 241282. 3817.61  12
   1  -1  -4 217951. 3604.39   3
   1   1  -4 192121. 2388.64  11
  -1  -1   4 251149. 3792.89  12
   1  -1  -3 7314.82 349.568  11
   1  -1  -3 8362.81 695.340   1
   1   1  -3 7970.87 325.074  11
   1   1  -3 8136.48 726.283  13
   1  -1  -3 8278.36 565.546   3
  -1   1   2 15515.6 887.021  12
   1  -1  -2 19010.3 881.780   1
   1   1  -2 18252.0 918.318  13
  -1  -1   2 22981.1 1114.04  12
   1  -1  -2 20215.1 761.986   3
   1   1  -2 20621.4 1203.52   2
   1  -1  -2 14599.1 403.596  11
   1   1  -1 113725. 2691.12   2
   1  -1  -1 116789. 1614.38   3
   1   1  -1 108287. 1860.27  13
  -1  -1   1 116338. 1944.77  12
   1  -1  -1 116291. 1841.89   1
  -1   1   1 108560. 1746.60  12
   1  -1  -1 118841. 2486.33   2
   1   1   0 162927. 3075.83   2
   1  -1   0 160324. 1565.05   3
  -1  -1   0 168176. 1663.97  11
   1  -1   0 163227. 1678.14   1
   1  -1   0 160217. 2758.62   2
   1  -1   1 38155.4 1244.94   2
  -1  -1  -1 35714.9 550.974   1
  -1   1  -1 44051.2 762.153  13
  -1  -1  -1 37596.3 554.880   3
  -1  -1  -1 41457.9 923.648  11
   1   1   1 38944.8 1457.20   2
  -1   1  -2 62145.9 1290.96  13
   1   1   2 66921.6 2152.86   2
  -1  -1  -2 69089.0 1438.28  11
  -1   1  -2 66542.1 1468.36  11
  -1  -1  -2 62767.7 1262.07   1
   1  -1   2 68685.2 1944.61   2
  -1  -1  -2 60185.9 1002.59   3
  -1   1  -3 77326.6 1992.75  13
  -1  -1  -3 81423.5 1892.53   1
   1   1   3 87900.1 2780.61   2
  -1  -1  -3 86351.7 1858.24  11
  -1   1  -3 84817.2 1902.36  11
   1  -1   3 82987.6 2538.54   2
  -1  -1  -3 78525.2 1454.65   3
  -1   1  -4 852.096 274.220   1
  -1   1  -4 1130.79 256.970  11
  -1  -1  -4 800.189 272.768   1
  -1  -1  -4 1083.68 242.438  11
   1   1   4 673.586 375.070   2
  -1   1  -4 553.514 260.789  13
   1  -1   5 3800.68 768.500   2
  -1   1  -5 4549.76 548.100  11
   1   1   5 3146.46 737.681   2
  -1   1  -5 4232.82 615.506   1
  -1  -1  -5 4488.14 549.218  11
  -1  -1  -6 22747.3 1341.60  11
   1  -1   6 22381.4 1172.22   6
   1  -1   6 22924.4 1231.73  10
  -1   1  -6 23294.7 1278.73  14
  -1   1  -6 23568.2 1371.78  11
   1   1   6 22629.1 1245.05  10
   1   1   6 21869.6 1135.16   6
   1   1   6 17755.3 1888.16   2
   1   1   7 3923.65 499.337   6
   1   1   7 3845.44 525.296  10
   1  -1   7 3605.69 505.566  10
   1  -1   7 4364.39 533.634   6
  -1  -1  -7 3430.13 531.262  14
  -1   1  -7 3750.21 525.681  14
  -1  -1  -8 430.489 211.076  14
   1  -1   8 499.476 204.016   6
   1   1   8 147.751 114.949   6
   1   1   8 675.147 219.801  10
   1  -1   8 811.035 232.301  10
   1   1   9 5281.62 437.753  10
   1  -1   9 5264.62 440.391  10
   1  -2 -10 692.843 145.260   7
  -1   2  10 795.165 161.123  10
   1   2  -9 58.6394 95.1230   7
  -1   2   9 184.581 150.564  10
  -1  -2   9 254.625 147.196  10
  -1  -2   8 9793.40 796.288  10
  -1   2   8 10012.6 834.323  10
   1  -2  -8 10527.9 1067.53  16
   1  -2  -7 97091.6 2545.16  14
  -1  -2   7 92015.5 4030.72  12
   1  -2  -7 101621. 3492.18  16
  -1   2   7 101295. 2789.70  10
   1   2  -7 102938. 4064.94   1
   1  -2  -7 104213. 4241.56   1
  -1  -2   7 102248. 2699.16  10
  -1  -2   6 4604.23 538.063  10
  -1   2   6 3440.31 685.375  12
  -1   2   6 5037.43 589.798  10
   1  -2  -6 5736.36 902.546   1
   1  -2  -6 4588.51 674.090   3
  -1  -2   6 5054.89 803.633  12
   1   2  -6 5367.28 827.271   1
   1  -2  -6 3939.56 484.065  14
   1  -2  -6 4518.20 702.943  16
   1   2  -5 9613.10 982.339   1
  -1  -2   5 12535.8 1084.80  12
  -1   2   5 9466.98 886.949  12
   1  -2  -5 8686.50 984.090   1
   1  -2  -5 9257.94 814.756   3
   1  -2  -4 28160.2 1249.02   3
   1  -2  -4 28862.1 1576.96   1
   1   2  -4 27302.2 1551.75  13
   1   2  -4 25728.0 804.767  11
   1  -2  -4 25846.0 912.698  11
   1   2  -3 34529.1 1500.13  13
   1  -2  -3 32555.6 911.718  11
   1  -2  -3 36003.5 1228.09   3
   1   2  -3 31884.6 768.130  11
   1  -2  -3 36870.1 1537.72   1
   1  -2  -2 18252.0 761.494   3
   1  -2  -2 17388.2 905.048   1
   1   2  -2 16151.7 1113.40   2
   1   2  -2 16507.1 877.476  13
   1   2  -1 999999. 10008.8   2
  -1   2   1 982493. 7396.49  12
  -1  -2   0 358513. 3006.36  11
   1   2   0 350081. 2956.85  13
   1   2   0 340351. 4955.98   2
   1  -2   0 355128. 3373.36   1
   1  -2   0 345744. 2898.92   3
   1  -2   0 348252. 3955.28   2
  -1   2  -1 88007.4 1280.53  13
   1  -2   1 76871.4 1632.13   2
   1   2   1 77128.3 2212.50   2
  -1  -2  -1 84960.4 1411.67  11
   1  -2   1 76225.0 868.710   3
  -1  -2  -1 81077.9 1082.79   3
  -1  -2  -1 78037.1 1142.54   1
  -1  -2  -2 12632.4 624.418  11
  -1   2  -2 13027.6 610.480  13
   1  -2   2 12123.3 781.259   2
  -1  -2  -2 11533.0 469.929   3
  -1  -2  -2 11246.2 551.285   1
   1   2   2 11296.0 935.476   2
  -1   2  -3 133128. 2631.10  13
   1   2   3 137306. 3702.12   2
  -1   2  -3 132686. 2482.91  11
  -1  -2  -3 137407. 2145.18   3
   1  -2   3 134057. 3180.64   2
  -1  -2  -3 133398. 2528.31   1
  -1  -2  -4 999.471 260.183  11
  -1  -2  -4 532.077 249.028   1
  -1   2  -4 564.723 225.073  13
  -1   2  -4 985.442 266.646  11
   1   2   4 748.477 384.821   2
   1  -2   4 502.761 260.462   2
  -1   2  -5 2458.48 418.336  11
  -1   2  -5 2063.04 489.768  13
  -1  -2  -5 2334.78 393.842  11
  -1   2  -5 2041.55 451.516   1
   1  -2   5 3059.51 410.566   6
   1  -2   5 2418.05 605.032   2
   1   2   5 2100.15 647.116   2
   1  -2   6 12247.6 900.333  10
  -1   2  -6 12444.4 937.789  14
   1   2   6 11140.9 817.289   6
   1  -2   6 13222.6 914.153   6
   1   2   6 9563.12 1448.99   2
  -1   2  -6 11606.9 953.700  11
   1   2   6 11649.4 902.335  10
  -1  -2  -6 11721.0 983.780  11
   1  -2   7 26484.5 1325.82  10
  -1  -2  -7 25138.5 1397.36  14
  -1   2  -7 27521.0 1399.17  14
   1   2   7 26453.4 1358.69  10
   1   2   7 25657.5 1245.49   6
   1  -2   7 26193.2 1279.86   6
  -1  -2  -8 1595.57 348.952  14
   1  -2   8 1421.45 301.222   6
   1   2   8 1129.84 238.305   6
   1   2   8 1404.32 291.542  10
   1  -2   8 1572.55 311.375  10
   1  -2   9 594.013 161.486  10
   1   2   9 479.786 138.429  10
   1  -2   9 454.285 253.749  15
  -1   3  10 3344.83 301.274  10
  -1  -3  10 3641.02 315.575  10
   1  -3 -10 2908.00 284.860   7
   1   3  -9 270.581 128.295   7
  -1  -3   9 154.899 99.1616  10
  -1   3   9 178.024 130.435  10
   1  -3  -9 180.329 192.737  16
   1  -3  -8 7160.27 666.525  14
   1   3  -8 8281.66 720.136   7
  -1  -3   8 9545.68 775.127  10
  -1   3   8 8638.51 773.890  10
   1  -3  -8 8456.11 989.969  16
  -1  -3   7 27794.5 2201.18  12
  -1  -3   7 32910.0 1512.32  10
   1  -3  -7 30848.5 1407.17  14
  -1   3   7 31445.0 1556.63  10
   1  -3  -7 30899.3 2335.69   1
   1  -3  -7 30312.5 1921.34  16
   1  -3  -6 186.214 211.807  16
   1  -3  -6-93.8744 174.557  14
   1   3  -6 125.491 193.560   1
   1  -3  -6 356.636 231.000   3
  -1  -3   6 221.921 255.449  12
  -1   3   6 87.2054 142.320  10
  -1  -3   6 304.631 187.469  10
   1  -3  -6 716.425 343.010   1
  -1   3   5 1453.72 380.721  12
  -1  -3   5 2250.37 508.284  12
   1   3  -5 1439.28 439.864  13
   1  -3  -5 1824.86 515.757   1
   1  -3  -5 1710.29 380.719   3
   1  -3  -4 182394. 4204.51   1
   1  -3  -4 177024. 3378.33   3
   1   3  -4 173246. 4063.13  13
  -1   3   4 186067. 3327.15  12
   1  -3  -3 14080.3 788.172   3
   1  -3  -3 15289.4 1033.32   1
   1  -3  -3 13541.3 667.064  11
   1   3  -3 15029.7 990.393  13
   1  -3  -2 115111. 2518.83   1
   1   3  -2 120526. 2406.50  13
   1   3  -2 113121. 3200.10   2
  -1   3   2 120277. 2376.24  12
   1  -3  -2 117902. 2072.87   3
   1   3  -1 341074. 5515.24   2
   1   3  -1 362245. 3734.90  13
   1  -3  -1 347733. 4117.32   1
  -1   3   1 334668. 3136.31  12
   1  -3  -1 357646. 3536.97   3
   1  -3   0 717508. 5476.99   3
   1   3   0 703225. 8198.64   2
  -1  -3   0 714689. 5680.18  11
  -1  -3  -1 340537. 3279.71  11
   1   3   1 303241. 4899.59   2
  -1   3  -1 334232. 3202.94  13
   1  -3   1 313155. 2588.88   3
  -1  -3  -1 320345. 2873.71   3
  -1   3  -2 1864.91 278.867  13
  -1  -3  -2 1470.21 238.526   1
   1  -3   2 1313.20 263.913   2
  -1  -3  -2 1449.42 194.611   3
   1   3   2 1581.27 429.670   2
  -1  -3  -2 1517.26 250.853  11
  -1  -3  -3 30068.0 1197.01   1
  -1   3  -3 29599.9 1202.84  13
   1   3   3 31544.9 1822.92   2
  -1  -3  -3 34227.2 1212.57  11
  -1  -3  -3 30771.0 1040.53   3
   1  -3   3 32295.6 1457.21   2
   1   3   4 1590.46 529.076   2
  -1  -3  -4 2333.82 361.173  11
  -1   3  -4 2486.74 387.419  11
  -1  -3  -4 1321.76 309.384   1
  -1   3  -4 1979.73 425.127  13
   1  -3   4 1753.59 436.176   2
  -1   3  -5 149.466 196.198  13
  -1   3  -5 211.376 169.385  14
  -1   3  -5 230.260 198.142  11
   1   3   5 511.114 222.273   6
   1  -3   5 736.994 241.005   6
   1   3   5 40.5927 211.689   2
  -1  -3  -5 493.688 221.489  11
   1   3   6 68967.2 3914.75   2
  -1   3  -6 94524.1 2596.10  14
   1  -3   6 90279.7 2389.48   6
  -1  -3  -6 83013.4 2651.29  11
   1  -3   6 88760.8 2451.91  10
   1   3   6 79574.1 2208.30   6
   1   3   6 85234.7 2515.55  10
  -1   3  -6 79023.9 2560.11  11
   1   3   7 33000.4 1527.62  10
  -1  -3  -7 31933.8 1573.95  14
   1  -3   7 33906.9 1466.62   6
   1   3   7 33412.8 1407.14   6
   1  -3   7 33867.8 1507.20  10
  -1  -3  -8 1874.28 382.603  14
   1   3   8 2002.12 344.824  10
   1  -3   8 2071.63 341.322  10
   1   3   8 1906.53 328.902   6
   1  -3   9 171.221 90.2248  10
   1  -3   9-0.94462 226.228  15
   1   3   9 421.835 130.577  10
   1  -4 -10 1153.64 178.330   7
  -1  -4  10 1750.53 206.055  10
  -1   4  10 1834.26 212.767  10
  -1  -4   9 290.330 145.226  10
   1  -4  -9 538.896 257.682  16
   1   4  -9 148.708 94.0295   7
  -1   4   9 288.487 159.430  10
   1  -4  -8 13131.3 883.830  14
  -1  -4   8 15559.4 982.681  10
   1   4  -8 14184.1 916.141   7
  -1   4   8 14975.5 1007.15  10
   1  -4  -8 13781.3 1252.75  16
   1  -4  -7 27681.5 1335.07  14
   1   4  -7 29295.1 1400.80   7
  -1  -4   7 30686.6 1461.02  10
  -1   4   7 29010.0 1516.48  10
   1  -4  -7 31159.7 1942.27  16
   1  -4  -6 944.688 260.551  14
  -1   4   6 1140.51 305.813  10
  -1  -4   6 665.021 367.756  12
   1   4  -6 1180.51 289.165   7
   1  -4  -6 1164.40 444.579   1
  -1  -4   6 1442.58 314.774  10
   1  -4  -6 1328.54 432.421  16
   1  -4  -6 1325.24 383.999   3
   1  -4  -5 11348.5 940.895   3
   1  -4  -5 13222.4 1283.45   1
   1   4  -5 11005.0 1154.91  13
   1  -4  -4 17641.1 1060.74   3
   1   4  -4 17373.4 1283.53  13
   1  -4  -4 17812.5 1319.15   1
   1  -4  -4 14938.8 893.701  11
   1   4  -3 3451.76 506.917  13
  -1  -4   3 3131.23 1353.88  12
   1  -4  -3 2744.46 354.449  11
   1  -4  -3 3339.73 420.629   3
   1  -4  -3 3375.77 521.611   1
   1   4  -2 101543. 3091.35   2
   1  -4  -2 101282. 2450.66   1
   1   4  -2 102375. 2222.24  13
   1  -4  -2 101497. 1987.44   3
   1  -4  -1 59080.5 1638.35   1
   1   4  -1 57550.7 1343.38  13
   1  -4  -1 57973.8 1291.83   3
  -1  -4   0 44739.3 1154.80  11
  -1   4   0 44611.2 1085.19  13
  -1  -4   0 43066.3 1358.50  12
   1   4   0 45798.8 989.943  13
   1  -4   0 44289.3 1003.44   3
   1   4   0 42863.3 1911.33   2
   1   4   1 14222.5 443.236  13
  -1   4  -1 17300.6 688.294  13
   1   4   1 14265.6 1113.13   2
  -1  -4  -1 16980.6 732.762  11
   1  -4   1 15299.3 545.460   3
  -1  -4  -1 15402.2 609.790   3
   1   4   2 6492.23 816.896   2
  -1  -4  -2 6834.63 508.000  11
  -1  -4  -2 6023.42 496.861   1
  -1   4  -2 6814.82 518.571  13
  -1  -4  -2 7052.64 458.252   3
  -1   4  -3 144153. 2842.51  13
  -1  -4  -3 140994. 2852.20   1
  -1  -4  -3 150212. 2739.57  11
  -1  -4  -3 144554. 2525.80   3
   1   4   3 139742. 4125.60   2
  -1   4  -4 625.730 266.310  13
  -1  -4  -4 844.815 260.324  11
  -1  -4  -4 324.324 161.169   3
  -1   4  -4 479.748 217.530  11
   1   4   4 256.108 325.152   2
  -1  -4  -4 514.474 214.323   1
  -1   4  -5 16012.2 1344.02  13
  -1  -4  -5 14087.0 1120.42  16
   1   4   5 14167.2 1630.45   2
   1   4   5 15758.4 1053.30  10
   1  -4   5 20180.7 1069.37   6
   1   4   5 14369.4 877.054   6
  -1  -4  -5 18574.7 1159.57  11
  -1   4  -5 16539.0 1112.87  11
   1  -4   5 16797.1 1006.84  10
   1   4   6 20659.7 1102.82   6
  -1  -4  -6 18395.0 1393.06  16
  -1   4  -6 18680.4 1260.30  11
   1   4   6 16537.2 1967.80   2
   1  -4   6 23286.2 1203.01   6
   1  -4   6 22036.9 1219.59  10
  -1  -4  -6 22760.6 1479.11  11
   1   4   6 21528.8 1257.46  10
   1  -4   7 23397.8 1209.76   6
   1   4   7 23865.1 1171.56   6
   1   4   7 22660.8 1274.65  10
   1  -4   7 23524.6 1261.01  10
   1   4   8 1124.01 225.224   6
  -1  -4  -8 1476.63 329.587  14
   1  -4   8 1857.32 330.113  10
   1   4   8 1535.26 297.938  10
   1  -4   9 1686.33 243.231  10
  -1  -4  -9 1612.29 250.797  14
   1   4   9 1099.04 179.471  10
   1  -4   9 1309.53 391.550  15
   1  -5  -9 363.177 232.595  16
  -1  -5   9 849.535 214.319  10
  -1   5   9 781.802 200.214  10
   1   5  -8 5217.36 534.989   7
   1  -5  -8 4786.77 526.915  14
  -1  -5   8 5332.72 565.845  10
  -1   5   8 4965.40 577.371  10
   1  -5  -8 5175.01 765.143  16
   1  -5  -7 2876.38 616.570  16
   1   5  -7 2626.39 407.929   7
   1  -5  -7 2049.92 382.578  14
  -1   5   7 2913.33 497.121  10
  -1  -5   7 2657.93 440.641  10
   1   5  -6 1121.79 298.005   7
   1  -5  -6 600.385 181.264  14
  -1   5   6 908.311 297.202  10
  -1  -5   6 823.537 410.864  12
   1  -5  -6 552.460 263.788  16
   1  -5  -6 786.614 419.570   1
  -1  -5   6 882.926 270.217  10
   1  -5  -6 769.182 305.561   3
   1   5  -6 418.360 262.025  13
   1   5  -5 6096.40 888.030  13
   1  -5  -5 6313.12 797.237  16
  -1   5   5 5554.15 625.617  10
   1   5  -5 5362.34 563.467   7
  -1  -5   5 6818.20 894.616  12
   1  -5  -5 5807.86 700.771   3
  -1  -5   5 6064.90 591.668  10
   1  -5  -5 6183.52 899.877   1
   1  -5  -4 10576.8 805.108  11
   1   5  -4 10775.2 1019.79  13
   1  -5  -4 10733.5 1070.63   1
   1  -5  -4 12350.5 922.604   3
   1  -5  -3 45479.7 1942.66   1
   1   5  -3 44368.5 1740.79  13
   1  -5  -3 46580.4 1581.91   3
   1  -5  -2 6343.29 661.952   1
   1   5  -2 5737.06 554.583  13
   1  -5  -2 5930.47 507.666   3
   1   5  -2 5181.29 742.465   2
   1   5  -1 303.457 310.073   2
   1  -5  -1 82.7189 139.785   1
  -1  -5   1 1.23416 188.711  12
   1   5  -1 280.499 148.613  13
   1  -5  -1 80.1427 99.6819   3
   1   5   0 379282. 3903.76  13
  -1   5   0 391825. 4144.39  13
   1   5   0 384465. 6456.11   2
  -1  -5   0 382679. 4412.37  11
   1  -5   0 389369. 4003.32   3
  -1   5  -1 37601.0 1125.07  13
  -1  -5  -1 35764.8 1060.06   3
   1   5   1 33716.4 1754.03   2
   1   5   1 34070.9 841.834  13
  -1  -5  -1 38474.7 1254.89  11
   1  -5   1 36481.8 986.610   3
   1   5   2 69513.7 2720.86   2
  -1  -5  -2 74713.5 1858.98  11
  -1  -5  -2 69991.9 1631.10   3
  -1  -5  -2 67895.4 1814.06   1
  -1   5  -2 73624.9 1812.16  13
   1   5   3 6495.46 959.518   2
  -1  -5  -3 6930.72 624.238  11
  -1   5  -3 6294.09 612.462  13
  -1  -5  -3 6324.07 549.713   3
  -1  -5  -3 6026.68 611.618   1
   1   5   4 10174.7 1317.28   2
  -1  -5  -4 11847.2 897.309  11
  -1   5  -4 11045.4 962.921  13
  -1  -5  -4 10644.3 920.176   1
  -1  -5  -4 10854.2 810.550   3
   1   5   5 1840.08 377.120  10
  -1   5  -5 2400.18 589.838  13
   1  -5   5 2201.93 385.853  10
  -1  -5  -5 1530.34 429.021  16
  -1  -5  -5 1965.52 417.174  11
  -1   5  -5 2165.54 433.164  11
   1  -5   5 1943.00 352.686   6
   1   5   5 1566.59 292.232   6
   1   5   5 1441.00 554.966   2
   1   5   6 38832.7 3092.37   2
   1   5   6 52534.7 2006.46  10
  -1  -5  -6 48149.9 2237.89  16
   1  -5   6 50433.3 1799.11   6
  -1   5  -6 44040.6 1989.43  11
   1   5   6 49299.5 1699.87   6
  -1  -5  -6 47264.1 2213.73  11
   1  -5   6 53815.6 1922.99  10
   1   5   7 1095.67 301.379  10
   1  -5   7 706.831 248.546  10
  -1  -5  -7 1072.07 366.178  16
   1   5   7 1019.75 256.057   6
  -1  -5  -8 8149.44 687.620  14
   1   5   8 7221.45 609.935  10
   1  -5   8 7946.68 649.495  10
   1  -5   9 5.06915 249.329  15
  -1  -5  -9 176.639 110.629  14
   1  -5   9 22.9160 74.0898  10
   1  -6  -9-200.691 194.956  16
  -1  -6   9-34.8027 93.1036  10
  -1   6   9 134.241 132.301  10
   1   6  -8 750.595 200.106   7
  -1   6   8 974.284 280.055  10
   1  -6  -8 832.097 361.026  16
  -1  -6   8 822.699 248.187  10
  -1   6   7 3044.04 514.152  10
   1  -6  -7 2008.47 542.317  16
   1   6  -7 2519.61 409.654   7
  -1  -6   7 2210.26 409.484  10
   1  -6  -7 1733.40 363.324  14
   1  -6  -6-256.815 247.945  16
   1   6  -6-161.921 203.429   7
  -1  -6   6-78.0055 345.000  12
  -1  -6   6-102.557 180.930  10
   1  -6  -6-102.594 236.443   1
   1  -6  -6 298.758 232.499   3
  -1   6   6-56.6430 164.213  10
  -1  -6   5 1173.56 440.756  12
  -1  -6   5 1402.35 306.458  10
  -1   6   5 1216.11 328.624  10
   1   6  -5 1155.24 286.216   7
   1  -6  -5 1210.30 381.542   3
   1   6  -5 1046.82 421.198  13
   1  -6  -5 1371.57 439.363  16
   1  -6  -5 1154.47 396.492   1
   1  -6  -4 45179.5 2281.27   1
   1   6  -4 42988.9 2085.63  13
  -1  -6   4 49225.7 2044.61  12
   1  -6  -4 43479.1 1823.49   3
   1   6  -3 335.407 227.246  13
  -1  -6   3 109.705 753.541  12
   1  -6  -3 178.147 178.262   1
   1  -6  -3 218.107 160.106   3
   1   6  -2 19376.0 1004.65  13
   1  -6  -2 21104.2 1013.72   3
   1   6  -2 18486.9 1448.10   2
   1  -6  -2 21073.8 1275.95   1
   1  -6  -1 14796.9 968.129   1
   1   6  -1 13937.8 764.071  13
  -1  -6   1 16421.1 1164.76  12
   1   6  -1 14460.1 1294.69   2
   1  -6  -1 14810.1 769.953   3
  -1   6   0 70138.9 1645.60  13
  -1  -6   0 73376.8 1902.30  12
   1   6   0 66281.9 1498.56  13
   1   6   0 64192.6 2679.52   2
  -1  -6   0 64207.0 1796.30  11
   1  -6   0 68705.8 1591.98   3
  -1  -6  -1 43.4079 153.010  11
   1   6   1-15.9024 96.1930  13
  -1  -6  -1-0.81370 96.8781   3
  -1   6  -1 156.940 131.264  13
  -1  -6  -1 144.457 150.836  12
   1   6   1-188.620 225.304   2
   1  -6   1 85.6677 92.1114   3
   1  -6   2 565.601 176.931   3
  -1  -6  -2 963.221 280.129  11
  -1   6  -2 1106.22 262.182  13
   1   6   2 949.372 414.218   2
  -1  -6  -2 541.379 207.373   3
  -1   6  -3 2212.81 407.668  13
  -1  -6  -3 2221.43 402.437  11
   1   6   3 1789.30 558.311   2
  -1  -6  -3 2165.27 367.845   3
  -1  -6  -3 2463.71 447.334   1
  -1   6  -4 39143.1 1847.40  13
   1  -6   4 41059.1 1518.36   6
  -1  -6  -4 41272.3 1833.76  16
  -1  -6  -4 46175.3 1894.28  11
   1   6   4 38443.8 2644.06   2
   1   6   4 38180.4 1380.64   8
  -1  -6  -4 38625.4 1632.40   3
  -1  -6  -5 673.525 254.410  16
  -1   6  -5 651.620 273.728  11
  -1   6  -5 176.693 250.438  13
   1  -6   5 675.477 260.089   6
  -1  -6  -5 762.990 305.893  11
   1   6   5 540.326 211.093   8
   1   6   5 564.085 177.272   6
   1  -6   5 648.126 250.650  10
   1   6   5 1184.61 515.498   2
   1   6   5 457.915 239.034  10
   1   6   6 3169.18 450.345   6
   1   6   6 3456.36 540.471  10
   1  -6   6 3668.10 524.439  10
  -1  -6  -6 3192.50 615.968  16
   1   6   7 6697.43 677.741  10
   1  -6   7 7683.16 702.806  10
  -1  -6  -7 6608.41 843.537  16
  -1  -6  -8 3129.56 424.464  14
   1  -6   8 2366.04 605.992  15
   1   6   8 2748.05 365.390  10
   1  -6   8 2993.81 397.806  10
   1  -6   9-94.9601 183.281  15
  -1  -6  -9-28.3635 83.3761  14
  -1  -7   9 1998.80 271.565  10
  -1   7   9 1795.37 262.890  10
   1  -7  -9 1534.58 316.719  16
  -1  -7   8 69.9799 116.394  10
   1  -7  -8 50.9798 227.308  16
  -1   7   8 65.5780 154.911  10
   1  -7  -7 28128.1 1836.25  16
   1   7  -7 27194.9 1261.65   7
  -1   7   7 27774.8 1476.43  10
  -1  -7   7 27744.8 1363.97  10
   1   7  -6 2273.25 391.718   7
  -1  -7   6 1895.41 402.450  10
  -1   7   6 2021.20 458.594  10
   1  -7  -6 2243.28 573.718  16
   1  -7  -5 2142.54 531.018  16
  -1  -7   5 1777.03 368.482  10
   1   7  -5 1506.32 327.722   7
  -1  -7   5 2293.87 584.481  12
   1  -7  -5 1832.29 440.739   3
   1  -7  -5 1585.73 531.054   1
   1  -7  -5 2366.85 394.689   5
   1   7  -5 1885.75 532.317  13
   1   7  -4 17726.0 1381.21  13
  -1  -7   4 19861.9 1385.56  12
   1  -7  -4 19401.6 1562.65   1
   1  -7  -4 17855.4 1211.69   3
  -1  -7   4 15851.3 955.359  10
   1  -7  -4 17646.2 1023.72   5
   1  -7  -4 14208.1 1175.70  16
   1   7  -3 22787.7 1351.41  13
   1  -7  -3 23108.0 1258.63   3
   1  -7  -3 23688.1 1593.41   1
   1   7  -2 6587.67 649.365  13
   1   7  -2 4783.33 791.067   2
  -1  -7   2 4460.50 1738.56  12
   1  -7  -2 8119.78 693.183   3
   1  -7  -2 6258.32 741.750   1
   1   7  -1 4884.70 832.279   2
   1  -7  -1 5534.19 541.274   3
  -1   7   1 5006.88 489.828  13
   1   7  -1 4514.59 464.702  13
   1   7   0 9114.59 611.167  13
  -1   7   0 8618.79 628.846  13
   1  -7   0 8623.73 626.494   3
  -1  -7   0 10620.3 847.970  12
   1   7   1 52724.9 1346.09  13
  -1   7  -1 57560.1 1663.24  13
   1   7   1 48515.4 2524.33   2
  -1  -7  -1 53269.9 1667.36  12
  -1  -7  -1 52404.7 1874.21  11
   1  -7   1 53580.9 1547.28   3
  -1  -7  -1 57106.9 1649.51   3
  -1   7  -2 907.301 254.693  13
  -1  -7  -2 622.038 267.746  11
   1   7   2-182.783 292.562   2
   1  -7   2 246.509 153.364   3
  -1  -7  -2 320.868 195.046   3
  -1  -7  -3 10740.8 829.053   3
   1   7   3 8660.59 1207.73   2
  -1   7  -3 10312.3 897.424  13
   1   7   4 7075.23 1200.38   2
  -1  -7  -4 8507.34 854.798  16
  -1   7  -4 8003.85 881.436  13
  -1  -7  -4 9488.35 928.635  11
   1   7   4 8457.53 668.743   8
  -1  -7  -4 6897.33 743.683   3
   1  -7   4 8718.76 749.635  10
  -1  -7  -4 7535.86 684.848   5
   1   7   5 925.104 269.328   8
  -1   7  -5 1860.36 554.784  13
   1   7   5 1090.70 330.819  10
  -1   7  -5 346.606 198.458  11
  -1  -7  -5 1073.54 385.667  16
  -1  -7  -5 1137.73 392.713  11
   1   7   5 853.952 274.419   6
   1  -7   5 911.853 277.415  10
   1   7   5 611.052 506.180   2
  -1  -7  -6 2555.03 567.699  16
   1   7   6 2921.55 422.908   6
   1  -7   6 3261.56 510.886  10
   1   7   6 2486.35 465.533  10
   1  -7   7 10626.8 818.468  10
   1   7   7 9936.14 796.915  10
  -1  -7  -7 9418.84 982.732  16
  -1  -7  -8 2320.89 350.562  14
   1  -7   8 2213.43 520.776  15
  -1  -7  -8 1853.11 400.316  16
   1   7   8 2149.29 310.804  10
   1  -7   8 2458.78 347.758  10
   1  -8  -9 657.376 200.090  16
  -1   8   9 448.107 126.897  10
   1  -8  -8 10.1073 177.596  16
  -1   8   8 160.944 143.938  10
  -1  -8   8 379.227 174.298  10
   1  -8  -7 1653.70 512.622  16
  -1  -8   7 2178.70 397.423  10
  -1   8   7 1671.04 360.249  10
   1   8  -6 1477.54 315.964   7
  -1  -8   6 1238.68 342.474  10
  -1   8   6 1363.46 391.526  10
   1  -8  -6 1002.12 383.493  16
   1  -8  -5 1227.65 418.776  16
   1  -8  -5 1519.30 562.758   1
   1   8  -5 2195.46 661.650  13
   1   8  -5 1610.19 325.530   7
  -1  -8   5 2113.80 604.718  12
  -1  -8   5 1588.73 372.885  10
   1  -8  -5 1765.62 372.273   5
   1  -8  -5 1586.18 448.865   3
   1   8  -4 4832.23 541.697   7
   1  -8  -4 5482.80 595.935   5
  -1  -8   4 5432.07 840.348  12
   1   8  -4 5422.53 826.697  13
  -1  -8   4 4612.45 570.501  10
   1  -8  -4 6091.25 759.137   3
   1  -8  -4 6110.29 898.984   1
   1  -8  -4 7158.37 878.333  16
   1   8  -3 11305.8 1004.19  13
  -1  -8   3 11720.0 1019.19  12
   1  -8  -3 11974.1 967.051   3
   1  -8  -3 12794.7 1191.10   1
   1  -8  -2 4666.70 713.518   1
   1  -8  -2 5220.91 612.734   3
   1   8  -2 4831.24 597.448  13
   1   8  -2 4940.06 852.373   2
  -1   8   1 7144.77 642.095  13
   1   8  -1 6956.04 637.093  13
   1   8  -1 7550.24 1057.43   2
   1  -8  -1 6841.52 672.239   3
  -1   8   0 25885.6 1175.70  13
   1   8   0 24406.4 1922.40   2
   1   8   0 24260.0 1087.44  13
   1  -8   0 26849.9 1215.01   3
  -1  -8   0 26496.1 1226.92   3
   1   8   1 13109.5 1452.64   2
  -1  -8  -1 12503.9 1019.39  11
  -1   8  -1 15452.0 934.815  13
   1   8   1 12819.8 748.595  13
  -1  -8  -1 15082.6 934.552   3
   1  -8   1 15044.8 906.431   3
  -1  -8  -2 395.562 192.747   3
  -1   8  -2 695.989 251.777  13
   1  -8   2 609.090 218.517   3
  -1  -8  -2 962.338 350.075  11
   1   8   2 864.781 434.643   2
  -1  -8  -3 109096. 3042.47  16
  -1   8  -3 103913. 2992.20  13
   1   8   3 93533.8 2215.54   8
  -1  -8  -3 110732. 3277.05  11
   1  -8   3 95686.9 2515.51  10
  -1  -8  -3 84340.7 2298.25   5
  -1  -8  -3 103512. 2828.14   3
   1  -8   3 106219. 4058.75  15
   1   8   3 91221.4 4098.92   2
  -1  -8  -4 512.198 298.494  16
  -1   8  -4 411.213 296.428  13
  -1  -8  -4 379.501 263.972  11
   1  -8   4 192.169 176.471  10
  -1  -8  -4 255.348 200.085   5
   1   8   4 430.873 400.558   2
   1   8   4 489.375 209.380   8
  -1  -8  -5 26377.6 1638.37  16
   1   8   5 21638.5 1337.34  10
   1   8   5 20210.3 1078.81   6
   1  -8   5 24161.2 1351.61  10
   1   8   5 24330.6 1199.30   8
   1  -8   6 2375.94 652.024  15
  -1  -8  -6 1821.37 497.837  16
   1  -8   6 2253.74 445.692  10
   1   8   6 2234.32 447.146  10
  -1  -8  -7 31.6757 213.455  16
   1  -8   7 61.1688 125.142  10
   1   8   7 119.945 130.495  10
   1  -8   7 175.297 417.586  15
  -1  -8  -8 970.785 243.328  16
  -1  -8  -8 1008.48 225.101  14
   1  -8   8 948.285 357.332  15
   1   8   8 752.257 172.219  10
   1  -9  -8 940.416 303.397  16
  -1   9   8 1057.19 237.548  10
  -1  -9   7 1675.96 347.483  10
  -1   9   7 1478.02 361.615  10
   1  -9  -7 1787.93 440.947  16
  -1   9   6 3098.14 529.452  10
  -1  -9   6 3110.46 494.177  10
   1  -9  -6 2152.72 563.317  16
  -1  -9   5 5624.43 684.251  10
   1  -9  -5 6812.09 954.310  16
   1   9  -5 6371.83 630.386   7
   1  -9  -5 7370.78 746.197   5
   1   9  -4 32048.0 1998.45  13
   1   9  -4 32224.2 1413.39   7
  -1  -9   4 31787.7 2029.09  12
  -1  -9   4 30357.9 1483.65  10
   1  -9  -4 33444.6 1870.19   3
   1  -9  -4 36283.0 1562.59   5
   1  -9  -4 35288.6 2028.19  16
   1  -9  -4 32982.0 2316.58   1
   1  -9  -3 4394.54 753.597   1
   1   9  -3 3189.82 573.228  13
   1  -9  -3 3075.10 595.953  16
  -1  -9   3 3843.03 616.339  12
   1   9  -3 3841.13 474.339   7
   1  -9  -3 3600.04 595.858   3
   1  -9  -3 4533.85 548.571   5
  -1   9   2 1354.76 325.172  13
   1   9  -2 1531.03 408.628  13
   1  -9  -2 1559.39 336.336   5
   1  -9  -2 1690.32 393.031   3
   1  -9  -1 1527.31 360.610   3
   1   9  -1 1080.15 292.940  13
  -1   9   1 1703.54 361.790  13
   1   9   0 19553.4 1077.76  13
  -1   9   0 19990.2 1107.07  13
   1  -9   0 20478.5 1195.15   3
   1   9   0 17801.7 1740.77   2
  -1  -9   0 20298.6 1170.05   3
  -1   9  -1 21577.5 1199.79  13
   1  -9   1 20693.7 1185.71   3
  -1  -9  -1 20446.4 1206.00   3
   1   9   1 18686.2 1858.63   2
   1  -9   2 572.092 228.227   3
   1  -9   2 893.494 402.805  15
  -1   9  -2 903.815 302.940  13
  -1  -9  -2 455.552 202.067  11
  -1  -9  -2 394.629 177.651   5
  -1  -9  -2 679.923 282.096   3
  -1  -9  -2 590.867 251.788  16
   1   9   2 616.074 400.985   2
   1   9   2 477.589 130.299   8
   1  -9   3 3405.44 814.894  15
   1   9   3 3366.36 448.193   8
  -1   9  -3 3488.35 600.653  13
  -1  -9  -3 4072.56 704.542  11
  -1  -9  -3 2894.03 449.453   5
  -1  -9  -3 2840.09 510.932   3
   1   9   3 2469.32 687.542   2
  -1  -9  -3 3806.86 618.339  16
   1  -9   4 7488.35 1181.36  15
  -1   9  -4 6291.56 864.917  13
  -1  -9  -4 7470.74 853.963  16
  -1  -9  -4 7080.05 968.880  11
  -1  -9  -4 7077.06 685.781   5
   1  -9   4 6239.46 713.038  10
   1   9   4 7160.62 650.415   8
   1   9   4 5133.27 1137.66   2
  -1  -9  -5 1464.04 480.007  16
   1  -9   5 894.385 558.563  15
   1  -9   5 655.055 255.447  10
   1   9   5 432.889 253.392  10
   1   9   6 5930.31 643.862  10
   1  -9   6 7839.33 1171.14  15
  -1  -9  -6 8233.28 999.332  16
   1  -9   6 8640.26 774.393  10
   1  -9   7 1339.05 477.363  15
  -1  -9  -7 2088.24 480.640  16
   1   9   7 1717.27 295.568  10
  -1  -9  -8 3895.57 381.918  14
  -1  -9  -8 3036.41 403.127  16
   1  -9   8 3310.64 525.170  15
  -1  10   8 3.43384 108.994  10
   1 -10  -8 272.401 195.719  16
   1 -10  -7 6893.14 852.538  16
  -1  10   7 7751.78 706.812  10
   1 -10  -6 527.858 322.168  16
  -1  10   6 300.691 214.840  10
   1 -10  -5-199.156 340.616  16
   1 -10  -5 158.103 196.828   5
   1  10  -4 16357.1 1003.48   7
   1 -10  -4 16413.8 1419.06  16
  -1  10   4 13597.7 1122.22  13
   1  10  -4 13269.3 1354.81  13
   1 -10  -4 15959.9 1079.14   5
   1  10  -3 28114.0 1302.65   7
  -1  10   3 28703.2 1545.36  13
   1  10  -3 25610.3 1687.74  13
   1 -10  -3 28646.1 1740.15   3
   1 -10  -3 28775.0 1399.18   5
   1 -10  -3 23539.4 1657.82  16
   1  10  -2 12951.7 866.787   7
   1 -10  -2 14851.3 1178.84   3
   1 -10  -2 13328.3 937.155   5
   1  10  -2 12736.3 1100.11  13
  -1  10   2 14036.7 1038.47  13
  -1  10   1 23606.9 1302.89  13
   1  10  -1 19679.3 1231.96  13
   1 -10  -1 22504.2 1396.52   3
   1 -10  -1 22195.0 1181.93   5
  -1 -10   1 24596.7 1393.26   3
  -1  10   0 1194.17 346.425  13
  -1 -10   0 1122.93 376.658  16
   1  10   0 1352.07 268.734   8
  -1 -10   0 1415.64 366.936   3
  -1 -10   0 1247.95 307.292   5
   1 -10   0 1490.77 328.936   5
   1 -10   0 1279.64 362.864   3
   1 -10   1 7715.41 1085.99  15
  -1 -10  -1 8675.55 935.189  16
   1  10   1 9512.16 708.944   8
  -1  10  -1 11328.2 950.304  13
  -1 -10  -1 10774.9 944.236   3
  -1 -10  -1 8760.40 759.408   5
   1 -10   1 10268.2 907.460   3
   1  10   2 759.902 231.363   8
  -1 -10  -2 633.706 266.214   3
  -1  10  -2 385.263 243.806  13
  -1 -10  -2 481.916 260.672  16
  -1 -10  -2 364.767 181.522   5
   1 -10   2 515.370 226.527   3
   1  10   2 954.147 496.453   2
   1 -10   2 196.630 353.956  15
  -1  10  -3 75748.0 2868.69  13
   1 -10   3 79162.5 3590.93  15
  -1 -10  -3 60061.5 2449.72   3
   1  10   3 54854.9 3746.51   2
  -1 -10  -3 84740.6 2841.48  16
  -1 -10  -3 78589.6 2314.07   5
   1  10   3 77576.0 2106.97   8
   1  10   4 53441.7 1789.17   8
   1 -10   4 56499.3 3107.53  15
  -1 -10  -4 56637.3 1977.55   5
  -1 -10  -4 58221.6 2432.88  16
   1 -10   5 580.985 590.872  15
   1  10   5 29.7764 158.448  10
  -1 -10  -5 296.085 291.928  16
  -1 -10  -6 3236.42 619.703  16
   1 -10   6 1858.33 599.824  15
   1  10   6 2821.27 427.357  10
   1 -10   7 1090.72 426.497  15
   1  10   7 1337.57 265.908  10
  -1 -10  -7 1191.66 335.920  16
   1 -11  -8 379.976 203.578  16
  -1  11   8 159.238 106.202  10
  -1  11   7 645.560 211.135  10
   1 -11  -7 863.092 347.854  16
   1 -11  -6-115.783 294.629  16
  -1  11   6 260.069 209.538  10
   1 -11  -5 216.780 339.955  16
   1 -11  -5 286.775 271.722   5
   1  11  -4 53044.2 1795.04   7
   1 -11  -4 60395.3 2123.16   5
   1 -11  -4 55689.2 2595.12  16
   1  11  -3 29550.5 1347.30   7
  -1  11   3 24151.2 1509.28  13
   1  11  -3 21334.7 1640.97  13
   1 -11  -3 30030.9 1482.86   5
  -1 -11   2 1140.41 374.377   3
  -1  11   2 1336.42 363.569  13
   1  11  -2 1187.03 361.077  13
   1 -11  -2 1221.21 338.607   5
   1 -11  -2 1205.55 375.935   3
  -1  11   1 30790.7 1601.58  13
   1 -11  -1 28808.8 1707.60   3
   1 -11  -1 30467.9 1452.12   5
  -1 -11   1 28851.1 1409.66   5
  -1 -11   1 30429.8 1666.47   3
   1  11  -1 26183.6 1248.30   8
  -1  11   0 13100.8 1056.99  13
   1 -11   0 12667.2 1125.65   3
  -1 -11   0 13210.0 933.604   5
   1 -11   0 13323.3 981.688   5
  -1 -11   0 12782.2 1100.31   3
   1  11   0 11788.3 823.953   8
  -1 -11  -1 478.547 249.497   3
   1  11   1 810.317 248.492   8
  -1  11  -1 1325.93 410.651  13
   1 -11   1 250.298 211.538   3
  -1 -11  -1 245.523 247.613  16
  -1 -11  -1 580.787 251.288   5
   1 -11   1 760.350 282.847   5
  -1 -11  -2 13392.9 1173.12  16
  -1  11  -2 12026.5 1143.68  13
   1 -11   2 14549.7 1531.21  15
   1  11   2 14387.8 894.877   8
  -1 -11  -2 14295.8 989.299   5
  -1 -11  -2 13370.5 1175.88   3
  -1 -11  -3 22222.1 1504.97  16
  -1 -11  -3 21297.3 1230.89   5
   1 -11   3 20426.4 1841.92  15
   1  11   3 20225.4 1078.64   8
   1  11   4 6472.10 614.715   8
  -1 -11  -4 7526.69 716.667   5
   1 -11   4 5946.05 1060.42  15
  -1 -11  -4 7151.01 900.640  16
   1 -11   5 258.517 444.348  15
  -1 -11  -5 735.610 373.150  16
   1  11   5 599.805 243.291  10
   1  11   6 4272.36 507.767  10
  -1 -11  -6 5280.79 711.672  16
   1 -11   6 3858.20 730.843  15
  -1 -11  -7-128.198 175.569  16
   1 -11   7 87.7928 242.093  15
   1 -12  -7 6028.45 658.392  16
  -1  12   7 5922.24 506.526  10
   1 -12  -6 332.665 263.682  16
  -1  12   6 186.314 188.520  10
   1 -12  -5 2245.26 558.207  16
   1 -12  -5 3531.46 506.614   5
   1 -12  -4 8353.43 1008.51  16
   1 -12  -4 10107.0 862.822   5
   1 -12  -3 7672.78 768.228   5
   1 -12  -2 8932.18 825.449   5
   1  12  -2 8129.51 705.856   8
   1  12  -1 14038.9 916.550   8
   1 -12  -1 14773.2 1060.12   5
  -1 -12   1 14383.8 1049.24   5
  -1 -12   0 220.811 174.025   5
   1 -12   0 309.902 250.081   5
   1  12   0 771.674 254.952   8
  -1 -12  -1 667.812 385.280  16
   1  12   1 460.796 189.594   8
  -1 -12  -1 781.869 290.094   5
   1 -12   1 1034.68 331.008   5
   1  12   2 683.181 231.296   8
   1 -12   2 1351.86 562.922  15
  -1 -12  -2 672.106 260.676   5
  -1 -12  -2 739.465 422.300  16
   1 -12   2 374.035 256.334   5
  -1 -12  -3 11839.3 1162.51  16
   1 -12   3 12680.8 1442.77  15
  -1 -12  -3 13206.3 955.074   5
   1  12   3 11898.6 820.031   8
   1 -12   4 907.661 379.048  15
  -1 -12  -4 2096.23 514.770  16
  -1 -12  -4 1917.78 359.504   5
   1  12   4 1242.02 277.863   8
   1 -12   5 501.205 401.997  15
   1  12   5 1195.55 296.256  10
   1 -12   6 2245.30 517.448  15
   1  12   6 2127.70 323.449  10
  -1 -12  -6 3394.16 534.632  16
  -1 -12  -7 1032.09 240.325  16
   1 -13  -6 701.657 272.445  16
  -1  13   6 223.533 147.217  10
  -1  13   5 2472.28 436.496  10
   1 -13  -5 3218.62 593.149  16
   1 -13  -4 383.251 239.375   5
   1 -13  -3 16144.1 1097.91   5
   1 -13  -2 114.063 219.047   5
  -1 -13   2 549.425 250.686   5
   1 -13  -1 12380.2 980.266   5
  -1 -13   1 12036.9 937.711   5
  -1 -13   0 38.7264 164.821   5
   1 -13   0 108.383 229.658   5
  -1 -13  -1 11673.1 905.791   5
   1 -13   1 12860.6 988.910   5
  -1 -13  -1 10278.0 1022.87  16
  -1 -13  -2 78.2089 208.420  16
  -1 -13  -2 30.8911 164.009   5
   1 -13   2-235.575 235.565   5
  -1 -13  -3 8791.09 737.504   5
   1 -13   3 9411.57 828.106   5
  -1 -13  -4-74.6013 266.816  16
   1 -13   4 20.4669 281.219  15
   1  13   4-747.404 436.042   9
   1  13   4 183.792 169.480  10
   1 -13   4 80.2784 176.192   5
  -1 -13  -5 620.872 295.852  16
   1 -13   5 921.911 352.758  15
   1  13   5 601.015 183.242  10
   1 -13   5 1047.15 254.072   5
  -1 -13  -6 371.976 206.008  16
   1 -13   6 234.653 122.889   5
  -1  14   6 529.972 164.676  10
  -1 -14   6 552.928 140.223   5
  -1 -14   5 1755.49 300.592   5
  -1  14   5 1328.51 298.572  10
   1 -14  -4 12563.4 871.104   5
  -1 -14   4 10466.6 756.626   5
   1 -14  -3-50.9279 220.331   5
  -1 -14   3-76.3303 194.735   5
   1 -14  -2 2201.41 413.882   5
  -1 -14   2 1884.19 388.238   5
   1 -14  -1 6273.55 698.276   5
  -1 -14   1 6163.42 650.853   5
  -1 -14   0 1700.29 383.615   5
   1 -14   0 1626.03 392.799   5
  -1 -14  -1 487.860 242.369   5
   1 -14   1 492.907 262.819   5
  -1 -14  -2 2937.54 429.121   5
  -1 -14  -2 2038.72 433.741  16
  -1 -14  -3 4245.71 487.486   5
   1 -14   3 5580.50 596.544   5
  -1 -14  -3 4210.34 649.074  16
   1  14   4-7.81150 255.308   9
   1  14   4-80.2108 140.041  10
   1 -14   4 26.8759 158.341   5
  -1 -14  -4 326.481 253.705  16
  -1 -14  -5-73.3845 150.108  16
   1  14   5 60.9910 97.2695  10
   1 -14   5 40.3312 106.175   5
  -1  15   5 2402.02 326.708  10
  -1 -15   5 2954.70 309.861   5
   1 -15  -4 30292.8 1188.46   5
  -1 -15   4 23490.6 1009.64   5
   1 -15  -3 2218.54 377.003   5
  -1 -15   3 1200.84 279.643   5
   1 -15  -2 2995.23 448.932   5
  -1 -15   2 2112.17 371.653   5
   1 -15  -1 150.601 167.469   5
  -1 -15   1 14.9362 147.520   5
  -1 -15   0 2941.34 429.460   5
   1 -15   0 4323.45 550.227   5
  -1 -15  -1 67.5993 151.311   5
   1 -15   1 35.3103 173.975   5
  -1 -15  -2 11698.0 763.738   5
   1 -15   2 15474.9 950.191   5
  -1 -15  -3 5232.89 472.049   5
   1 -15   3 6121.94 566.734   5
   1  15   3 4011.91 817.835   9
  -1 -15  -3 4074.46 556.484  16
  -1 -15  -4 1356.69 324.296  16
   1  15   4 752.244 180.742  10
   1 -15   4 1170.23 242.799   5
   1  15   4 716.115 281.749   9
  -1  16   4 8118.70 577.174  10
   1 -16  -3 2253.78 319.321   5
  -1 -16   3 1492.66 235.676   5
   1 -16  -2 1994.86 326.913   5
  -1 -16   2 1577.19 264.296   5
   1 -16  -1 2541.07 402.586   5
  -1 -16   1 1800.66 303.244   5
  -1 -16   0 3182.33 385.362   5
   1 -16   0 4372.72 489.422   5
  -1 -16  -1 154.197 123.395   5
   1 -16   1-24.4993 150.209   5
  -1 -16  -2 8765.83 562.878   5
   1  16   2 7781.53 1041.72   9
   1 -16   3 16195.1 759.290   5
   1  16   3 8673.12 968.316   9
   1 -17  -2 985.009 200.790   5
   1 -17  -1-41.5816 131.433   5
   1 -17   0 1870.49 278.806   5
   1  17   0 816.778 328.412   9
   1  17   1 69.3924 208.603   9
   1 -17   1 425.992 150.705   5
   1  17   2 342.496 201.371   9
   2   0 -10 371.243 105.364   7
   2   0  -9 406.372 168.803   7
  -2   0   9 503.491 163.431  10
  -2   0   8 5654.81 563.285  10
   2   0  -7 154.336 240.222  16
  -2   0   7 164.287 171.357  10
  -2   0   6 20577.0 1596.99  12
   2   0  -6 18754.9 1680.84   1
  -2   0   6 15298.5 977.326  10
   2   0  -6 17052.9 1408.10  16
  -2   0   5 1541.86 433.899  12
   2   0  -5 814.488 349.434   1
   2   0  -5 839.495 324.581  16
  -2   0   4 34507.1 2527.80  12
   2   0  -4 126500. 3416.17   1
  -2   0   3 500.742 278.665  12
   2   0  -3 109.024 147.288   1
  -2   0   2 6059.10 594.218  12
   2   0  -2 7717.44 631.583   1
   2   0  -2 7662.60 947.264   2
   2   0  -1 288.670 324.504   2
   2   0  -1 162.619 96.6561   1
  -2   0   1 124.051 167.739  12
   2   0   0 16364.8 1348.92   2
  -2   0   0 14971.0 573.349  11
   2   0   1 92.3618 258.326   2
  -2   0  -1 330.906 140.728  11
   2   0   2 56703.8 2611.61   2
  -2   0  -2 63371.5 1661.20  11
   2   0   3 2616.38 647.847   2
  -2   0  -3 3665.46 453.954  11
   2   0   4 2061.51 354.631   6
   2   0   4 1520.46 529.921   4
  -2   0  -4 1805.87 353.297  11
   2   0   4 682.237 359.653   2
  -2   0  -5 325.584 156.793  14
  -2   0  -5 406.087 234.522  11
   2   0   5 178.380 186.878   6
  -2   0  -6 22306.5 1276.72  14
   2   0   6 22522.5 1222.73   6
  -2   0  -7-160.965 211.016  14
   2   0   7 132.658 204.582   6
   2   0   8 7224.73 563.972   6
   2   1 -10 528.968 120.821   7
   2  -1 -10 308.349 99.5649   7
   2   1  -9 2492.68 351.391   7
  -2  -1   9 2122.45 295.428  10
  -2   1   9 2072.42 294.403  10
   2  -1  -9 2098.10 321.946   7
   2   1  -8 1345.64 324.783   7
  -2  -1   8 1084.04 232.010  10
  -2   1   8 1122.38 260.932  10
   2  -1  -8 1412.25 398.505  16
   2  -1  -7 947.449 439.610  16
  -2  -1   7 710.323 204.369  10
  -2   1   7 616.731 230.661  10
   2   1  -6 18629.8 1491.80  16
  -2   1   6 16227.6 1390.15  12
   2   1  -6 19661.1 1717.76   1
  -2  -1   6 15514.5 971.771  10
  -2   1   6 15968.8 1006.03  10
   2  -1  -6 19889.2 1756.04   1
   2  -1  -6 18614.7 1501.00  16
   2  -1  -5 39133.8 2012.34  16
  -2   1   5 51002.5 2080.86  12
   2   1  -5 46050.6 2293.53   1
   2  -1  -5 43485.5 2323.93   1
   2   1  -5 38092.6 2043.19  16
  -2  -1   4 378.897 917.053  12
  -2   1   4 1525.71 710.382  12
   2  -1  -4 2278.64 403.563   3
   2   1  -4 1911.05 414.322   1
   2  -1  -4 2151.58 486.263   1
  -2  -1   3 6076.08 815.285  12
   2   1  -3 5964.94 648.407   1
  -2   1   3 3395.18 568.919  12
   2  -1  -3 5681.78 560.403   3
   2  -1  -3 5586.18 644.594   1
  -2   1   2 25076.4 1135.11  12
  -2  -1   2 26116.5 1228.66  12
   2   1  -2 26238.0 1127.32   1
   2  -1  -2 24732.7 1002.01   3
   2   1  -2 25940.8 1785.18   2
   2  -1  -2 27344.8 1730.08   2
   2  -1  -2 26375.1 1177.83   1
   2  -1  -1 26419.5 895.714   1
  -2  -1   1 27510.5 1269.93  12
   2   1  -1 28160.3 1819.28   2
   2  -1  -1 30351.6 1781.82   2
   2   1  -1 26590.5 859.501   1
  -2   1   1 26734.1 1183.28  12
  -2   1   0 8795.04 473.760  11
   2   1   0 9025.05 1047.53   2
   2  -1   0 9906.30 1015.68   2
  -2  -1   0 9074.53 440.496  11
   2   1   1 22481.3 1639.58   2
   2  -1   1 24931.1 1624.43   2
  -2   1  -1 22625.8 892.378  11
  -2  -1  -1 23831.5 875.622  11
  -2   1  -2 2925.27 375.103  11
  -2  -1  -2 3045.53 367.600  11
   2   1   2 1775.46 505.030   2
   2  -1   2 2590.19 576.060   2
   2   1   3 90896.1 3593.89   2
   2  -1   3 93678.4 3414.89   2
  -2  -1  -3 119325. 2633.01  11
  -2   1  -3 114236. 2590.97  11
  -2   1  -4 457.142 199.513  11
  -2  -1  -4 565.895 215.559  11
   2  -1   4 574.918 204.836   6
   2   1   4 630.202 220.850   6
   2   1   4 317.196 353.616   2
   2  -1   4 538.006 327.144   2
   2   1   4-169.949 416.111   4
  -2   1  -5 868.219 268.481  14
  -2   1  -5 1462.22 371.848  11
  -2  -1  -5 839.590 300.792  11
   2  -1   5 1164.44 309.156   6
   2   1   5 853.405 245.776   6
   2   1   5 400.097 324.899   2
  -2   1  -6 3710.90 539.661  14
  -2  -1  -6 3126.98 509.609  14
   2  -1   6 3390.65 510.135   6
   2   1   6 3114.32 475.107   6
   2   1   7 151.796 166.100   6
   2  -1   7 303.268 218.232   6
  -2  -1  -7 0.70723 133.767  14
   2  -1   8 627.072 195.765   6
   2   1   8 290.535 134.262   6
   2  -2 -10 2194.73 231.226   7
   2   2  -9 9998.52 659.786   7
  -2  -2   9 10274.3 622.664  10
  -2   2   9 9388.79 611.985  10
   2   2  -8 473.230 193.394   7
  -2  -2   8 80.8409 135.534  10
  -2   2   8 49.3970 148.109  10
   2  -2  -7 38616.9 2190.37  16
   2   2  -7 34856.9 1511.13   7
  -2  -2   7 36405.8 1475.14  10
  -2   2   7 36806.7 1556.98  10
   2  -2  -6 3689.72 664.339  16
  -2  -2   6 4407.82 770.842  12
   2   2  -6 3750.45 732.203   1
   2  -2  -6 3711.13 773.589   1
  -2  -2   6 3075.92 435.855  10
  -2   2   6 2887.21 438.725  10
   2  -2  -5 15705.6 1284.21  16
  -2   2   5 19637.1 1284.03  12
   2   2  -5 19156.3 1486.40   1
   2  -2  -5 18794.5 1276.41   3
   2  -2  -5 18665.0 1547.97   1
   2   2  -4 88697.4 2876.91   1
   2  -2  -4 86493.4 2477.53   3
   2  -2  -4 81226.3 2940.71   1
   2   2  -3 62732.7 2086.71   1
  -2  -2   3 55191.5 2443.30  12
   2  -2  -3 57872.9 1763.28   3
   2   2  -3 64801.6 2970.92   2
   2  -2  -3 58614.7 2138.92   1
   2  -2  -2 5436.37 557.806   1
  -2   2   2 5101.70 518.776  12
  -2  -2   2 5846.22 619.006  12
   2  -2  -2 4880.82 451.079   3
   2   2  -2 5643.26 906.973   2
   2   2  -1 98998.9 1845.27   1
   2  -2  -1 104941. 2017.29   1
   2   2  -1 98459.2 3528.37   2
   2  -2  -1 107003. 3176.77   2
  -2  -2   1 100553. 2572.67  12
  -2   2   1 95837.9 2276.86  12
   2  -2  -1 99978.8 1805.07   3
  -2  -2   0 27292.8 785.298  11
  -2   2   0 26378.5 796.642  13
   2   2   0 29130.3 1911.90   2
   2  -2   0 29547.5 1649.44   2
  -2   2  -1 9907.94 477.399  13
   2   2   1 8543.49 1043.20   2
   2  -2   1 10076.9 1002.11   2
  -2   2  -1 9192.65 588.515  11
  -2  -2  -1 9006.47 540.766  11
   2  -2   2 65813.3 2697.54   2
  -2   2  -2 62724.1 1763.44  11
  -2  -2  -2 67053.9 1731.27  11
  -2   2  -3 20011.3 1094.79  11
  -2  -2  -3 21863.4 1099.33  11
   2   2   4 5218.82 510.748   8
   2  -2   4 6790.73 628.906   6
  -2   2  -4 5745.64 633.845  11
  -2  -2  -4 6684.75 675.809  11
   2   2   4 5272.71 557.015   6
   2   2   4 3784.18 876.500   2
   2   2   4 4271.62 708.039   4
   2  -2   5 305.540 229.781   6
  -2   2  -5 441.247 237.156  11
  -2  -2  -5 200.770 190.464  11
   2   2   5 549.610 248.070   6
   2   2   5 904.430 515.649   2
  -2   2  -6 10050.1 821.825  14
  -2  -2  -6 9005.34 834.255  14
   2  -2   6 10644.8 845.329   6
   2   2   6 9819.44 805.068   6
  -2  -2  -7 4435.22 553.765  14
   2  -2   7 5342.79 577.684   6
   2   2   7 4264.74 517.681   6
  -2  -2  -8 259.081 162.869  14
   2  -2   8 113.794 108.705   6
   2   2   8 45.1422 112.084   6
   2   3  -9 1522.39 259.926   7
  -2  -3   9 1511.54 233.195  10
  -2   3   9 1552.43 251.955  10
   2   3  -8 14209.2 907.134   7
  -2  -3   8 14447.6 859.488  10
  -2   3   8 14589.0 902.764  10
   2  -3  -8 15679.4 1287.27  16
   2   3  -7 2332.20 406.478   7
  -2  -3   7 2315.70 388.197  10
  -2   3   7 2209.68 405.429  10
   2  -3  -7 2615.69 611.004  16
   2  -3  -6 10097.0 1098.57  16
   2   3  -6 10188.0 798.815   7
   2   3  -6 10726.1 1227.12   1
  -2  -3   6 8409.26 702.387  10
  -2   3   6 9221.76 801.078  10
   2  -3  -6 9998.65 1288.76   1
   2   3  -5 1002.01 370.670   1
   2  -3  -5 907.207 374.707   1
  -2  -3   5 1469.77 596.381  12
   2   3  -5 1046.07 258.098   7
   2  -3  -5 745.842 268.748   3
   2  -3  -5 849.517 360.818  16
   2  -3  -4 20304.1 1199.93   3
   2  -3  -4 22092.0 1559.92   1
   2  -3  -3 34802.6 1717.46   1
   2  -3  -3 34796.9 1404.93   3
   2   3  -3 38104.6 2340.54   2
   2   3  -2 3435.54 737.379   2
   2  -3  -2 2967.08 448.551   1
  -2  -3   2 3521.31 508.358  12
  -2   3   2 3160.54 414.302  12
   2  -3  -2 2949.28 364.956   3
  -2  -3   1 22978.9 1212.26  12
  -2   3   1 21425.3 1035.69  12
   2   3  -1 24579.0 1805.31   2
   2  -3  -1 22672.2 869.583   3
   2  -3  -1 23994.6 1017.04   1
  -2   3   0 156016. 2281.90  13
   2   3   0 151283. 4584.57   2
  -2  -3   0 159301. 2255.14  11
   2  -3   0 157617. 3481.61   2
   2   3   1 3577.63 755.937   2
  -2   3  -1 3648.15 324.934  13
  -2  -3  -1 3500.30 358.947  11
   2   3   2 13432.0 1389.21   2
  -2   3  -2 14398.0 856.755  11
  -2  -3  -2 15915.3 853.626  11
   2   3   3 9687.74 1250.24   2
  -2   3  -3 10663.4 817.140  11
  -2  -3  -3 11394.5 822.185  11
   2  -3   4 599.584 383.893  15
   2   3   4 116.965 148.321   8
  -2   3  -4 416.796 192.502  11
   2  -3   4 514.489 190.219   6
  -2  -3  -4 393.940 177.593  11
   2   3   4 388.972 181.049   6
   2   3   4 325.169 262.433   2
   2  -3   5 37.3675 445.559  15
   2  -3   5 869.380 269.841   6
  -2   3  -5 703.309 265.651  11
  -2  -3  -5 888.071 302.623  11
   2   3   5 549.983 201.970   6
   2   3   5 1355.23 602.278   2
   2   3   6 13358.2 927.312   6
   2  -3   6 15639.0 1036.04   6
   2  -3   7 318.609 278.978  15
  -2  -3  -7 810.979 258.747  14
   2  -3   7 1390.58 346.417   6
   2   3   7 1018.03 300.146   6
   2   3   8 361.865 135.313   6
  -2  -3  -8 277.500 146.032  14
   2   4  -9 71.4792 105.271   7
  -2  -4   9 132.610 72.3540  10
  -2   4   9 246.214 124.081  10
   2   4  -8 13982.6 873.887   7
  -2  -4   8 13379.5 814.090  10
  -2   4   8 12953.7 852.486  10
   2  -4  -8 14715.8 1245.72  16
   2   4  -7 47917.2 1781.35   7
   2  -4  -7 53387.4 2548.19  16
  -2  -4   7 48956.1 1705.77  10
  -2   4   7 48189.8 1813.52  10
   2  -4  -6 6284.70 1033.80   1
   2  -4  -6 7092.50 933.633  16
   2   4  -6 7339.13 687.852   7
   2   4  -6 8459.01 1130.78   1
   2  -4  -6 7701.70 926.331   3
  -2  -4   6 6143.97 613.138  10
  -2   4   6 7180.45 710.749  10
   2  -4  -5 7270.71 1023.90   1
   2   4  -5 5882.77 850.321   1
   2  -4  -5 6253.64 750.136   3
  -2   4   5 5006.05 596.937  10
   2  -4  -5 5745.32 817.552  16
   2   4  -5 5586.01 572.977   7
  -2  -4   4 344.915 1914.36  12
   2  -4  -4 331.234 270.489   1
   2  -4  -4 253.214 194.526   3
   2  -4  -3 22733.2 1438.87   1
   2   4  -3 19928.4 1305.89  13
   2  -4  -3 20425.0 1115.62   3
   2   4  -3 22489.0 1868.31   2
  -2  -4   2 1918.57 452.958  12
   2  -4  -2 482.349 206.169   1
   2   4  -2 1505.47 561.278   2
   2   4  -2 636.246 265.666  13
   2  -4  -2 1189.28 253.607   3
  -2   4   1 226065. 3519.80  12
   2   4  -1 223836. 5799.85   2
   2  -4  -1 231073. 3265.08   3
   2  -4  -1 237017. 3808.41   1
   2   4   0 539.066 458.061   2
  -2   4   0 419.270 164.973  13
  -2  -4   0 413.074 239.359  12
  -2  -4   0 263.076 128.039  11
   2  -4   0 339.505 139.590   3
  -2  -4  -1 4194.43 417.902  11
  -2   4  -1 4727.13 418.285  13
  -2   4  -2 62.1433 121.504  13
  -2  -4  -2 348.927 150.331  11
   2   4   2 49.9167 289.771   2
  -2   4  -3 11468.0 883.785  11
  -2  -4  -3 12933.4 896.310  11
   2  -4   4 72.1514 255.284  15
  -2  -4  -4 105.902 199.508  16
   2   4   4 339.570 172.100   8
   2  -4   4 2.72206 176.953   6
  -2   4  -4 231.780 135.169  11
  -2  -4  -4-68.2357 181.421  11
   2   4   4 102.763 154.433   6
   2   4   4 78.6403 334.629   2
   2  -4   5 8691.53 764.286   6
  -2   4  -5 7055.05 789.062  11
   2   4   5 6682.15 657.062   6
  -2  -4  -5 7664.78 844.548  11
   2   4   5 5155.90 1119.67   2
   2  -4   5 6476.02 1030.15  15
   2  -4   6 11611.6 895.863   6
   2   4   6 10457.0 818.760   6
  -2  -4  -7 10371.2 811.391  14
   2  -4   7 11717.0 819.565   6
   2   4   7 10953.1 762.458   6
   2  -4   8 1636.43 416.850  15
  -2  -4  -8 2779.96 345.447  14
   2   4   8 2454.69 303.969   6
   2   5  -9 460.759 140.777   7
  -2  -5   9 331.801 126.150  10
  -2   5   9 249.833 99.1574  10
   2  -5  -9 470.059 199.605  16
   2  -5  -8 30278.4 1761.50  16
   2   5  -8 28611.5 1247.92   7
  -2  -5   8 26806.1 1138.09  10
  -2   5   8 27434.4 1222.66  10
   2  -5  -7 7491.97 987.895  16
   2   5  -7 7625.54 705.666   7
  -2  -5   7 7183.78 653.872  10
  -2   5   7 6216.38 662.620  10
   2  -5  -6 7704.88 1176.46   1
   2   5  -6 7653.82 714.267   7
   2   5  -6 7228.23 1067.48   1
  -2  -5   6 8882.79 1143.45  12
   2  -5  -6 6732.70 925.760  16
  -2  -5   6 7233.20 674.069  10
  -2   5   6 6932.64 717.312  10
   2   5  -5 698.022 244.135   7
   2  -5  -5 516.277 205.847   1
  -2   5   5 498.654 189.066  10
   2  -5  -5 672.881 271.599   3
   2  -5  -5 425.294 314.118  16
   2  -5  -4 1055.42 377.651  15
   2  -5  -4 1037.64 418.610  16
  -2  -5   4 417.194 2331.27  12
   2   5  -4 1341.14 466.619  13
   2  -5  -4 973.690 366.304   1
   2  -5  -4 797.280 277.022   3
   2   5  -4 917.622 230.111   7
   2   5  -3 3306.17 778.287   2
   2   5  -3 2812.15 503.512  13
   2  -5  -3 2854.45 559.816   1
  -2  -5   3 2156.71 919.527  12
   2  -5  -3 3115.43 475.819   3
   2   5  -2 7576.14 754.281  13
   2   5  -2 8205.29 1188.34   2
   2  -5  -2 8226.79 677.192   3
   2  -5  -2 8150.56 820.300   1
   2   5  -1 176213. 5412.12   2
   2  -5  -1 185864. 3061.46   3
  -2   5   0 320819. 4031.94  13
  -2  -5   0 309591. 5195.90  12
   2   5   0 284829. 7008.02   2
  -2  -5   0 293399. 4053.38  11
  -2   5  -1 30366.5 1147.02  13
   2   5   1 27054.0 2110.71   2
  -2  -5  -1 29127.4 1211.91  11
  -2  -5  -1 25471.9 976.187   3
  -2   5  -2 2710.00 396.897  13
  -2  -5  -2 2216.40 378.222  11
   2   5   2 1690.11 528.849   2
  -2  -5  -3 21612.9 1275.05  16
   2   5   3 18313.6 1794.60   2
  -2   5  -3 21744.6 1229.22  11
  -2  -5  -3 24267.7 1308.59  11
   2  -5   3 21396.1 1674.48  15
   2   5   3 18632.2 1902.25   9
   2   5   3 19836.0 998.353   8
  -2  -5  -4 1849.60 426.082  16
   2  -5   4 2687.47 689.861  15
   2  -5   4 2651.08 444.473   6
  -2   5  -4 2656.85 478.049  11
  -2  -5  -4 2738.02 503.089  11
   2   5   4 2457.60 417.408   6
   2   5   4 1315.57 569.162   9
   2   5   4 2065.85 346.745   8
   2   5   4 3101.30 891.178   2
   2   5   5 2745.69 427.949   8
   2  -5   5 2443.79 747.390  15
  -2  -5  -5 2473.58 506.303  16
   2  -5   5 3198.22 501.529   6
   2   5   5 3272.96 474.172   6
   2  -5   6 78395.9 2295.77   6
   2   5   6 75157.6 2156.31   6
  -2  -5  -7 658.992 253.354  14
   2   5   7 390.120 178.548   6
   2   5   8 263.727 128.297   6
  -2  -5  -8 236.639 120.805  14
   2   6  -9 1213.62 188.271   7
  -2   6   9 792.507 155.231  10
   2  -6  -9 1107.30 291.487  16
   2   6  -8 6099.16 555.604   7
  -2  -6   8 5248.69 488.338  10
  -2   6   8 5357.38 533.976  10
   2  -6  -8 6357.46 798.837  16
   2   6  -7 18386.6 1079.73   7
  -2  -6   7 17695.3 1013.97  10
  -2   6   7 17849.4 1110.48  10
   2  -6  -7 18449.5 1493.14  16
   2   6  -6 650.083 236.791   7
  -2  -6   6 771.601 232.572  10
  -2   6   6 446.399 217.441  10
   2  -6  -6 842.137 426.217  16
   2  -6  -5 4218.60 726.182  16
   2   6  -5 3928.00 509.922   7
   2  -6  -5 4246.34 849.415   1
  -2  -6   5 4519.67 725.994  12
   2  -6  -5 4016.22 634.591   3
  -2   6   5 3287.75 529.832  10
   2   6  -4 57449.5 1847.46   7
   2   6  -4 55367.4 2612.22  13
   2  -6  -4 64864.4 2922.56   1
   2  -6  -4 61127.7 2336.75   3
   2  -6  -4 51184.8 1734.04   5
   2  -6  -4 53356.0 2412.78  16
   2  -6  -4 60984.2 2478.69  15
   2  -6  -3 1165.82 409.863   1
   2   6  -3 1068.91 531.065   2
   2   6  -3 1056.72 329.139  13
  -2  -6   3 143.085 1652.27  12
   2  -6  -3 1644.73 376.865   3
   2   6  -2 288.012 381.311   2
   2  -6  -2 126.341 139.068   3
   2   6  -2-189.238 222.491  13
  -2  -6   2 510.277 413.050  12
   2  -6  -2 48.2839 137.235   1
  -2   6   1 120355. 2557.79  13
   2   6  -1 113811. 4532.29   2
   2  -6  -1 114748. 2523.86   3
  -2  -6   0 61949.5 2260.47  12
   2   6   0 58024.1 3227.04   2
  -2  -6   0 57302.3 1800.58  11
  -2   6   0 61726.5 1778.67  13
  -2  -6  -1 3270.17 571.048  12
  -2   6  -1 3895.88 459.342  13
  -2  -6  -1 3716.00 492.082  11
  -2  -6  -1 2839.33 377.166   3
   2   6   1 3158.77 776.576   2
  -2   6  -2 51540.6 1846.77  13
   2   6   2 46079.3 3021.11   2
  -2  -6  -2 49049.3 1857.00  11
   2   6   3 6450.10 575.714   8
   2  -6   3 5819.50 944.538  15
   2   6   3 5848.79 1123.36   2
   2  -6   3 5392.78 558.685   6
  -2  -6  -3 5682.03 707.503  16
  -2  -6  -3 5749.24 684.573  11
   2   6   3 6198.00 1151.87   9
  -2  -6  -4 7347.01 828.291  16
   2   6   4 6296.42 1197.93   2
   2  -6   4 7777.54 1151.42  15
   2  -6   4 9548.79 792.040   6
  -2   6  -4 8708.98 878.937  11
  -2  -6  -4 9581.29 971.950  11
   2   6   4 8800.53 716.150   8
   2   6   4 8552.38 1279.85   9
  -2  -6  -5 11631.4 1069.02  16
   2  -6   5 13308.3 948.529   6
   2   6   5 12876.5 903.501   6
   2  -6   5 12187.2 1480.83  15
   2   6   5 12742.2 870.861   8
   2  -6   6 42474.3 2552.93  15
   2   6   6 47561.4 1668.35   6
  -2  -6  -6 46211.4 2062.19  16
   2  -6   7 1352.44 501.168  15
  -2  -6  -7 1239.81 293.647  14
   2   6   7 994.917 225.646   6
  -2  -6  -8-69.4042 100.053  14
   2   6   8 207.237 90.7532   6
   2  -7  -9 1764.24 319.572  16
   2   7  -9 1002.68 261.582   4
   2   7  -8 3074.42 379.455   7
  -2  -7   8 2781.37 345.319  10
  -2   7   8 2739.62 369.158  10
   2  -7  -8 3485.20 597.007  16
   2  -7  -7 9926.38 1090.99  16
   2   7  -7 8353.15 702.142   7
  -2  -7   7 8484.79 683.429  10
  -2   7   7 8873.97 765.422  10
   2   7  -6 272.467 192.345   7
  -2  -7   6 287.523 182.307  10
  -2   7   6 148.406 128.821  10
   2  -7  -6 65.1669 330.528  16
   2   7  -5 568.227 361.080  13
   2   7  -5 413.950 226.512   7
  -2  -7   5 617.972 326.446  12
  -2   7   5-69.1093 200.377  10
   2  -7  -5 246.151 226.883   1
   2  -7  -5 172.666 222.202   3
   2  -7  -5 79.7757 298.909  16
   2  -7  -4 42793.3 2193.85  16
   2   7  -4 46404.6 1703.14   7
   2   7  -4 41705.0 2325.11  13
   2  -7  -4 47545.9 2151.66   3
   2  -7  -4 56254.4 2816.70   1
   2  -7  -4 45592.2 1683.26   5
   2  -7  -4 52949.2 2324.24  15
   2  -7  -3 7931.32 919.107  15
   2   7  -3 8883.90 707.418   7
   2   7  -3 8356.99 952.888  13
   2  -7  -3 9485.92 907.227   3
   2   7  -3 8067.85 1273.04   2
   2  -7  -3 9561.63 1058.07   1
   2   7  -2 1869.09 669.400   2
   2  -7  -2 1585.92 432.745   1
  -2  -7   2 1408.52 812.684  12
   2  -7  -2 1775.64 356.848   3
   2   7  -1 114859. 4745.86   2
   2  -7  -1 118520. 2791.26   3
   2   7   0 693.598 456.508   2
  -2   7   0 397.597 209.710  13
  -2  -7   0 328.493 233.200  12
   2  -7   1 20729.4 1631.66  15
  -2   7  -1 28874.0 1319.11  13
   2   7   1 25305.6 2298.06   2
  -2  -7  -1 24398.0 1501.80  12
  -2  -7  -1 26359.4 1430.27  11
  -2  -7  -1 25526.1 1175.14   3
   2   7   1 21034.4 1009.57   8
  -2   7  -2 5369.59 654.185  13
  -2  -7  -2 3488.40 617.946  12
  -2  -7  -2 4697.29 629.976  11
   2   7   2 5428.74 1100.27   9
   2  -7   2 4876.70 852.625  15
   2   7   2 4807.72 1053.99   2
   2   7   2 4453.87 472.195   8
  -2  -7  -3 51725.9 2093.66  16
  -2   7  -3 41786.5 1956.97  13
   2   7   3 43722.9 3239.49   2
  -2  -7  -3 52287.8 2212.44  11
   2  -7   3 48455.1 2716.60  15
   2   7   3 47665.9 3159.21   9
   2   7   3 47805.1 1603.87   8
   2  -7   4 13734.9 1550.19  15
  -2   7  -4 13148.1 1117.32  11
   2   7   4 11320.0 1740.28   2
  -2  -7  -4 13998.3 1238.64  11
  -2  -7  -4 12494.3 1085.80  16
   2   7   4 11524.0 1520.11   9
   2   7   4 14006.6 894.391   8
   2   7   5 7078.75 667.505   8
   2  -7   5 6295.10 1106.99  15
   2   7   5 8399.12 731.584   6
  -2  -7  -5 6901.84 824.938  16
   2  -7   6 3888.36 834.889  15
  -2  -7  -6 4857.08 701.535  16
   2   7   6 5297.24 551.794   6
   2  -7   7 279.678 354.044  15
   2   7   7-15.8160 106.051   6
   2  -7   8-255.615 251.901  15
  -2  -7  -8-138.820 97.0717  14
   2   8  -8 539.367 149.159   7
   2   8  -8 147.205 186.929   4
  -2   8   8 535.019 168.547  10
   2  -8  -8 595.223 283.512  16
   2  -8  -7 66.8468 228.040  16
   2   8  -7 207.130 147.516   7
  -2  -8   7 44.8660 115.088  10
  -2   8   7-22.4634 131.931  10
   2   8  -6 139.560 135.040   7
  -2  -8   6 268.191 173.182  10
  -2   8   6 81.7850 184.176  10
   2  -8  -6-114.490 321.933  16
   2   8  -5 12854.1 925.472   7
  -2  -8   5 9349.71 792.936  10
  -2   8   5 10352.7 926.624  10
   2  -8  -5 11332.7 1248.59  16
   2   8  -4 20880.6 1150.20   7
   2  -8  -4 17291.1 1437.24  16
   2   8  -4 13903.5 1389.38  13
  -2  -8   4 24447.4 1880.19  12
   2  -8  -4 19034.6 1439.84   3
   2  -8  -4 20643.0 1164.00   5
   2  -8  -4 21192.0 1758.69   1
   2  -8  -4 19467.2 1444.55  15
   2   8  -3 64501.4 1998.55   7
  -2  -8   3 59745.7 4614.80  12
   2  -8  -3 67083.5 2542.58   3
   2   8  -3 60775.9 3564.45   2
   2  -8  -3 57197.3 1882.51   5
   2  -8  -3 68924.3 2770.34  15
   2  -8  -3 69626.8 3024.77   1
   2   8  -2 1170.73 550.533   2
  -2   8   2 321.785 184.670  13
   2   8  -2 657.894 231.832   7
  -2  -8   2 1789.36 2343.50  12
   2  -8  -2 938.169 462.052  15
   2  -8  -2 516.123 228.686   3
   2   8  -1 8553.25 671.515   7
  -2   8   1 8657.14 771.459  13
  -2  -8   1 10836.9 1358.17  12
   2   8  -1 7337.77 1275.87   2
   2  -8  -1 7271.24 733.242   3
   2  -8  -1 7801.05 958.343  15
   2  -8   0 1376.38 520.356  15
   2   8   0 1463.57 311.633   8
  -2   8   0 1352.74 323.444  13
   2   8   0 2395.15 778.806   2
  -2  -8   0 1143.04 364.751  12
  -2  -8   0 1037.87 284.564   3
  -2  -8  -1-30.2055 175.870   3
   2  -8   1 635.541 325.902  15
   2   8   1 141.684 140.392   8
  -2   8  -1-17.4148 158.984  13
  -2  -8  -1 257.206 199.064  11
   2   8   1-20.9062 308.422   2
   2  -8   2 6648.22 1047.86  15
  -2  -8  -2 7047.49 778.609  16
  -2   8  -2 6336.81 755.176  13
  -2  -8  -2 6101.56 794.503  11
   2   8   2 6063.58 1145.11   9
   2   8   2 5359.47 1142.49   2
   2   8   2 6050.08 573.716   8
   2   8   3 126663. 2794.67   8
   2  -8   3 132129. 4588.65  15
   2   8   3 124523. 5854.34   2
  -2  -8  -3 137214. 3986.41  11
   2   8   3 124537. 5205.73   9
  -2  -8  -3 137674. 3556.49  16
  -2  -8  -4 254.192 219.427  16
   2   8   4 394.915 220.133   8
   2   8   4-40.9287 450.186   9
   2  -8   4 192.679 378.208  15
   2   8   5 3286.76 462.671   8
  -2  -8  -5 2784.24 560.897  16
   2  -8   5 2371.23 731.814  15
   2   8   5 2965.10 439.036   6
  -2  -8  -6 10330.0 956.283  16
   2  -8   6 12019.1 1297.81  15
   2   8   6 10524.5 727.116   6
  -2  -8  -7 350.179 129.903  16
   2   8   7 591.597 160.080   6
   2   9  -8 235.352 89.2302   7
  -2   9   8 66.8580 78.2991  10
   2  -9  -8 34.4826 183.820  16
   2   9  -7 248.478 130.194   7
   2   9  -7 365.274 216.061   4
  -2   9   7 202.182 133.665  10
   2  -9  -7 49.8565 229.660  16
   2   9  -6 119.751 159.793   7
   2   9  -6-276.368 239.538   4
  -2   9   6-81.3587 190.225  10
   2  -9  -6 166.492 243.979  16
   2   9  -5 578.131 235.391   7
   2  -9  -5 381.277 333.233  16
  -2   9   5 58.2503 195.262  10
   2   9  -4 66908.1 2159.63   7
   2  -9  -4 71713.5 2867.22  15
   2  -9  -4 68156.8 2164.10   5
   2  -9  -4 65062.3 2784.83  16
   2  -9  -3 201.291 188.563   3
  -2   9   3 238.135 188.865  13
   2   9  -3 301.237 181.947   7
   2  -9  -3 131.236 182.973   5
   2  -9  -3 22.1951 286.174  15
   2  -9  -2 11318.5 1188.04  15
   2   9  -2 10827.2 818.201   7
  -2   9   2 11986.7 1006.38  13
   2   9  -2 9454.38 1456.69   2
   2  -9  -2 10275.4 988.254   3
   2  -9  -2 9707.30 778.323   5
   2   9  -2 7804.89 1218.76   9
   2  -9  -1 2378.80 618.705  15
   2   9  -1 2952.96 427.392   7
  -2   9   1 3527.47 556.445  13
   2  -9  -1 2106.83 360.685   5
   2  -9  -1 2204.66 442.673   3
   2   9   0 10360.3 763.865   8
  -2   9   0 11318.4 946.223  13
   2   9   0 9164.25 1526.53   2
  -2  -9   0 10172.7 890.264   3
   2  -9   0 10403.6 1248.10  15
   2   9   1 288.640 402.707   2
   2  -9   1 155.573 299.361  15
   2   9   1 572.858 235.896   8
  -2   9  -1 632.606 296.627  13
  -2  -9  -1 474.779 257.360   3
   2  -9   2 21722.0 1903.65  15
  -2   9  -2 20677.7 1433.86  13
   2   9   2 22259.5 1132.16   8
   2   9   2 20045.9 2371.01   2
  -2  -9  -2 19341.9 1523.76  11
  -2  -9  -2 25334.6 1522.30  16
   2   9   2 19344.2 2069.46   9
   2   9   3 6867.74 652.264   8
   2  -9   3 5818.08 1077.43  15
   2   9   3 5430.34 1181.58   9
  -2  -9  -3 6410.24 777.704  16
  -2  -9  -4 2287.19 498.053  16
   2  -9   4 3025.88 693.619  15
   2   9   4 2290.79 405.293   8
   2   9   4 2308.46 733.661   9
  -2  -9  -5 487.164 289.210  16
   2  -9   5 338.817 380.394  15
   2   9   5 393.810 179.534   6
  -2  -9  -6-261.179 215.277  16
   2  -9   6-57.1711 351.181  15
   2   9   6 119.247 150.754   6
  -2  -9  -7 124.242 93.3643  16
  -2  -9  -7 254.769 134.603  14
   2  -9   7-125.876 297.221  15
   2 -10  -8 774.210 226.084  16
   2 -10  -7 2086.21 462.123  16
   2  10  -7 1429.64 241.272   7
  -2  10   7 1572.11 295.714  10
   2 -10  -6 1456.78 401.742  16
   2  10  -6 2003.57 350.502   7
  -2  10   6 1817.91 370.472  10
   2  10  -5 710.386 245.712   7
  -2  10   5 629.513 276.058  10
   2 -10  -5 897.486 432.829  16
   2  10  -4 2323.11 429.674   7
   2 -10  -4 2446.48 433.279   5
   2 -10  -4 2566.65 627.379  16
   2  10  -3 1150.41 323.351   7
   2 -10  -3 1881.67 496.320  15
   2 -10  -3 1494.93 374.543   5
   2  10  -2 213.771 299.501   9
  -2  10   2 405.157 229.327  13
   2  10  -2 314.589 198.663   7
   2 -10  -2 774.416 456.123  15
   2 -10  -2 367.019 225.376   5
   2 -10  -2 558.091 259.733   3
  -2 -10   1 998.625 338.341   3
   2 -10  -1 755.391 366.716  15
   2  10  -1 1450.62 323.007   8
  -2  10   1 1084.63 323.177  13
   2 -10  -1 1163.91 331.631   5
  -2 -10   0 750.208 284.133   3
   2 -10   0 2055.61 664.913  15
   2  10   0 1921.20 363.565   8
  -2  10   0 2404.78 481.900  13
   2 -10   0 1045.51 278.494   5
   2  10   0 1200.87 574.447   2
  -2 -10  -1 2243.85 522.361  16
   2 -10   1 1912.86 597.165  15
  -2  10  -1 2474.24 513.671  13
   2  10   1 2472.73 396.163   8
   2  10   1 2846.61 889.544   2
   2  10   2 7325.88 670.383   8
   2 -10   2 7630.76 1163.75  15
   2  10   2 7312.31 1329.83   9
  -2 -10  -2 6477.53 807.439  16
   2  10   3 21288.1 1128.31   8
   2 -10   3 22898.3 2015.10  15
  -2 -10  -3 21319.5 1445.72  16
   2  10   3 18848.4 2024.64   9
  -2 -10  -4 907.503 344.536  16
   2  10   4 739.395 247.353   8
   2 -10   4 792.343 499.913  15
   2  10   4 396.911 354.118   9
  -2 -10  -5 570.480 276.961  16
   2 -10   5 766.761 432.520  15
   2  10   5 667.257 210.725   6
  -2 -10  -6 1070.67 280.886  16
   2 -10   6 908.751 415.580  15
   2  10   6 966.572 191.032   6
   2 -10   7 1128.98 302.892  15
  -2 -10  -7 1169.45 197.138  14
  -2  11   7 1395.21 249.652  10
   2 -11  -7 2286.51 415.769  16
   2  11  -6 9939.37 680.011   7
  -2  11   6 8314.45 723.395  10
   2 -11  -6 10383.2 989.608  16
   2  11  -5 933.075 252.675   7
  -2  11   5 968.300 289.587  10
   2 -11  -5 1232.07 411.800  16
   2  11  -4 24173.7 1272.26   7
   2 -11  -4 26649.5 1346.48   5
   2 -11  -3 2377.65 580.067  15
   2  11  -3 1740.13 370.802   7
   2 -11  -3 1760.89 392.661   5
   2  11  -2 4216.79 938.767   9
   2 -11  -2 4406.91 757.958  15
   2 -11  -2 4464.95 571.307   5
   2 -11  -1 14270.8 1404.08  15
   2  11  -1 13439.7 931.725   8
   2 -11  -1 14242.3 990.042   5
   2 -11   0 8422.27 1139.62  15
  -2 -11   0 8592.09 962.134  16
   2  11   0 9525.02 776.142   8
   2 -11   0 8566.67 769.722   5
   2 -11   1 242.546 448.243  15
  -2 -11  -1 451.113 288.039  16
   2  11   1 517.105 228.438   8
   2 -11   1 175.703 208.944   5
   2  11   2 8080.81 709.810   8
   2 -11   2 7734.66 1164.40  15
   2 -11   2 5581.70 619.727   5
  -2 -11  -2 7047.32 872.921  16
   2  11   2 5913.51 1196.68   9
   2  11   3 2869.23 864.469   9
  -2 -11  -3 3007.75 583.457  16
   2  11   3 3815.17 501.266   8
   2 -11   3 3870.44 908.183  15
   2  11   4-39.9094 130.425   8
  -2 -11  -4 15.6801 217.449  16
   2 -11   4 139.793 364.935  15
   2  11   4 139.790 154.197   6
   2  11   4 376.426 436.923   9
  -2 -11  -5 424.640 279.269  16
   2 -11   5 457.238 381.838  15
   2  11   5-195.387 159.762   6
   2 -11   6 4110.78 602.176  15
  -2 -11  -6 4375.54 532.425  16
  -2  12   6 612.012 207.957  10
   2 -12  -6 772.504 270.138  16
  -2  12   5-22.5300 140.376  10
   2  12  -4 334.684 181.078   7
   2 -12  -4 1170.25 314.210   5
   2 -12  -3 1412.76 338.841   5
   2  12  -2 256.619 263.836   9
   2 -12  -2 540.155 339.278  15
   2  12  -2 147.716 173.537   8
   2 -12  -2 110.979 196.785   5
   2  12  -1 1163.50 549.070   9
  -2 -12   1 1213.40 401.273  16
   2 -12  -1 958.893 464.331  15
   2  12  -1 1402.32 334.179   8
   2 -12  -1 1803.10 403.983   5
   2  12   0 932.240 562.704   9
   2 -12   0 710.418 391.505  15
   2  12   0 1598.51 344.955   8
  -2 -12   0 970.411 405.001  16
   2 -12   0 1422.19 355.583   5
   2  12   1 1318.06 647.439   9
   2 -12   1 1987.28 621.151  15
  -2 -12  -1 1834.39 478.718  16
   2  12   1 1756.10 357.585   8
   2 -12   1 1563.13 362.782   5
   2  12   2 741.419 506.506   9
  -2 -12  -2 358.068 286.570  16
   2 -12   2 848.714 557.105  15
   2 -12   2 435.975 206.626   5
   2  12   2 636.256 257.254   8
   2  12   3 627.960 472.176   9
  -2 -12  -3 390.833 282.760  16
   2  12   3 519.800 208.396   8
   2 -12   3 135.314 290.414  15
  -2 -12  -4 141.929 229.906  16
   2 -12   4 364.926 381.284  15
   2  12   4 211.479 151.699   8
   2  12   4 220.213 117.573   6
   2  12   4 244.170 302.449   9
  -2 -12  -5 256.316 159.301  16
   2 -12   5 574.690 338.860  15
   2  12   5 130.123 106.785   6
   2 -12   6 5777.42 600.317  15
  -2 -12  -6 5244.21 513.112  16
   2  13  -6-21.6057 90.9997   8
   2  13  -5 852.220 200.722   8
  -2  13   5 404.767 184.430  10
   2  13  -4 302.170 152.530   8
   2 -13  -4 442.895 218.813   5
   2  13  -3 3090.34 424.912   8
   2 -13  -3 2848.90 435.034   5
   2  13  -2 2013.58 637.132   9
   2  13  -2 2600.50 395.573   8
   2 -13  -2 2315.24 421.383   5
   2  13  -1 11091.0 802.753   8
   2 -13  -1 9078.39 780.326   5
   2  13  -1 8228.20 1287.45   9
   2  13   0 477.985 388.908   9
  -2 -13   0 674.249 260.250  16
   2  13   0 1722.21 332.953   8
   2 -13   0-260.877 381.023  15
   2 -13   0 1016.54 306.782   5
   2  13   1 453.393 509.177   9
   2 -13   1 38.9701 325.818  15
   2  13   1 271.280 166.418   8
  -2 -13  -1 220.385 215.418  16
   2 -13   1 84.2302 156.838   5
   2  13   2 985.419 560.668   9
  -2 -13  -2 1011.81 319.966  16
   2  13   2 711.270 242.846   8
   2 -13   2 1119.98 397.010  15
   2 -13   2 871.285 264.293   5
   2  13   3 2456.53 352.019   8
   2 -13   3 1615.85 470.013  15
  -2 -13  -3 2493.78 494.706  16
   2  13   3 2408.23 721.567   9
  -2 -13  -4-7.84381 169.516  16
   2  13   4-165.071 311.775   9
   2 -13   4 55.2626 247.599  15
   2  13   4-4.60583 91.2139   6
  -2 -13  -5 327.073 168.335  16
   2 -13   5 304.932 160.343  15
  -2  14   5 162.494 97.9919  10
   2  14  -4 759.280 185.840   8
  -2  14   4 234.013 126.851  10
   2  14  -3 1008.11 220.697   8
   2 -14  -3 1384.72 301.509   5
   2  14  -2 1007.41 240.387   8
   2 -14  -2 962.425 276.527   5
   2  14  -2 307.017 247.017   9
   2  14  -1 303.376 259.007   9
   2  14  -1 792.982 212.808   8
   2 -14  -1 868.362 262.736   5
   2  14   0 3951.75 884.340   9
   2  14   0 3849.09 444.146   8
   2 -14   0 4446.30 516.812   5
  -2 -14   0 2693.15 463.049  16
   2  14   1 253.806 300.421   9
  -2 -14  -1 696.039 275.305  16
   2 -14   1 424.917 235.087  15
   2  14   1 572.537 191.186   8
   2 -14   1 215.739 149.492   5
   2  14   2 90.4838 282.532   9
  -2 -14  -2 109.247 163.524  16
   2 -14   2 246.164 246.346  15
   2 -14   2 258.045 169.534   5
   2  14   2 127.088 129.812   8
  -2 -14  -3 196.527 247.538  16
   2 -14   3 423.259 330.061  15
   2  14   3 406.195 147.902   6
   2  14   3 373.473 148.874   8
   2  14   3 167.005 231.582   9
  -2 -14  -4 152.804 158.625  16
   2  14   4 96.6890 125.213   9
   2  15  -3 695.601 149.093   8
   2 -15  -3 1005.61 226.730   5
   2  15  -2 2880.43 318.232   8
   2 -15  -2 3978.16 437.492   5
   2  15  -1 8153.99 545.871   8
   2 -15  -1 10380.6 705.872   5
   2  15   0 1472.41 548.786   9
   2  15   0 1373.89 234.116   8
   2 -15   0 1345.90 273.069   5
   2  15   1 209.023 287.902   9
  -2 -15  -1 703.363 261.373  16
   2  15   1 719.494 171.593   8
   2 -15   1 719.297 200.853   5
  -2 -15  -2 208.850 191.941  16
   2  15   2-206.977 91.0357   8
   2  15   2 43.4200 241.321   9
  -2 -15  -3 1222.66 264.075  16
   2  15   3 1247.46 370.128   9
   2  16   0 910.160 326.476   9
   2  16   1 127.009 195.540   9
   2  16   2 167.445 158.548   9
   3   0  -9-56.3614 75.9497   7
   3   0  -9 481.275 238.671   4
   3   0  -8 34776.5 1316.72   7
   3   0  -8 28194.6 1746.29   4
   3   0  -7 117.003 130.658   7
   3   0  -7-74.7770 276.078   4
   3   0  -6 11230.8 1272.39   4
   3   0  -6 10267.5 813.496   7
   3   0  -5 49.9260 139.147   7
  -3   0   5-137.122 846.069  12
   3   0  -5 164.625 225.585   4
   3   0  -4 11241.7 764.816   7
   3   0  -4 13984.3 1346.49   4
   3   0  -3 84.7125 149.400   4
  -3   0   3 3.03657 280.730  12
  -3   0   2 12178.5 1050.98  12
   3   0  -2 13478.3 1567.55   2
   3   0  -1-55.8067 341.288   2
  -3   0   1 48.5276 203.274  12
   3   0   0 25178.6 2181.45   2
   3   0   1 598.857 533.928   2
   3   0   1 439.679 256.912   4
   3   0   1 497.024 329.719   9
   3   0   2-29.3173 238.020   2
   3   0   2 501.730 279.854   4
  -3   0  -2 207.885 157.599  11
   3   0   2 205.919 229.237   9
   3   0   3 603.941 309.291   4
   3   0   3-128.655 400.945   9
  -3   0  -3 219.955 146.137  11
   3   0   3 421.388 227.720   6
   3   0   4 2156.51 425.359   6
   3   0   4 1483.65 500.548   9
   3   0   4 1407.21 699.606   4
   3   0   5 18.6989 167.959   6
   3   0   6 31173.6 1351.70   6
   3   0   7 117.626 155.058   6
   3   1  -9 581.399 151.288   7
   3  -1  -9 405.715 129.577   7
   3  -1  -9 369.867 161.917   4
   3   1  -9 440.247 212.794   4
   3   1  -8 2400.35 365.912   7
   3  -1  -8 2380.85 347.525   7
   3  -1  -8 1831.59 472.211   4
   3   1  -8 1482.03 438.529   4
   3   1  -7 2753.70 430.102   7
   3  -1  -7 2567.46 388.305   7
   3  -1  -7 2186.06 573.577   4
   3   1  -7 2396.81 600.014   4
   3   1  -6 199.366 157.438   7
   3  -1  -6 193.492 183.375   7
   3  -1  -6 336.959 253.636   4
   3   1  -6 262.584 287.937   4
   3   1  -5 7102.78 1015.46   4
   3   1  -5 7320.27 657.687   7
   3  -1  -5 6771.76 634.619   7
   3  -1  -5 7427.25 1038.71   4
   3   1  -4 589.723 179.696   7
   3  -1  -4 1349.87 429.845   4
   3   1  -4 1462.80 487.459   4
   3  -1  -3 1350.19 390.874  15
   3  -1  -3 1792.96 472.516   4
   3   1  -3 1732.22 466.613   4
  -3  -1   3 2366.61 596.860  12
  -3   1   3 2708.24 605.599  12
  -3   1   2 12267.9 1026.03  12
  -3  -1   2 12161.3 1063.06  12
   3   1  -2 10993.1 1456.37   2
  -3   1   1 89364.0 2924.27  12
  -3  -1   1 91617.6 3057.59  12
   3   1  -1 91335.9 4295.22   2
   3  -1  -1 97665.8 4121.60   2
   3   1   0 1831.95 637.669   2
   3  -1   0 1349.22 553.717   2
  -3  -1   0 1387.13 401.936  12
   3  -1   1 5754.58 760.927   4
   3   1   1 6126.63 785.225   4
   3   1   1 6024.13 1131.50   2
   3  -1   1 6268.09 1122.46   2
   3  -1   1 6061.76 959.287   9
   3   1   1 7073.78 1100.72   9
   3   1   2 2976.26 843.897   2
   3   1   2 2269.31 489.302   4
  -3   1  -2 3163.73 450.177  11
  -3  -1  -2 3017.53 416.339  11
   3   1   2 2872.23 397.694   6
   3  -1   2 3051.32 716.352   9
   3   1   2 2265.75 699.795   9
   3  -1   2 2761.71 596.665   4
   3  -1   3 5500.19 597.696   6
  -3   1  -3 4977.95 607.321  11
   3   1   3 5777.77 609.217   6
  -3  -1  -3 5074.20 614.344  11
   3  -1   3 5106.88 882.992   9
   3   1   3 5170.35 901.655   9
   3   1   3 4596.78 728.608   4
   3  -1   3 4465.80 723.723   4
   3   1   3 4472.11 1148.53   2
   3  -1   4 15817.7 1024.32   6
   3   1   4 15740.7 1028.79   6
   3   1   4 11736.0 1337.95   9
   3   1   4 11245.4 1306.07   4
   3  -1   5 2313.45 426.809   6
   3   1   5 2381.97 431.963   6
   3  -1   6 2386.28 404.627   6
   3   1   6 2778.32 484.030   6
   3  -1   7 1841.25 312.972   6
   3   1   7 1812.04 283.363   6
   3   2  -9 286.142 117.551   7
   3  -2  -9 361.188 116.501   7
   3   2  -9 406.671 208.551   4
   3  -2  -8 4387.24 650.113   4
   3   2  -8 5244.82 781.523   4
   3   2  -8 6499.43 555.859   7
   3  -2  -8 5338.49 504.451   7
   3  -2  -7 10494.5 1170.49   4
   3   2  -7 9618.91 1141.13   4
   3   2  -7 11999.0 830.448   7
   3  -2  -7 11142.5 806.730   7
   3  -2  -6 1890.68 355.691   7
   3   2  -6 1698.98 347.068   7
   3  -2  -6 2095.82 569.198   4
   3   2  -6 1175.20 469.445   4
   3   2  -5 4635.80 804.803   4
   3   2  -5 4462.03 517.516   7
   3  -2  -5 4703.20 847.345   4
   3  -2  -5 5072.68 774.964  16
   3  -2  -4 17982.7 1527.79   4
   3   2  -4 16516.7 1456.24   4
   3   2  -4 16591.9 955.403   7
   3  -2  -3 4046.79 647.840  15
   3   2  -3 4186.40 710.302   4
   3  -2  -3 4319.10 707.475   4
  -3  -2   3 6427.37 970.787  12
  -3   2   3 4958.22 841.995  12
   3   2  -3 4999.03 1065.68   2
   3   2  -2 327.274 324.745   2
   3   2  -2 387.472 294.062   4
  -3   2   2 426.324 226.599  12
  -3  -2   2 137.798 184.714  12
   3   2  -1 3831.62 926.243   2
  -3   2   1 4062.96 622.356  12
  -3  -2   1 3709.98 609.938  12
   3  -2  -1 4602.36 906.055   2
   3   2   0 2904.88 847.722   2
  -3  -2   0 3857.15 647.059  12
   3   2   1 10203.1 1022.19   4
   3   2   1 10070.1 1521.55   2
   3  -2   1 12528.2 1334.15   9
   3   2   1 11693.0 1415.24   9
   3  -2   1 11252.1 1068.06   4
   3  -2   2 15592.7 1289.33   4
   3   2   2 13435.5 1800.79   2
  -3   2  -2 14943.4 960.741  11
  -3  -2  -2 15761.8 969.064  11
   3   2   2 13985.2 910.877   6
   3  -2   2 15840.7 1513.26   9
   3   2   2 14198.7 1641.20   9
   3   2   2 13176.3 1191.82   4
   3   2   3 5864.45 1282.67   2
   3  -2   3 9237.68 766.355   6
  -3   2  -3 7641.40 762.974  11
  -3  -2  -3 8092.74 769.227  11
   3   2   3 9091.65 747.732   6
   3  -2   3 8673.33 1108.32   9
   3   2   3 7225.64 1141.86   9
   3  -2   3 8545.96 1007.90   4
   3   2   3 7801.47 959.015   4
   3  -2   4 3224.78 486.292   6
   3   2   4 2414.32 404.154   6
   3   2   4 2386.19 668.793   9
   3  -2   5 1157.42 328.322   6
   3   2   5 854.495 290.767   6
   3  -2   6 6773.12 624.462   6
   3   2   6 6569.46 618.053   6
   3  -2   7 10419.0 641.490   6
   3   2   7 10059.5 628.495   6
   3   3  -9-29.6602 59.2812   7
   3  -3  -9-2.43903 68.3482   7
   3   3  -9-112.656 147.465   4
   3   3  -8 677.837 206.692   7
   3  -3  -8 609.413 186.060   7
   3   3  -8 521.857 304.717   4
   3   3  -7 5210.44 853.027   4
   3   3  -7 6352.83 603.514   7
   3  -3  -7 4405.72 493.548   7
   3  -3  -7 3130.60 651.115   4
   3   3  -6 270.267 180.832   7
   3  -3  -6 231.786 362.026   4
   3   3  -6 28.0794 302.246   4
   3  -3  -6-13.3345 306.084  16
   3   3  -5 409.396 191.191   7
   3  -3  -5 335.998 282.532   4
  -3  -3   5 643.655 1648.39  12
   3   3  -5 597.057 323.208   4
   3  -3  -5 1023.53 463.081  16
   3  -3  -4 14864.5 1380.27   4
   3   3  -4 15534.9 1432.75   4
   3   3  -4 16816.2 971.404   7
   3  -3  -4 19374.3 1476.98  16
   3  -3  -3 2162.09 492.337  15
   3   3  -3 1846.12 306.142   7
   3   3  -3 2940.31 822.194   2
   3  -3  -3 1980.56 502.009   4
   3   3  -3 2536.30 557.460   4
   3  -3  -2 28.3178 234.812  15
   3   3  -2-16.3556 402.812   2
   3   3  -2 74.5891 231.446   4
  -3  -3   2 281.111 201.842  12
  -3   3   1 26842.9 1571.69  12
  -3  -3   1 27085.5 1663.97  12
   3   3  -1 24712.8 2332.45   2
   3   3   0 10431.6 1048.42   4
  -3  -3   0 10831.2 1080.48  12
   3   3   0 10448.1 1523.08   2
   3  -3   0 11848.7 1251.53   9
   3   3   0 10987.2 1355.19   9
   3  -3   1 1445.14 444.721  15
   3  -3   1 1997.65 461.526   4
   3   3   1 1860.70 481.263   4
   3  -3   1 1442.73 505.841   9
   3   3   1 1345.66 607.676   2
   3   3   1 2211.70 675.921   9
   3   3   2 58431.9 1724.48   8
   3   3   2 64408.2 4037.19   2
  -3   3  -2 68423.5 2156.25  11
   3  -3   2 70313.3 3140.21   9
   3   3   2 68832.6 3565.47   9
   3  -3   2 68170.7 2721.13   4
   3   3   2 66081.1 2669.11   4
   3   3   3 1239.37 297.937   8
   3   3   3 1772.41 705.760   2
   3  -3   3 1702.99 516.059   4
   3  -3   3 1004.91 354.484  15
   3   3   3 1523.36 454.803   4
   3  -3   3 2507.78 376.531   6
  -3   3  -3 1764.19 374.287  11
  -3  -3  -3 1818.83 386.028  11
   3   3   3 2235.28 383.926   6
   3  -3   3 2284.53 611.310   9
   3   3   3 1937.27 664.524   9
   3  -3   4 7512.21 715.639   6
   3   3   4 6241.23 648.967   6
   3   3   4 5145.45 924.609   9
   3  -3   5 11953.7 875.612   6
   3   3   5 11356.4 851.075   6
   3  -3   6 2055.75 353.036   6
   3   3   6 2161.39 364.402   6
   3   3   7 840.141 198.086   6
   3   4  -9 216.956 95.9259   7
   3   4  -9 141.436 121.089   4
   3   4  -8 3528.11 601.195   4
   3   4  -8 4057.18 429.183   7
   3  -4  -8 3657.12 400.044   7
   3   4  -7 466.769 220.732   7
   3  -4  -7 568.711 191.370   7
   3   4  -7 212.842 234.319   4
   3   4  -6 1384.64 331.629   7
   3   4  -6 1252.64 468.035   4
   3  -4  -6 1021.43 410.399  16
   3   4  -5 66775.4 3066.67   4
   3   4  -5 70169.2 2100.18   7
   3  -4  -4 2663.57 591.023  16
   3  -4  -4 2579.62 555.163  15
   3   4  -4 1600.60 312.906   7
   3   4  -4 2176.41 596.403   4
   3  -4  -3 677.075 308.777  15
   3   4  -3 956.478 575.697   2
   3   4  -3 374.532 145.291   7
   3   4  -3 48.9762 301.191   4
  -3  -4   3 51.0244 403.830  12
   3  -4  -3 217.093 193.842  16
   3  -4  -2 553.187 300.422  15
   3   4  -2 172.452 429.807   2
   3   4  -2 456.893 180.219   7
   3   4  -2 273.810 264.203   4
  -3  -4   2 467.464 266.822  12
   3   4  -2 918.491 466.689   9
   3  -4  -2 342.333 184.889   9
   3  -4  -1 5502.03 764.761  15
  -3  -4   1 6356.65 795.669  12
   3   4  -1 6215.76 1214.53   2
   3  -4  -1 7574.02 964.591   9
   3   4  -1 5950.20 1035.43   9
   3   4  -1 6052.04 820.432   4
   3   4   0 970.975 554.470   2
   3  -4   0 635.760 231.074   4
   3   4   0 1017.98 377.225   4
  -3   4   0 621.866 271.591  12
  -3  -4   0 818.241 346.350  12
   3  -4   0 1395.47 451.994   9
   3  -4   0 680.131 349.017  15
   3   4   0 1018.35 387.935   9
   3   4   1 7328.98 881.120   4
  -3  -4  -1 7813.97 986.024  12
   3  -4   1 8651.85 1057.40  15
   3   4   1 7873.04 1413.29   2
   3  -4   1 8615.37 1098.04   9
   3   4   1 8509.79 1260.32   9
   3   4   1 7553.46 611.361   8
   3  -4   1 8482.52 957.112   4
   3   4   2 3342.82 992.642   2
   3   4   2 3785.83 457.220   8
   3  -4   2 2705.07 608.470  15
  -3   4  -2 3761.38 521.908  11
   3  -4   2 4698.23 819.063   9
   3  -4   2 3477.71 656.018   4
   3   4   2 3726.14 945.189   9
   3   4   2 3825.33 662.870   4
   3  -4   3 26125.5 1911.12  15
   3   4   3 29858.1 2953.00   2
  -3   4  -3 27798.1 1513.97  11
  -3  -4  -3 27486.2 1505.91  16
  -3  -4  -3 27632.5 1552.25  11
   3   4   3 33401.8 1459.96   6
   3  -4   3 33756.4 2157.97   9
   3   4   3 29875.6 2371.60   9
   3   4   3 29311.1 1291.93   8
   3  -4   3 30531.2 1971.67   4
   3   4   3 32014.4 1918.87   4
   3   4   4 62.6515 141.606   8
   3  -4   4-4.73169 365.739  15
   3  -4   4 183.736 160.107   6
   3   4   4 495.004 246.977   6
   3   4   4-83.8287 373.123   9
   3  -4   5 1711.25 355.171   6
   3   4   5 2139.85 386.521   6
  -3  -4  -6 591.518 181.167  14
   3  -4   6 1592.99 317.541   6
   3   4   6 1597.66 320.400   6
   3   4   7 468.436 152.043   6
   3   5  -9 209.176 72.3010   7
   3   5  -9 19.5063 105.774   4
   3   5  -8 644.771 169.064   7
   3  -5  -8 744.387 186.611   7
   3   5  -8 837.871 296.025   4
   3   5  -7 3979.19 471.547   7
   3   5  -7 3081.59 607.220   4
   3  -5  -7 3640.50 662.546  16
   3   5  -6 350.012 193.118   7
   3   5  -6 1110.07 453.652   4
   3  -5  -6 563.350 330.136  16
   3   5  -5 5740.56 915.788   4
   3   5  -5 6281.75 648.952   7
   3  -5  -5 6360.41 901.504  16
   3  -5  -4 73882.2 2955.44  16
   3   5  -4 73963.8 2127.25   7
   3   5  -4 69916.3 3093.28   4
   3  -5  -4 68556.8 2627.91   3
   3  -5  -3 1208.37 413.636  15
   3   5  -3 627.630 398.403   2
   3   5  -3 1018.65 246.958   7
   3   5  -3 1229.62 427.823   4
  -3  -5   3 869.084 581.105  12
   3  -5  -3 1144.25 394.611  16
   3  -5  -2 1551.21 475.767  15
   3   5  -2 1789.70 685.209   2
   3   5  -2 1527.49 300.175   7
   3   5  -2 1003.03 383.556   4
  -3  -5   2 1788.43 527.081  12
   3   5  -2 2036.45 656.079   9
   3   5  -1 19790.0 1500.73   4
   3  -5  -1 25877.5 1744.17  15
   3   5  -1 21434.5 1029.66   7
  -3  -5   1 27164.5 1752.05  12
   3   5  -1 25979.8 2502.66   2
   3  -5  -1 28151.0 1969.15   9
   3   5  -1 22978.5 2037.64   9
   3   5  -1 23139.5 1085.27   8
   3   5   0 3258.18 610.139   4
   3   5   0 4620.91 494.541   8
  -3  -5   0 4265.39 698.838  12
   3  -5   0 5693.01 881.262   9
   3  -5   0 4378.96 798.700  15
   3   5   0 4614.78 984.591   9
   3   5   0 3697.58 973.858   2
   3   5   1 6091.86 804.739   4
   3   5   1 6825.50 600.783   8
   3  -5   1 7641.11 1055.01  15
  -3  -5  -1 7957.52 1016.69  12
   3   5   1 7196.08 1413.28   2
   3  -5   1 7795.09 1077.81   9
   3   5   1 6758.12 1184.23   9
   3  -5   1 5828.29 772.680   4
   3   5   2 86319.7 2178.44   8
   3  -5   2 75243.6 3274.66  15
  -3  -5  -2 78213.9 3313.53  12
   3   5   2 81603.9 4798.89   2
  -3   5  -2 73995.8 2442.22  11
   3   5   2 79095.3 3989.20   9
   3  -5   2 80469.3 3009.94   4
   3   5   2 74608.0 2860.11   4
   3   5   3 18916.5 1034.98   8
   3  -5   3 13709.4 1430.56  15
  -3   5  -3 15804.4 1167.58  11
   3   5   3 19307.2 1111.80   6
  -3  -5  -3 17387.8 1224.73  16
   3   5   3 20183.6 1974.00   9
   3   5   3 15598.0 1333.83   4
   3   5   4 2426.71 404.155   8
  -3  -5  -4 2478.35 473.040  16
   3  -5   4 2440.81 639.330  15
   3  -5   4 3318.88 468.717   6
   3   5   4 3512.25 493.207   6
   3   5   4 3310.43 798.362   9
   3  -5   5-51.3527 359.397  15
   3  -5   5 615.215 229.376   6
   3   5   5 371.484 213.088   6
   3  -5   6-35.6618 295.609  15
  -3  -5  -6 202.267 147.909  14
   3   5   6 38.0918 132.770   6
   3   5   7 181.552 99.3849   6
   3   6  -8 6689.18 722.811   4
   3   6  -8 9214.17 574.421   7
   3   6  -7 613.953 203.792   7
   3   6  -7 432.031 291.749   4
   3  -6  -7 528.483 326.991  16
   3   6  -6 5336.13 847.542   4
   3   6  -6 5382.41 587.407   7
   3  -6  -6 5722.82 838.256  16
   3   6  -5 16043.7 1491.59   4
   3   6  -5 18013.6 1064.20   7
   3  -6  -5 16579.3 1416.89  16
   3   6  -4 53483.3 2686.25   4
   3   6  -4 54206.1 1851.52   7
   3  -6  -4 57020.3 2535.73  16
   3   6  -3 1806.87 347.086   7
   3   6  -3 1539.94 730.905   2
   3  -6  -3 1533.02 458.022  15
   3   6  -3 1391.58 447.508   4
  -3  -6   3 596.030 1347.66  12
   3  -6  -2 2340.46 589.050  15
   3   6  -2 1795.11 698.527   2
   3   6  -2 2776.79 410.714   7
  -3   6   2 1627.53 334.303  13
   3   6  -2 1889.25 508.218   4
  -3  -6   2 3440.29 802.803  12
   3   6  -2 1852.68 608.961   9
   3   6  -1 11273.4 782.543   8
   3   6  -1 10061.4 1056.01   4
   3   6  -1 12791.5 824.462   7
  -3  -6   1 14576.2 1362.45  12
   3  -6  -1 12755.4 1277.09  15
   3   6  -1 13119.7 1852.65   2
   3   6  -1 11924.6 1520.40   9
   3  -6   0 290.964 271.221  15
   3   6   0 462.694 198.092   8
   3   6   0 498.387 310.210   4
  -3  -6   0 548.683 317.267  12
   3   6   0 148.457 332.782   9
   3   6   1 4897.22 515.836   8
   3  -6   1 4554.00 857.934  15
  -3  -6  -1 6005.94 914.474  12
   3   6   1 5608.86 1310.85   2
   3   6   1 5618.49 1120.34   9
   3   6   2 38435.1 1510.94   8
   3  -6   2 40909.5 2479.47  15
  -3  -6  -2 37332.9 2312.98  12
   3   6   2 39513.4 3445.70   2
  -3   6  -2 34508.1 1712.65  11
   3   6   2 43979.1 3002.95   9
   3  -6   2 36943.8 2090.71   4
   3   6   3 24438.9 1190.23   8
   3  -6   3 21593.3 1840.69  15
   3   6   3 23611.1 2166.64   9
  -3  -6  -3 21340.2 1396.82  16
  -3  -6  -4-106.340 250.607  16
   3   6   4 283.575 190.027   8
   3  -6   4 92.8406 332.785  15
   3   6   4 125.021 166.821   6
   3   6   4-293.153 308.878   9
   3  -6   5 2601.58 653.687  15
   3   6   5 4414.33 507.150   6
   3  -6   6 1356.07 432.360  15
  -3  -6  -6 2148.61 323.560  14
   3   6   7 628.147 139.117   6
   3   7  -8 15089.3 983.858   4
   3   7  -8 18452.5 752.868   7
   3   7  -7 9650.29 672.933   7
   3   7  -7 8562.95 921.620   4
   3  -7  -7 10482.8 980.574  16
   3   7  -6 266.032 131.639   7
   3   7  -6-48.0377 232.510   4
   3  -7  -6 74.0395 232.136  16
   3   7  -5 847.640 256.430   7
   3   7  -5 1138.09 422.125   4
   3  -7  -5 847.002 384.995  16
   3  -7  -4 5111.81 798.751  15
   3   7  -4 4096.16 758.098   4
   3   7  -4 4154.94 529.036   7
   3  -7  -4 4028.49 719.722  16
   3  -7  -3 1626.25 518.783  15
   3   7  -3 1651.45 744.143   2
   3   7  -3 1191.20 302.504   7
   3   7  -3 1151.43 414.030   4
  -3  -7   3 1849.11 2911.01  12
   3   7  -2 37589.5 2109.60   4
   3  -7  -2 47315.5 2390.17  15
  -3   7   2 43462.7 1928.61  13
   3   7  -2 46272.0 1645.25   7
  -3  -7   2 47352.0 3115.83  12
   3   7  -2 41926.3 3367.59   2
   3   7  -2 36896.6 2576.05   9
   3  -7  -1 85406.5 3335.09  15
   3   7  -1 84545.3 2236.60   8
   3   7  -1 85043.9 2225.61   7
  -3   7   1 84091.5 2580.90  13
   3   7  -1 80021.6 4720.41   2
   3   7  -1 80055.1 3984.88   9
   3   7   0 873.101 552.484   2
   3  -7   0 760.237 473.743  15
   3   7   0 806.051 231.262   8
  -3  -7   0 1722.29 452.882  12
   3   7   0 704.095 445.253   9
   3   7   1 5370.11 1247.77   2
   3  -7   1 4848.90 917.913  15
  -3  -7  -1 5504.03 886.767  12
   3   7   1 4659.41 1075.74   9
   3   7   1 5868.89 591.119   8
   3   7   2 2252.11 403.788   8
   3  -7   2 1679.86 619.405  15
   3   7   2 2396.19 761.498   9
   3   7   3 3065.29 454.154   8
  -3  -7  -3 2696.03 522.889  16
   3  -7   3 2792.34 753.636  15
   3   7   3 3119.60 855.397   9
  -3  -7  -4 1151.19 376.320  16
   3   7   4 1214.13 316.248   8
   3  -7   4 1098.42 560.765  15
   3   7   4 1598.45 346.380   6
   3   7   4 744.230 365.925   9
   3  -7   5 12879.3 1296.80  15
   3   7   5 14344.7 867.387   6
  -3  -7  -5 11591.1 915.076  16
   3  -7   6 10698.2 981.995  15
  -3  -7  -6 10550.5 647.005  14
   3   8  -8 7417.63 424.194   7
   3   8  -7 8490.58 822.352   4
   3   8  -7 10900.7 664.382   7
   3   8  -6 3494.10 617.400   4
   3   8  -6 3890.36 465.953   7
   3  -8  -6 3428.44 583.555  16
   3   8  -5 3658.25 666.234   4
   3   8  -5 3265.88 466.154   7
   3  -8  -5 3447.51 629.446  16
   3   8  -4 11526.3 1192.05   4
   3   8  -4 13362.5 920.616   7
   3  -8  -3 3037.78 665.742  15
   3   8  -3 2327.82 408.858   7
   3  -8  -2 7312.45 1012.57  15
   3   8  -2 4944.75 1182.11   2
   3   8  -2 6381.51 629.955   7
  -3   8   2 5723.44 738.131  13
   3   8  -2 4673.04 969.646   9
   3  -8  -1 96340.4 3605.66  15
   3   8  -1 91329.5 2364.48   8
   3   8  -1 91435.3 2363.98   7
  -3  -8   1 94696.0 4256.41  12
   3   8  -1 81164.8 4888.15   2
   3   8  -1 79457.2 4040.09   9
   3   8   0 663.413 603.992   2
   3  -8   0 186.103 309.431  15
   3   8   0 115.699 167.499   8
  -3  -8   0 308.288 278.570  12
   3   8   0 643.629 483.937   9
   3   8   1 1995.06 376.197   8
   3  -8   1 2355.72 681.593  15
   3   8   1 1572.83 654.890   9
   3   8   2 6065.67 630.385   8
   3  -8   2 6393.09 1080.65  15
  -3  -8  -2 6233.15 794.908  16
   3   8   2 7067.47 1275.86   9
  -3  -8  -3 1070.58 345.244  16
   3   8   3 685.238 248.357   8
   3  -8   3 1353.51 642.975  15
   3   8   3 1529.07 686.512   9
  -3  -8  -4 245.574 178.632  16
   3   8   4 12.7929 151.218   8
   3  -8   4 239.355 324.377  15
   3   8   4 112.713 182.816   6
   3   8   4-74.4560 235.839   9
   3  -8   5 22681.2 1644.78  15
  -3  -8  -5 20276.6 1183.92  16
   3   8   5 23844.7 1053.24   6
   3  -8   6 3690.41 548.748  15
  -3  -8  -6 2829.03 310.840  14
   3   8   6 4059.92 361.553   6
   3   9  -7 64.8189 93.9409   7
   3   9  -6 232.129 163.560   7
   3  -9  -6-275.266 285.104  16
   3   9  -5 537.972 213.971   7
   3  -9  -5 542.969 244.746  16
   3  -9  -4-293.729 337.113  15
   3   9  -4 170.000 157.747   7
   3   9  -3 215.462 192.082   7
   3  -9  -3 329.315 302.558  15
   3  -9  -2 32181.2 2019.44  15
   3   9  -2 28892.3 1322.98   8
   3   9  -2 29805.9 1355.31   7
   3   9  -1 7815.24 692.152   8
   3   9  -1 5573.51 1086.15   9
   3  -9  -1 7946.86 1072.01  15
   3   9   0 2913.93 441.813   8
   3  -9   0 4006.16 827.218  15
   3   9   0 2149.93 752.348   9
   3  -9   1 379.906 332.517  15
   3   9   1 74.5219 184.793   8
   3   9   1 300.928 443.450   9
  -3  -9  -2 2081.16 481.222  16
   3   9   2 2112.63 371.574   8
   3  -9   2 1972.40 662.753  15
   3   9   2 1503.60 611.914   9
  -3  -9  -3 163.829 239.851  16
   3   9   3-30.0286 158.588   8
   3  -9   3 49.2287 351.299  15
   3   9   3-80.1300 327.357   9
  -3  -9  -4-139.631 161.730  16
   3   9   4 86.7146 171.980   8
   3  -9   4-88.2992 416.590  15
   3   9   4-25.8633 139.224   6
   3   9   4 163.594 263.272   9
   3  -9   5 3488.36 635.887  15
   3   9   5 3481.62 388.349   6
  -3  -9  -5 3906.60 501.865  16
   3  -9   6 16548.4 1010.07  15
   3   9   6 20032.2 701.939   6
   3  10  -7 1313.24 191.959   7
   3  10  -6 46.9063 101.699   7
   3  10  -5 1503.97 302.863   7
   3  10  -4 4060.85 512.921   7
   3 -10  -3 2433.84 579.759  15
   3  10  -3 2328.71 409.073   8
   3  10  -3 2283.72 403.323   7
   3 -10  -2 7110.33 993.278  15
   3  10  -2 6699.28 653.394   8
   3  10  -2 4584.36 933.636   9
   3 -10  -1 27518.0 1959.04  15
   3  10  -1 25850.3 1238.69   8
   3 -10   0 36.3998 291.474  15
   3  10   0 127.607 190.642   8
   3  10   0 42.7292 396.959   9
   3  10   1 4927.78 543.705   8
   3 -10   1 5975.97 972.958  15
  -3 -10  -1 5486.49 757.368  16
   3  10   1 4959.92 1061.18   9
   3  10   2 3456.39 452.692   8
   3 -10   2 3114.08 719.758  15
  -3 -10  -2 3667.54 613.931  16
   3  10   2 2504.60 739.485   9
  -3 -10  -3 213.172 237.560  16
   3  10   3-205.407 159.486   8
   3 -10   3-35.9136 338.656  15
   3  10   3-175.956 267.998   9
  -3 -10  -4 487.387 248.223  16
   3  10   4 590.736 196.334   8
   3 -10   4 1223.94 423.873  15
   3  10   4 426.269 186.982   6
   3  10   4 492.757 249.985   9
   3 -10   5 5620.03 701.149  15
   3  10   5 5763.84 438.275   6
  -3 -10  -5 4916.69 519.165  16
   3  11  -6 107.609 97.8043   8
   3  11  -5 1338.37 271.147   7
   3  11  -4 3123.47 415.505   8
   3  11  -4 3151.66 441.469   7
   3 -11  -3 354.391 267.379  15
   3  11  -3 22.9250 162.464   8
   3  11  -2 464.228 219.010   8
   3  11  -2 589.110 379.126   9
   3  11  -1 3721.19 483.267   8
   3 -11  -1 3660.92 730.050  15
   3  11  -1 2021.84 630.831   9
  -3 -11   0 372.240 319.200  16
   3 -11   0 734.026 407.502  15
   3  11   0 584.238 214.758   8
   3  11   0 300.199 403.251   9
  -3 -11  -1 173.293 248.907  16
   3 -11   1 508.388 370.645  15
   3  11   1 67.9055 170.954   8
   3  11   1 568.228 461.910   9
  -3 -11  -2 673.091 292.937  16
   3  11   2 1087.60 267.020   8
   3 -11   2 878.093 471.782  15
   3  11   2 948.205 532.771   9
  -3 -11  -3 2281.63 424.536  16
   3 -11   3 1948.36 536.081  15
   3  11   3 2348.94 339.987   8
   3  11   3 2725.07 385.012   6
   3  11   3 2118.76 601.711   9
  -3 -11  -4 7140.27 667.018  16
   3 -11   4 6739.62 803.135  15
   3  11   4 6815.83 506.552   6
   3  11   4 5157.98 716.012   9
   3 -11   5 244.388 185.837  15
   3  12  -6 162.858 79.0416   8
   3  12  -5 4130.44 371.065   8
   3  12  -4 8378.21 594.118   8
   3 -12  -3-22.4745 195.776  15
   3  12  -3 141.469 133.735   8
  -3 -12   2 5.62534 161.744  16
   3 -12  -2 312.489 266.848  15
   3  12  -2-44.0704 158.639   8
   3  12  -2 353.186 314.964   9
  -3 -12   1 123.215 189.657  16
   3 -12  -1 185.061 231.844  15
   3  12  -1 179.178 155.474   8
   3  12  -1-349.479 376.023   9
  -3 -12   0 492.603 260.907  16
   3 -12   0 674.324 423.011  15
   3  12   0 251.312 175.407   8
   3  12   0 116.103 311.540   9
   3  12   1 8774.70 671.831   8
   3 -12   1 7521.78 965.931  15
   3  12   1 7694.30 1152.97   9
  -3 -12  -1 9688.87 865.642  16
   3  12   2 3506.66 410.416   8
   3 -12   2 2941.17 619.358  15
  -3 -12  -2 3541.22 536.380  16
   3  12   2 2549.88 666.698   9
  -3 -12  -3 406.136 226.345  16
   3  12   3 504.537 169.424   8
   3 -12   3 452.323 297.258  15
   3  12   3 393.496 136.280   6
  -3 -12  -4-150.628 151.993  16
   3 -12   4 1.52078 160.142  15
   3  12   4 205.363 105.761   6
   3  13  -5 7129.62 414.663   8
   3  13  -4 328.000 136.608   8
   3  13  -3 105.895 112.051   8
  -3 -13   2-87.7128 137.327  16
   3 -13  -2 249.787 199.169  15
   3  13  -2 62.3720 120.108   8
  -3 -13   1 434.428 194.682  16
   3 -13  -1 792.106 300.977  15
   3  13  -1 815.216 207.286   8
   3  13  -1 289.604 233.368   9
  -3 -13   0 130.172 187.848  16
   3 -13   0 377.224 248.729  15
   3  13   0 224.044 156.013   8
   3  13   0-61.9968 259.799   9
  -3 -13  -1 418.490 213.151  16
   3 -13   1 277.857 200.090  15
   3  13   1 137.612 117.844   8
   3  13   1 572.768 374.216   9
  -3 -13  -2 182.350 170.261  16
   3  13   2 244.390 119.332   8
   3 -13   2 227.602 181.899  15
   3  13   2 394.984 258.183   9
   3  13   3 7453.62 462.109   8
   3 -13   3 7858.34 746.079  15
   3  13   3 7610.57 477.502   6
   3  13   3 5779.80 696.106   9
  -3 -13  -3 7671.25 614.874  16
   3  14  -3 1055.45 187.031   8
   3  14  -2 236.038 116.664   8
  -3 -14   1 64.3424 95.8376  16
   3 -14  -1 438.410 215.894  15
   3  14  -1-9.03527 89.4482   8
   3  14  -1 40.4354 186.104   9
  -3 -14   0-171.412 197.277  16
   3 -14   0-3.48200 152.664  15
   3  14   0-10.4276 92.1366   8
   3  14   0-191.688 271.197   9
  -3 -14  -1 1827.97 325.957  16
   3  14   1 2113.41 263.498   8
   3 -14   1 1628.02 344.144  15
   3  14   1 1254.80 391.804   9
   3  14   2 4611.23 343.854   8
   3  14   2 4489.82 350.336   6
   3  14   2 3231.80 530.338   9
  -3 -14  -2 4530.08 455.703  16
   4   0  -8 8138.82 667.150   4
   4   0  -7 30.3149 71.8200   7
   4   0  -7 203.490 208.799   4
   4   0  -6 63.2700 188.009   4
   4   0  -5 5.70754 237.314   4
   4   0  -4 3254.90 672.379   4
   4   0  -3 60.1442 213.963   4
   4   0  -3 257.360 281.715   9
   4   0  -2 4050.73 754.672   4
   4   0  -2 4410.36 829.074   9
   4   0  -1 418.839 310.453   4
   4   0  -1 40.0100 288.920   9
   4   0   0 20879.3 1583.44   4
   4   0   0 20111.7 1830.32   9
   4   0   1 95.5357 238.305   4
   4   0   1 3.66870 309.606   9
   4   0   2 25894.8 2033.56   9
   4   0   2 27589.2 1839.80   4
   4   0   3 204.098 342.585   4
   4   0   3-589.424 349.722   9
   4   0   4 5124.11 513.129   6
   4   0   4 3912.17 649.616   9
   4   0   5-304.768 150.137   6
   4   1  -8 1162.18 278.243   4
   4   1  -7 1241.34 222.591   7
   4  -1  -7 785.761 288.013   4
   4   1  -7 600.615 269.983   4
   4   1  -6 2081.49 332.176   7
   4  -1  -6 2158.88 520.351   4
   4   1  -6 1569.22 461.764   4
   4  -1  -5 6834.55 921.635   4
   4   1  -5 7162.82 969.257   4
   4  -1  -4 17524.2 1516.95   4
   4   1  -4 14518.3 1381.59   4
   4  -1  -3 1525.27 510.424   4
   4   1  -3 2027.35 585.534   4
   4  -1  -3 1168.44 449.843   9
   4  -1  -2 107.298 217.236   4
   4   1  -2 648.174 309.366   4
   4  -1  -2 465.109 336.399   9
   4   1  -2 598.084 347.195   9
   4  -1  -1 5151.44 847.372   4
   4   1  -1 5642.06 856.078   4
  -4   1   1 3878.81 741.927  12
   4  -1  -1 5399.60 960.237   9
   4   1  -1 5160.67 964.833   9
   4  -1   0 2527.99 586.331   4
   4   1   0 2031.60 511.720   4
   4  -1   0 2436.30 652.913   9
   4   1   0 1855.79 593.495   9
   4  -1   1 2407.61 578.250   4
   4   1   1 2620.41 598.090   4
   4  -1   1 2757.18 692.798   9
   4   1   1 2623.04 689.669   9
   4  -1   2 25189.9 1955.46   9
   4   1   2 24365.4 2016.64   9
   4  -1   2 25661.7 1763.16   4
   4   1   2 25558.6 1752.47   4
   4  -1   3 576.172 424.030   4
   4   1   3 765.285 386.714   4
   4   1   3 259.118 191.079   6
   4  -1   3 1012.97 450.475   9
   4   1   3 578.089 275.733   9
   4  -1   4 225.198 174.587   6
   4   1   4 406.008 208.330   6
   4  -1   4 550.711 293.720   9
   4   1   4 289.377 247.387   9
   4  -1   5 1121.33 230.394   6
   4   1   5 986.481 201.579   6
   4   2  -8 1259.12 273.108   4
   4  -2  -7 248.674 229.528   4
   4   2  -7 496.698 143.858   7
   4   2  -7 451.938 221.008   4
   4  -2  -6 4887.27 726.488   4
   4   2  -6 5386.23 805.167   4
   4   2  -6 5905.00 526.443   7
   4  -2  -5 27095.0 1831.12   4
   4   2  -5 26964.5 1827.91   4
   4   2  -5 25497.8 1135.62   7
   4  -2  -4 2573.59 600.815   4
   4   2  -4 2578.10 614.579   4
   4  -2  -3 1166.89 414.996   4
   4   2  -3 534.965 260.687   4
   4  -2  -3 773.872 370.450   9
   4  -2  -2 2621.72 585.077  15
   4  -2  -2 1979.04 540.680   4
   4   2  -2 2305.95 561.100   4
   4  -2  -2 2418.05 622.860   9
   4   2  -2 2903.81 714.483   9
   4  -2  -1 37171.2 2150.31   4
   4   2  -1 35889.9 2104.96   4
   4  -2  -1 38986.1 2467.29   9
   4   2  -1 34096.9 2386.37   9
   4  -2   0 72.0713 181.023   4
   4   2   0 104.099 259.876   4
   4  -2   0-68.7282 341.079   9
   4   2   0-185.270 374.789   9
   4  -2   1 182.441 277.588   4
   4   2   1 808.141 352.743   4
   4  -2   1-115.469 313.587   9
   4   2   1 30.5128 344.949   9
   4   2   2 23491.8 1171.61   6
   4  -2   2 24079.9 1893.62   9
   4   2   2 23458.9 1999.11   9
   4  -2   2 24493.3 1739.24   4
   4   2   2 22754.0 1628.24   4
   4   2   3 13848.0 882.428   6
   4  -2   3 13487.6 1310.67   9
   4   2   3 13581.8 1402.72   9
   4  -2   3 14154.4 1367.61   4
   4   2   3 12657.5 1221.09   4
   4   2   4 319.974 162.440   6
   4   2   4 318.338 246.310   9
   4   2   5 13112.6 726.501   6
   4   3  -8 5022.69 515.326   4
   4   3  -7 439.356 148.228   7
   4   3  -7 319.881 222.205   4
   4  -3  -6-2.16104 150.174   4
   4   3  -6 170.294 115.650   7
   4   3  -6 110.897 201.260   4
   4  -3  -5 8423.36 992.064   4
   4   3  -5 9781.71 1098.49   4
   4   3  -5 9057.32 682.419   7
   4  -3  -4 23743.3 1719.19   4
   4   3  -4 22753.6 1716.37   4
   4   3  -4 21249.6 1055.10   7
   4  -3  -3 2796.05 610.546  15
   4  -3  -3 2407.72 556.387   4
   4   3  -3 3147.36 657.386   4
   4   3  -2 3393.73 671.788   4
   4  -3  -2 2285.74 517.423  15
   4  -3  -2 2100.49 532.241   4
   4  -3  -2 2733.13 652.014   9
   4   3  -2 2325.18 628.541   9
   4  -3  -1 9083.83 1054.12   4
   4   3  -1 8076.37 990.716   4
   4  -3  -1 7284.44 913.381  15
   4  -3  -1 9065.19 1186.87   9
   4   3  -1 7592.13 1150.36   9
   4  -3   0 1429.46 499.473  15
   4  -3   0 971.536 394.635   4
   4   3   0 611.692 318.598   4
   4  -3   0 1044.39 425.996   9
   4   3   0 693.418 379.236   9
   4  -3   1 7967.66 1124.48   9
   4   3   1 8732.19 1256.56   9
   4  -3   1 7302.79 955.274   4
   4   3   1 7985.89 980.310   4
   4   3   2 61142.9 1924.12   6
   4  -3   2 67395.3 3099.83   9
   4   3   2 57541.1 3160.29   9
   4  -3   2 61932.2 2738.15   4
   4   3   2 60083.4 2622.14   4
   4   3   3 17308.6 985.170   6
   4  -3   3 18682.6 1498.20   9
   4   3   3 14373.2 1457.56   9
   4   3   3 15222.4 1314.11   4
   4   3   4 940.133 257.605   6
   4   3   4 294.968 209.746   9
   4   3   5 2742.80 333.847   6
   4   4  -8 112.071 96.2498   4
   4   4  -7 1253.01 218.400   7
   4   4  -7 1159.26 307.368   4
   4   4  -6 891.619 214.420   7
   4   4  -6 711.175 310.460   4
   4   4  -5 37534.9 2098.95   4
   4   4  -5 37294.0 1370.12   7
   4   4  -4 1968.12 336.608   7
   4  -4  -4 1965.38 522.359   4
   4   4  -4 2743.74 640.935   4
   4  -4  -3 16370.2 1395.80   4
   4   4  -3 15931.2 1430.85   4
   4  -4  -3 16199.7 1377.99  15
   4   4  -3 14479.8 878.145   7
   4   4  -2 3146.15 654.398   4
   4  -4  -2 3426.75 648.845  15
   4  -4  -2 2810.52 602.837   4
   4   4  -2 2331.52 646.124   9
   4   4  -1 4551.02 757.194   4
   4  -4  -1 4351.44 735.076  15
   4  -4  -1 5438.24 925.724   9
   4   4  -1 4253.51 915.249   9
   4  -4  -1 4961.59 793.814   4
   4   4   0 3343.67 635.230   4
   4  -4   0 2603.50 591.704  15
   4  -4   0 3793.05 776.984   9
   4   4   0 3615.82 893.306   9
   4  -4   0 3141.45 662.516   4
   4  -4   1 2772.05 606.811  15
   4   4   1 4414.51 517.742   6
   4  -4   1 5332.46 914.499   9
   4   4   1 3425.99 816.107   9
   4  -4   1 4039.23 731.321   4
   4   4   1 3941.10 673.073   4
   4  -4   2 1690.45 498.790  15
   4  -4   2 1686.86 541.648   4
   4   4   2 1592.98 449.228   4
   4   4   2 1984.44 386.536   6
   4  -4   2 1934.30 588.245   9
   4   4   2 1608.58 572.763   9
   4   4   3 120.604 186.306   6
   4   4   3 366.928 305.776   9
   4   4   3 178.125 388.072   4
   4   4   4-4.18073 122.584   6
   4   4   4 119.423 173.476   9
   4   4   5 639.558 177.829   6
   4   5  -7-74.4234 99.7612   7
   4   5  -7-132.282 156.964   4
   4   5  -6 2623.26 349.026   7
   4   5  -6 2552.92 498.285   4
   4   5  -5 291.963 150.195   7
   4   5  -5 77.1744 234.277   4
   4   5  -4 3300.01 671.896   4
   4   5  -4 2586.93 387.062   7
   4  -5  -3 255.249 306.391  15
   4   5  -3-97.3069 152.742   8
   4   5  -3-114.664 271.925   4
   4   5  -3 39.2488 131.833   7
   4  -5  -2-35.9179 239.754  15
   4   5  -2 576.469 196.550   8
   4   5  -2 876.916 385.220   4
   4   5  -2 167.673 111.460   7
   4   5  -2 739.563 402.113   9
   4  -5  -1 1118.31 420.903  15
   4   5  -1 1020.95 236.903   8
   4  -5  -1 432.098 251.981   4
   4   5  -1 1173.70 396.902   4
   4   5  -1 496.592 344.198   9
   4   5   0 13193.4 1233.79   4
   4   5   0 11932.6 795.376   8
   4  -5   0 12058.9 1197.14  15
   4   5   0 12289.3 1515.81   9
   4  -5   0 14915.4 1334.73   4
   4  -5   1 656.411 290.769  15
   4   5   1 695.282 232.433   8
   4  -5   1 667.283 338.694   4
   4   5   1 1066.04 360.888   4
   4   5   1 855.909 246.041   6
   4   5   1 757.792 435.050   9
   4   5   2 9532.27 695.513   8
   4   5   2 10360.0 776.294   6
   4   5   2 9719.17 1290.51   9
   4  -5   2 8982.58 1175.73   4
   4   5   2 7012.42 838.404   4
  -4  -5  -2 9091.77 818.847  16
   4  -5   3-91.4441 348.117  15
   4   5   3 17.8869 135.124   6
   4   5   3-42.7518 249.734   9
   4   5   4 298.044 172.385   6
   4   5   4 163.505 202.252   9
   4   5   5 4000.68 366.345   6
   4   6  -7 914.189 173.337   7
   4   6  -7 886.480 241.818   4
   4   6  -6 6379.73 736.488   4
   4   6  -6 5743.99 442.065   8
   4   6  -6 6930.00 529.563   7
   4   6  -5 10517.2 1027.22   4
   4   6  -5 12380.5 760.760   7
   4   6  -4 1124.29 255.394   8
   4   6  -4 821.736 226.330   7
   4   6  -4 667.090 325.265   4
   4  -6  -3 1221.76 449.712  15
   4   6  -3 1295.05 280.633   8
   4   6  -3 1554.28 313.165   7
   4   6  -3 1633.56 480.793   4
   4   6  -2 5847.63 840.650   4
   4  -6  -2 6690.33 862.805  15
   4   6  -2 5845.61 561.713   8
   4   6  -2 5368.28 915.277   9
   4   6  -1 2609.11 378.551   8
   4  -6  -1 3272.79 663.487  15
   4   6  -1 2648.27 534.586   4
   4   6  -1 2836.09 742.932   9
   4  -6   0 1871.97 538.328  15
   4   6   0 1697.83 318.280   8
   4   6   0 1676.40 414.795   4
   4   6   0 1849.42 583.310   9
   4   6   1 2601.26 395.461   8
   4  -6   1 2373.68 565.401  15
   4  -6   1 3035.62 645.163   4
   4   6   1 3184.03 826.194   9
   4   6   1 3671.21 628.691   4
   4   6   2 4161.34 456.843   8
   4  -6   2 2551.28 599.569  15
   4   6   2 3169.08 563.869   4
   4   6   2 4402.05 490.364   6
   4   6   2 2869.07 732.071   9
  -4  -6  -2 3531.48 521.987  16
   4   6   3 109.469 101.125   8
  -4  -6  -3 406.305 152.313  16
   4  -6   3-139.504 218.227  15
   4   6   3 84.3342 122.407   6
   4   6   3-437.686 286.518   9
   4   6   4-116.825 150.116   6
   4   6   4-457.677 229.204   9
   4   6   5 599.043 145.748   6
   4   7  -7 111.617 60.8123   7
   4   7  -6 2762.44 451.290   4
   4   7  -6 2800.42 293.574   8
   4   7  -6 3571.99 365.196   7
   4   7  -5 3745.15 576.558   4
   4   7  -5 3810.38 389.180   8
   4   7  -5 4643.97 459.701   7
   4   7  -4 4614.16 669.544   4
   4   7  -4 4305.33 447.208   8
   4   7  -4 4386.39 473.135   7
   4  -7  -3 309.888 284.965  15
   4   7  -3 773.135 223.788   8
   4   7  -3 727.593 223.097   4
   4   7  -3 995.432 251.766   7
   4  -7  -2 3736.56 710.054  15
   4   7  -2 3896.32 455.810   8
   4   7  -2 1398.89 410.672   4
   4   7  -2 1555.37 536.966   9
   4  -7  -1 589.269 404.990  15
   4   7  -1 166.507 130.255   8
   4   7  -1 114.023 180.255   4
   4   7  -1 660.246 455.798   9
   4  -7   0-353.521 393.398  15
   4   7   0-43.8048 135.533   8
   4   7   0 192.473 279.564   9
   4   7   1 2762.83 382.972   8
   4  -7   1 2319.38 609.872  15
   4   7   1 1932.12 666.150   9
   4   7   2 4190.13 455.668   8
   4  -7   2 3223.70 679.725  15
   4   7   2 4633.17 506.097   6
   4   7   2 3108.07 726.676   9
  -4  -7  -2 3260.48 503.944  16
   4   7   3 2089.80 304.264   8
  -4  -7  -3 1274.27 295.495  16
   4  -7   3 1767.79 487.745  15
   4   7   3 2612.58 357.844   6
   4   7   3 1212.83 419.214   9
   4   7   4-21.0968 106.602   6
   4   7   4-178.570 154.977   9
   4   8  -6 333.034 111.608   8
   4   8  -6 191.334 133.420   4
   4   8  -5 105.423 106.493   8
   4   8  -5 155.345 146.823   4
   4   8  -5 443.348 169.638   7
   4   8  -4 293.796 129.354   8
   4   8  -4 306.212 134.092   4
   4   8  -4 195.235 147.379   7
   4   8  -3 5189.02 691.103   4
   4   8  -3 6290.96 551.576   8
   4  -8  -2 177.636 272.914  15
   4   8  -2 169.716 125.879   8
   4   8  -2 55.6142 255.310   9
   4  -8  -1 7928.21 964.359  15
   4   8  -1 7758.47 622.723   8
   4  -8   0-63.5838 274.526  15
   4   8   0 68.7873 131.406   8
   4   8   0 36.3947 280.220   9
  -4  -8  -1 748.980 319.917  16
   4  -8   1 796.218 389.884  15
   4   8   1 1272.08 257.258   8
   4   8   1 598.253 352.376   9
   4   8   2 4041.00 434.194   8
   4  -8   2 4413.86 694.838  15
   4   8   2 4464.00 470.663   6
   4   8   2 3269.77 654.936   9
  -4  -8  -2 3941.70 538.253  16
   4   8   3 1891.56 276.637   8
  -4  -8  -3 1353.76 267.727  16
   4  -8   3 1914.40 463.105  15
   4   8   3 2111.21 311.895   6
   4   8   3 950.392 317.853   9
   4  -8   4 861.835 255.824  15
   4   8   4 1319.32 214.409   6
   4   9  -5-5.76097 91.8354   8
   4   9  -4 11.7570 117.937   8
   4   9  -3 1964.02 314.001   8
   4  -9  -3 2462.43 518.061  15
   4  -9  -2 22678.2 1492.38  15
   4   9  -2 19667.6 942.355   8
   4  -9  -1 457.606 325.704  15
   4   9  -1 494.317 182.367   8
   4   9  -1 225.173 248.373   9
   4  -9   0 1355.88 450.234  15
   4   9   0 1564.22 296.300   8
   4   9   0 1303.02 490.401   9
  -4  -9  -1 36.6435 169.180  16
   4  -9   1-85.7683 277.638  15
   4   9   1-11.2225 109.102   8
   4   9   1 131.604 240.043   9
  -4  -9  -2-33.5502 145.898  16
   4   9   2 114.022 106.014   8
   4  -9   2-119.966 258.865  15
   4   9   2 220.688 172.479   6
   4   9   2 232.113 282.515   9
  -4  -9  -3 54.7296 116.444  16
   4  -9   3 410.883 240.463  15
   4   9   3 126.373 103.108   6
   4   9   3 36.3719 123.421   9
   4   9   4 437.964 115.854   6
   4  10  -5 3612.32 301.892   8
   4  10  -4 2919.36 318.058   8
   4 -10  -3 384.762 260.438  15
   4  10  -3 91.6666 107.186   8
   4 -10  -2 19204.1 1273.67  15
   4  10  -2 16449.1 823.042   8
   4 -10  -1 30482.5 1668.06  15
   4  10  -1 25700.9 1024.35   8
  -4 -10   0 854.174 294.949  16
   4 -10   0 1603.45 446.018  15
   4  10   0 1583.71 269.670   8
   4  10   0 459.231 247.396   9
  -4 -10  -1 105.983 169.617  16
   4 -10   1-209.626 305.093  15
   4  10   1-251.786 157.784   8
   4  10   1-11.1667 210.603   9
   4  10   2 1329.60 231.306   8
  -4 -10  -2 974.880 240.834  16
   4 -10   2 1646.15 417.957  15
   4  10   2 1337.37 230.191   6
   4  10   2 459.204 243.944   9
  -4 -10  -3 554.873 174.241  16
   4 -10   3 834.937 270.047  15
   4  10   3 1014.81 184.771   6
   4  10   3 246.845 184.623   9
   4  11  -4 3713.29 311.414   8
   4  11  -3 539.462 158.790   8
   4  11  -2 10586.9 603.722   8
  -4 -11   2 10865.4 765.960  16
   4  11  -1 6246.22 468.573   8
  -4 -11   1 5841.07 590.821  16
  -4 -11   0 939.095 259.910  16
   4 -11   0 831.914 327.147  15
   4  11   0 783.762 191.824   8
   4  11   0 399.948 250.660   9
  -4 -11  -1 214.825 146.045  16
   4 -11   1 347.426 233.164  15
   4  11   1 409.822 133.151   8
   4  11   1 249.534 140.449   6
   4  11   1 316.532 209.546   9
   4  11   2 9414.79 490.474   8
   4 -11   2 9433.93 749.310  15
   4  11   2 9671.63 520.628   6
   4  11   2 8236.91 773.007   9
  -4 -11  -2 9318.38 620.015  16
   4  12  -3 1076.84 157.812   8
   4  12  -2 6110.46 402.741   8
  -4 -12   2 4141.65 417.637  16
   4  12  -1 8862.97 493.660   8
   4 -12  -1 9823.94 775.061  15
  -4 -12   1 9072.86 634.224  16
  -4 -12   0 1352.40 253.336  16
   4  12   0 1478.81 210.959   8
   4 -12   0 1682.30 321.285  15
   4  12   0 752.809 249.584   9
  -4 -12  -1-18.3066 97.1374  16
   4 -12   1 49.7576 139.407  15
   4  12   1 161.038 93.4687   8
   4  12   1 89.5768 80.8523   6
   4  12   1 386.206 198.761   9
   5   0  -5 156.421 169.362   4
   5   0  -4 14400.2 1102.63   4
   5   0  -3-23.6205 189.366   4
   5   0  -2 7539.48 860.185   4
   5   0  -2 8186.49 897.293   9
   5   0  -1 115.984 226.301   4
   5   0  -1-120.996 239.952   9
   5   0   0 259.552 232.086   4
   5   0   0 356.783 261.412   9
   5   0   1 1677.52 541.893   4
   5   0   1 1059.56 385.531   9
   5   0   2 78020.6 2520.46   9
   5   1  -6 405.172 158.643   4
   5  -1  -5 53312.2 1878.44   4
   5   1  -5 50742.2 1884.39   4
   5  -1  -4 320.969 245.561   4
   5   1  -4 393.535 239.773   4
   5  -1  -3 2934.73 532.028   4
   5   1  -3 2483.27 494.327   4
   5  -1  -2 1399.79 404.833   4
   5   1  -2 1315.85 413.780   4
   5   1  -2 1206.76 361.843   9
   5  -1  -1 1507.44 404.162   4
   5   1  -1 844.732 304.947   4
   5  -1  -1 938.744 331.282   9
   5   1  -1 646.821 265.800   9
   5  -1   0 96.3734 201.201   4
   5   1   0-6.01385 195.488   4
   5  -1   0 150.258 204.386   9
   5   1   0 136.326 219.927   9
   5  -1   1 41335.2 2003.71   9
   5   1   1 38232.2 1928.01   9
   5  -1   1 38402.2 1832.70   4
   5   1   1 38170.4 1812.38   4
   5   1   2 1090.71 351.814   9
   5   1   2 6315.73 908.258   4
   5   2  -6 3275.96 398.216   4
   5  -2  -5 556.168 201.425   4
   5   2  -5 286.146 167.232   4
   5  -2  -4 1010.26 305.692   4
   5   2  -4 790.937 290.674   4
   5  -2  -3 1176.28 362.709   4
   5   2  -3 994.518 345.377   4
   5  -2  -2 1074.17 353.079   4
   5   2  -2 588.196 282.959   4
   5   2  -2 617.356 250.080   9
   5  -2  -1 1027.41 337.776   4
   5   2  -1 928.449 339.473   4
   5   2  -1 1222.03 391.984   9
   5  -2   0 170.055 196.910   4
   5   2   0 577.734 297.592   4
   5  -2   0 88.6615 219.870   9
   5   2   0 722.500 331.711   9
   5  -2   1 2247.44 466.447   4
   5   2   1 1828.39 424.151   4
   5   2   1 1719.14 430.522   9
   5   2   2 12161.1 974.618   9
   5   2   3 130.004 90.3931   9
   5   3  -5 1237.71 274.830   4
   5  -3  -4 732.961 239.897   4
   5   3  -4 580.336 241.330   4
   5  -3  -3 477.263 266.844   4
   5   3  -3 544.083 233.722   4
   5  -3  -2 17.3726 177.174   4
   5   3  -2-107.559 220.768   4
   5   3  -2 264.129 222.018   9
   5   3  -1 9855.82 1008.35   9
   5  -3  -1 12320.2 1059.81   4
   5   3  -1 13068.2 1069.83   4
   5  -3   0 146.850 161.641   4
   5   3   0 241.319 205.026   4
   5   3   0 67.3505 230.672   9
   5  -3   1 146.723 316.647   4
   5   3   1 195.964 168.806   4
   5   3   1-75.4186 210.209   9
   5   3   2 59.2434 152.243   9
   5   4  -5 3662.96 466.608   4
   5   4  -4 537.749 216.532   4
   5   4  -3 61.3763 164.997   4
   5   4  -2 20043.6 1274.53   4
   5  -4  -2 19195.4 1234.77   4
   5  -4  -1-4.49524 147.295   4
   5   4  -1 182.998 147.950   4
   5   4  -1 212.694 242.789   9
   5  -4   0-23.8105 193.721   4
   5   4   0 334.362 205.272   4
   5   4   0 65.0898 207.435   9
   5   4   1 186.203 153.980   4
   5   4   1 344.418 219.735   9
   5   4   2 293.194 158.841   9
   5   5  -5 1315.60 258.149   4
   5   5  -4 117.673 117.178   4
   5   5  -3 84.7312 159.011   4
   5   5  -2 1190.94 299.121   9
   5   5  -2 2203.51 416.166   4
   5   5  -1 3763.06 590.756   9
   5   5  -1 4087.57 558.568   4
  -5  -5   0-63.4605 114.482  16
   5   5   0 205.473 142.019   4
   5   5   0-70.3061 213.907   9
   5   5   1 285.071 230.163   4
   5   5   1 11.3308 148.662   9
   5   5   2 281.799 160.190   9
   5   6  -4 890.876 216.806   4
   5   6  -3 52.9785 107.297   4
   5   6  -2 4943.72 559.180   4
   5   6  -1 293.980 159.712   4
   5   6  -1-34.1791 182.599   9
  -5  -6   0 738.911 192.377  16
   5   6   0 548.352 193.280   4
   5   6   0 842.640 289.351   9
   5   6   1 557.119 206.605   9
   5   6   2 716.666 201.794   9
   5   7  -1-47.3563 109.410   9
  -5  -7   0-215.837 107.102  16
   5   7   0-56.7329 105.387   9
   5   7   1 164.306 140.116   9
  -5  -8   1-40.6544 90.1568  16
   0   0   0    0.00    0.00   0
TITL exp_1824 in P2(1)/m
REM P2(1)/m (#11 in standard setting)
CELL 1.54184   4.585553  14.228136   8.331169  90.0000  98.5151  90.0000
ZERR    2.00   0.000258   0.000861   0.000367   0.0000   0.0048   0.0000
LATT  1
SYMM -x, y+1/2,-z
SFAC C H O
UNIT 24.00 32.00 6.00
TREF
HKLF 4
END
;
_shelx_hkl_checksum              12391
_shelx_res_file
;
    shelx.res created by SHELXL-2014/7
TITL RAV1 in P2(1)/m
REM TITL shelxt_a.res in P2(1)/c
REM SHELXT solution in P2(1)/c
REM R1 0.251,  Rweak 0.284,  Alpha 0.036,  Orientation as input
REM Formula found by SHELXT:  C6 O
CELL  1.54184   4.5856  14.2281   8.3312   90.000   98.515   90.000
ZERR    2.000   0.0003   0.0009   0.0004    0.000    0.005    0.000
LATT  1
SYMM -X, 1/2+Y, 1/2-Z
SFAC C H O
UNIT 24.00 32.00 6.00
TEMP -173
SIZE 0.4222 0.1311 0.0590
L.S. 10
BOND $H
ACTA
LIST 6
FMAP 2
PLAN 5
MPLA 3 C1 C2 C3 C31B C21A
MPLA C1 O1 C11
EQIV $1 1+x,y,z
EQIV $2 2-x,1-y,2-z
EQIV $3 2-x,-1/2+y,1.5-z
HTAB C21A O1_$1
HTAB C11 O2_$2
HTAB C11 O3_$3
WGHT    0.076300    0.496700
FVAR      15.84464
C11   1    0.605093    0.345100    0.841968    11.00000    0.04972    0.04570 =
         0.03558    0.01117    0.00774    0.00750
AFIX 137
H11A  2    0.578332    0.292910    0.764419    11.00000   -1.50000
H11B  2    0.570607    0.322863    0.948894    11.00000   -1.50000
H11C  2    0.806716    0.369323    0.849461    11.00000   -1.50000
AFIX   0
O1    3    0.398827    0.418869    0.787791    11.00000    0.04425    0.04673 =
         0.02920    0.00738    0.01049    0.00744
C1    1    0.452459    0.459028    0.643095    11.00000    0.03174    0.03600 =
         0.02521    0.00458    0.00533    0.00838
C2    1    0.650367    0.533950    0.649244    11.00000    0.02994    0.03509 =
         0.02526   -0.00334    0.00052    0.00776
PART 1
C21A  1    0.803855    0.569983    0.814390    10.75000    0.05781    0.05602 =
         0.02229   -0.00971   -0.00668    0.00701
AFIX 137
H21A  2    0.714599    0.540344    0.901531    10.75000   -1.50000
H21B  2    0.780717    0.638333    0.819752    10.75000   -1.50000
H21C  2    1.014072    0.554235    0.827140    10.75000   -1.50000
AFIX   0
PART 2
C21B  1    0.794293    0.567536    0.796022    10.25000    0.01610    0.02644 =
         0.03681    0.00022    0.00851    0.00727
AFIX  43
H21D  2    0.757253    0.534320    0.889845    10.25000   -1.20000
AFIX   0
O2    3    0.965239    0.635333    0.820912    10.25000    0.08290    0.05691 =
         0.05447   -0.02058   -0.01809   -0.01642
PART 0
C3    1    0.699417    0.575943    0.503344    11.00000    0.02737    0.03235 =
         0.03221   -0.00214    0.00338    0.00568
PART 3
C31A  1    0.918987    0.657658    0.499371    10.75000    0.03331    0.03940 =
         0.05988    0.00239    0.01233   -0.00254
AFIX 137
H31A  2    0.857527    0.710981    0.560880    10.75000   -1.50000
H31B  2    0.922573    0.676753    0.386661    10.75000   -1.50000
H31C  2    1.116443    0.637187    0.548047    10.75000   -1.50000
AFIX   0
PART 4
C31B  1    0.890798    0.649418    0.502007    10.25000    0.02565    0.03445 =
         0.01978    0.00218   -0.00153    0.01415
AFIX  43
H31D  2    0.895237    0.677832    0.399208    10.25000   -1.20000
AFIX   0
O3    3    1.052680    0.682626    0.612228    10.25000    0.05287    0.06233 =
         0.07253   -0.01667    0.00366   -0.02921
PART 0
HKLF 4
REM  RAV1 in P2(1)/m
REM R1 =  0.0648 for     907 Fo > 4sig(Fo)  and  0.0720 for all    1068 data
REM    103 parameters refined using      0 restraints
END
WGHT      0.0714      0.5042
REM Highest difference peak  0.221,  deepest hole -0.241,  1-sigma level  0.057
Q1    1   0.6526  0.4670  0.6472  11.00000  0.05    0.22
Q2    1   0.9431  0.6990  0.3765  11.00000  0.05    0.22
Q3    1   1.3148  0.6580  0.6949  11.00000  0.05    0.18
Q4    1   1.1572  0.5762  0.5418  11.00000  0.05    0.17
Q5    1   0.9013  0.5803  0.5044  11.00000  0.05    0.16
;
_shelx_res_checksum              49193
loop_
_space_group_symop_operation_xyz
'x, y, z'
'-x, y+1/2, -z+1/2'
'-x, -y, -z'
'x, -y-1/2, z-1/2'
loop_
_atom_site_type_symbol
_atom_site_label
_atom_site_fract_x
_atom_site_fract_y
_atom_site_fract_z
_atom_site_U_iso_or_equiv
_atom_site_adp_type
_atom_site_calc_flag
_atom_site_occupancy
_atom_site_disorder_assembly
_atom_site_disorder_group
C C11 0.6051(6) 0.3451(2) 0.8420(3) 0.0435(7) Uani d 1 . .
H H11A 0.5783 0.2929 0.7644 0.065 Uiso calc 1 . .
H H11B 0.5706 0.3229 0.9489 0.065 Uiso calc 1 . .
H H11C 0.8067 0.3693 0.8495 0.065 Uiso calc 1 . .
O O1 0.3988(4) 0.41887(13) 0.7878(2) 0.0396(5) Uani d 1 . .
C C1 0.4525(5) 0.45903(17) 0.6431(3) 0.0309(6) Uani d 1 . .
C C2 0.6504(5) 0.53395(17) 0.6492(3) 0.0305(6) Uani d 1 . .
C C21A 0.804(3) 0.5700(11) 0.8144(17) 0.047(4) Uani d 0.75 A 1
H H21A 0.7146 0.5403 0.9015 0.070 Uiso calc 0.75 A 1
H H21B 0.7807 0.6383 0.8198 0.070 Uiso calc 0.75 A 1
H H21C 1.0141 0.5542 0.8271 0.070 Uiso calc 0.75 A 1
C C21B 0.794(5) 0.568(2) 0.796(5) 0.026(6) Uani d 0.25 A 2
H H21D 0.7573 0.5343 0.8898 0.031 Uiso calc 0.25 A 2
O O2 0.965(3) 0.6353(7) 0.8209(11) 0.068(3) Uani d 0.25 A 2
C C3 0.6994(5) 0.57594(16) 0.5033(3) 0.0307(6) Uani d 1 . .
C C31A 0.919(4) 0.6577(13) 0.4994(19) 0.044(4) Uani d 0.75 B 3
H H31A 0.8575 0.7110 0.5609 0.065 Uiso calc 0.75 B 3
H H31B 0.9226 0.6768 0.3867 0.065 Uiso calc 0.75 B 3
H H31C 1.1164 0.6372 0.5480 0.065 Uiso calc 0.75 B 3
C C31B 0.891(11) 0.649(3) 0.502(3) 0.027(6) Uani d 0.25 B 4
H H31D 0.8952 0.6778 0.3992 0.033 Uiso calc 0.25 B 4
O O3 1.053(2) 0.6826(7) 0.6122(13) 0.063(2) Uani d 0.25 B 4
loop_
_atom_site_aniso_label
_atom_site_aniso_U_11
_atom_site_aniso_U_22
_atom_site_aniso_U_33
_atom_site_aniso_U_12
_atom_site_aniso_U_13
_atom_site_aniso_U_23
C11 0.0497(16) 0.0457(15) 0.0356(14) 0.0075(12) 0.0077(12) 0.0112(11)
O1 0.0443(10) 0.0467(11) 0.0292(9) 0.0074(8) 0.0105(7) 0.0074(7)
C1 0.0317(12) 0.0360(13) 0.0252(11) 0.0084(9) 0.0053(9) 0.0046(9)
C2 0.0299(12) 0.0351(13) 0.0253(11) 0.0078(9) 0.0005(9) -0.0033(9)
C21A 0.058(6) 0.056(6) 0.022(3) 0.007(4) -0.007(3) -0.010(3)
C21B 0.016(9) 0.026(12) 0.037(13) 0.007(7) 0.009(8) 0.000(8)
O2 0.083(7) 0.057(6) 0.054(5) -0.016(5) -0.018(5) -0.021(4)
C3 0.0274(11) 0.0323(12) 0.0322(12) 0.0057(9) 0.0034(9) -0.0021(9)
C31A 0.033(5) 0.039(5) 0.060(7) -0.003(3) 0.012(4) 0.002(4)
C31B 0.026(12) 0.034(14) 0.020(11) 0.014(11) -0.002(8) 0.002(8)
O3 0.053(5) 0.062(6) 0.073(6) -0.029(4) 0.004(5) -0.017(5)
loop_
_atom_type_symbol
_atom_type_description
_atom_type_scat_dispersion_real
_atom_type_scat_dispersion_imag
_atom_type_scat_source
C C 0.0181 0.0091 'International Tables Vol C Tables 4.2.6.8 and 6.1.1.4'
H H 0.0000 0.0000 'International Tables Vol C Tables 4.2.6.8 and 6.1.1.4'
O O 0.0492 0.0322 'International Tables Vol C Tables 4.2.6.8 and 6.1.1.4'
loop_
_geom_angle_atom_site_label_1
_geom_angle_atom_site_label_2
_geom_angle_atom_site_label_3
_geom_angle_site_symmetry_1
_geom_angle_site_symmetry_3
_geom_angle
O1 C11 H11A . . 109.5
O1 C11 H11B . . 109.5
H11A C11 H11B . . 109.5
O1 C11 H11C . . 109.5
H11A C11 H11C . . 109.5
H11B C11 H11C . . 109.5
C1 O1 C11 . . 112.30(18)
O1 C1 C2 . . 118.7(2)
O1 C1 C3 . 3_666 118.7(2)
C2 C1 C3 . 3_666 122.6(2)
C21B C2 C1 . . 121.2(12)
C21B C2 C3 . . 120.1(12)
C1 C2 C3 . . 118.7(2)
C1 C2 C21A . . 119.8(6)
C3 C2 C21A . . 121.5(6)
C2 C21A H21A . . 109.5
C2 C21A H21B . . 109.5
H21A C21A H21B . . 109.5
C2 C21A H21C . . 109.5
H21A C21A H21C . . 109.5
H21B C21A H21C . . 109.5
O2 C21B C2 . . 128(3)
O2 C21B H21D . . 115.8
C2 C21B H21D . . 115.8
C31B C3 C2 . . 121.3(12)
C31B C3 C1 . 3_666 120.1(12)
C2 C3 C1 . 3_666 118.7(2)
C2 C3 C31A . . 121.9(6)
C1 C3 C31A 3_666 . 119.4(6)
C3 C31A H31A . . 109.5
C3 C31A H31B . . 109.5
H31A C31A H31B . . 109.5
C3 C31A H31C . . 109.5
H31A C31A H31C . . 109.5
H31B C31A H31C . . 109.5
O3 C31B C3 . . 129(3)
O3 C31B H31D . . 115.6
C3 C31B H31D . . 115.6
loop_
_geom_bond_atom_site_label_1
_geom_bond_atom_site_label_2
_geom_bond_site_symmetry_2
_geom_bond_distance
C11 O1 . 1.440(3)
C11 H11A . 0.9800
C11 H11B . 0.9800
C11 H11C . 0.9800
O1 C1 . 1.389(3)
C1 C2 . 1.396(4)
C1 C3 3_666 1.403(3)
C2 C21B . 1.39(4)
C2 C3 . 1.402(3)
C2 C21A . 1.538(15)
C21A H21A . 0.9800
C21A H21B . 0.9800
C21A H21C . 0.9800
C21B O2 . 1.24(4)
C21B H21D . 0.9500
C3 C31B . 1.37(6)
C3 C1 3_666 1.403(3)
C3 C31A . 1.54(2)
C31A H31A . 0.9800
C31A H31B . 0.9800
C31A H31C . 0.9800
C31B O3 . 1.19(5)
C31B H31D . 0.9500
loop_
_geom_hbond_atom_site_label_D
_geom_hbond_atom_site_label_H
_geom_hbond_atom_site_label_A
_geom_hbond_site_symmetry_A
_geom_hbond_distance_DH
_geom_hbond_distance_HA
_geom_hbond_distance_DA
_geom_hbond_angle_DHA
C21A H21C O1 1_655 0.98 2.66 3.506(15) 144.1
C11 H11B O2 3_767 0.98 2.71 3.195(9) 111
C11 H11A O3 2_746 0.98 2.42 2.788(9) 102
C31A H31C Cg1 1_655 0.98 2.71 3.48(2) 138
C31A H31C Cg1 3_766 0.98 2.71 3.48(2) 138

_cod_database_fobs_code 1542755
