#------------------------------------------------------------------------------
#$Date: 2016-05-04 19:06:49 +0300 (Wed, 04 May 2016) $
#$Revision: 182508 $
#$URL: svn://www.crystallography.net/cod/cif/1/54/29/1542970.cif $
#------------------------------------------------------------------------------
#
# This file is available in the Crystallography Open Database (COD),
# http://www.crystallography.net/
#
# All data on this site have been placed in the public domain by the
# contributors.
#
data_1542970
loop_
_publ_author_name
'Zhang, Weifeng'
'Shi, Keli'
'Huang, Jianyao'
'Gao, Dong'
'Mao, Zupan'
'Li, Dizao'
'Yu, Gui'
_publ_section_title
;
 Fluorodiphenylethene-Containing Donor--Acceptor Conjugated Copolymers
 with Noncovalent Conformational Locks for Efficient Polymer Field-Effect
 Transistors
;
_journal_issue                   7
_journal_name_full               Macromolecules
_journal_page_first              2582
_journal_paper_doi               10.1021/acs.macromol.6b00144
_journal_volume                  49
_journal_year                    2016
_chemical_formula_moiety         'C14 H8 Br2 F2'
_chemical_formula_sum            'C14 H8 Br2 F2'
_chemical_formula_weight         374.02
_chemical_name_systematic
;
 ?
;
_space_group_crystal_system      triclinic
_space_group_IT_number           2
_space_group_name_Hall           '-P 1'
_space_group_name_H-M_alt        'P -1'
_symmetry_space_group_name_Hall  '-P 1'
_symmetry_space_group_name_H-M   'P -1'
_atom_sites_solution_hydrogens   geom
_audit_creation_date             2014-06-09
_audit_creation_method
;
Olex2 1.2
(compiled 2013.12.10 svn.r2850 for OlexSys, GUI svn.r4736)
;
_cell_angle_alpha                79.090(13)
_cell_angle_beta                 87.090(15)
_cell_angle_gamma                85.960(14)
_cell_formula_units_Z            1
_cell_length_a                   4.037(2)
_cell_length_b                   5.968(3)
_cell_length_c                   13.092(6)
_cell_measurement_reflns_used    1247
_cell_measurement_temperature    173.1500
_cell_measurement_theta_max      27.4593
_cell_measurement_theta_min      3.1717
_cell_volume                     308.7(3)
_computing_cell_refinement       'CrystalClear (Rigaku Inc., 2007)'
_computing_data_collection       'CrystalClear (Rigaku Inc., 2007)'
_computing_data_reduction        'CrystalClear (Rigaku Inc., 2007)'
_computing_molecular_graphics    'Olex2 (Dolomanov et al., 2009)'
_computing_publication_material  'Olex2 (Dolomanov et al., 2009)'
_computing_structure_refinement  'SHELXL (Sheldrick, 2013)'
_computing_structure_solution
;
'SHELXS (Sheldrick, 2013)'
;
_diffrn_ambient_temperature      173.1500
_diffrn_detector_area_resol_mean 28.5714
_diffrn_measured_fraction_theta_full 0.997
_diffrn_measured_fraction_theta_max 0.997
_diffrn_measurement_device
;
Saturn724 (2x2 bin mode)
;
_diffrn_measurement_device_details
;
AFC10: Fixed Chi 2 circle
;
_diffrn_measurement_device_type  'Saturn724+ CCD'
_diffrn_measurement_method       '\w scans at fixed \c = 45\%'
_diffrn_orient_matrix_type       d*Trek
_diffrn_orient_matrix_UB_11      0.0031
_diffrn_orient_matrix_UB_12      0.1658
_diffrn_orient_matrix_UB_13      0.1851
_diffrn_orient_matrix_UB_21      0.1542
_diffrn_orient_matrix_UB_22      -0.0626
_diffrn_orient_matrix_UB_23      0.0392
_diffrn_orient_matrix_UB_31      0.0192
_diffrn_orient_matrix_UB_32      0.0540
_diffrn_orient_matrix_UB_33      -0.0527
_diffrn_radiation_detector       CCD
_diffrn_radiation_monochromator  'Graphite Monochromator'
_diffrn_radiation_type           MoK\a
_diffrn_radiation_wavelength     0.71073
_diffrn_reflns_av_R_equivalents  0.0345
_diffrn_reflns_av_unetI/netI     0.0281
_diffrn_reflns_Laue_measured_fraction_full 0.997
_diffrn_reflns_Laue_measured_fraction_max 0.997
_diffrn_reflns_limit_h_max       5
_diffrn_reflns_limit_h_min       -5
_diffrn_reflns_limit_k_max       7
_diffrn_reflns_limit_k_min       -7
_diffrn_reflns_limit_l_max       16
_diffrn_reflns_limit_l_min       -16
_diffrn_reflns_number            4120
_diffrn_reflns_point_group_measured_fraction_full 0.997
_diffrn_reflns_point_group_measured_fraction_max 0.997
_diffrn_reflns_theta_full        25.242
_diffrn_reflns_theta_max         27.459
_diffrn_reflns_theta_min         3.172
_diffrn_source                   'Sealed Tube'
_diffrn_source_current           30.0000
_diffrn_source_power             1.5000
_diffrn_source_voltage           50.0000
_exptl_absorpt_coefficient_mu    6.565
_exptl_absorpt_correction_T_max  1.0000
_exptl_absorpt_correction_T_min  0.4085
_exptl_absorpt_correction_type   multi-scan
_exptl_absorpt_process_details   'CrystalClear (Rigaku Inc., 2007)'
_exptl_crystal_colour            Colorless
_exptl_crystal_density_diffrn    2.012
_exptl_crystal_description       block
_exptl_crystal_F_000             180
_exptl_crystal_size_max          0.35
_exptl_crystal_size_mid          0.2
_exptl_crystal_size_min          0.16
_refine_diff_density_max         0.622
_refine_diff_density_min         -0.873
_refine_diff_density_rms         0.096
_refine_ls_extinction_method     none
_refine_ls_goodness_of_fit_ref   1.145
_refine_ls_hydrogen_treatment    constr
_refine_ls_matrix_type           full
_refine_ls_number_parameters     92
_refine_ls_number_reflns         1405
_refine_ls_number_restraints     0
_refine_ls_restrained_S_all      1.145
_refine_ls_R_factor_all          0.0290
_refine_ls_R_factor_gt           0.0278
_refine_ls_shift/su_max          0.000
_refine_ls_shift/su_mean         0.000
_refine_ls_structure_factor_coef Fsqd
_refine_ls_weighting_details
'w=1/[\s^2^(Fo^2^)+(0.0276P)^2^+0.3145P] where P=(Fo^2^+2Fc^2^)/3'
_refine_ls_weighting_scheme      calc
_refine_ls_wR_factor_gt          0.0684
_refine_ls_wR_factor_ref         0.0696
_reflns_Friedel_coverage         0.000
_reflns_number_gt                1364
_reflns_number_total             1405
_reflns_threshold_expression     'I > 2\s(I)'
_cod_data_source_file            ma6b00144_si_002.cif
_cod_data_source_block           sa3430
_cod_depositor_comments          'Adding full bibliography for 1542970.cif.'
_cod_original_cell_volume        308.7(2)
_cod_database_code               1542970
_shelxl_version_number           2013-4
_shelx_space_group_comment
;
The symmetry employed for this shelxl refinement is uniquely defined
by the following loop, which should always be used as a source of
symmetry information in preference to the above space-group names.
They are only intended as comments.
;
_diffrn_number_total             1407
_olex2_refinement_description
;
1. Fixed Uiso
 At 1.2 times of:
  All C(H) groups
2. Others
 Sof(H6)=Sof(F1A)=1-FVAR(1)
 Sof(H2)=Sof(F1)=FVAR(1)
3.a Aromatic/amide H refined with riding coordinates:
 C2(H2), C3(H3), C5(H5), C6(H6), C7(H7)
;
_shelx_res_file
;
TITL sa3430 in P-1
CELL 0.71073 4.0371 5.9682 13.092 79.09 87.09 85.96
ZERR 1 0.002 0.0026 0.0055 0.013 0.015 0.014
LATT 1

SFAC C H Br F
UNIT 14 8 2 2

L.S. 5
PLAN  -20
BOND $H
fmap 2
acta
MORE -1
CONF
OMIT -3 -3 3
OMIT 0 0 1
REM <HKL>D:/D/SXRD/sa(3401-3499)/sa3430/sa3430.hkl</HKL>

WGHT    0.027600    0.314500
FVAR      13.82750   0.63940
BR1   3    0.639813   -0.256614    0.422112    11.00000    0.04266    0.02874 =
         0.02771    0.00755    0.00557   -0.00857
C1    1    0.931862    0.308523    0.135946    11.00000    0.02249    0.01977 =
         0.01898    0.00102   -0.00025   -0.00118
C2    1    0.769374    0.116263    0.124319    11.00000    0.02740    0.02690 =
         0.02187   -0.00320   -0.00441   -0.00410
PART 1
AFIX  43
H2    2    0.716963    0.100982    0.057719    21.00000   -1.20000
AFIX   0
PART 0
C3    1    0.683071   -0.052086    0.207216    11.00000    0.02824    0.02262 =
         0.02857   -0.00075   -0.00074   -0.00591
AFIX  43
H3    2    0.576272   -0.178284    0.196480    11.00000   -1.20000
AFIX   0
C4    1    0.758687   -0.029421    0.306825    11.00000    0.02418    0.02075 =
         0.02241    0.00474    0.00258   -0.00249
C5    1    0.918805    0.156600    0.323831    11.00000    0.03098    0.02603 =
         0.01849   -0.00038   -0.00096   -0.00132
AFIX  43
H5    2    0.968341    0.172092    0.390655    11.00000   -1.20000
AFIX   0
C6    1    1.002920    0.319176    0.237837    11.00000    0.02634    0.02133 =
         0.02301   -0.00206   -0.00253   -0.00458
PART 2
AFIX  43
H6    2    1.113938    0.443377    0.248844   -21.00000   -1.20000
AFIX   0
PART 0
C7    1    1.032230    0.490768    0.050158    11.00000    0.02905    0.02310 =
         0.02041    0.00188   -0.00083   -0.00526
AFIX  43
H7    2    1.152620    0.604489    0.067547    11.00000   -1.20000
AFIX   0
PART 1
F1    4    1.177269    0.491266    0.254717    21.00000    0.04690    0.02630 =
         0.02667   -0.00300   -0.00355   -0.01512
PART 0
PART 2
F1A   4    0.683869    0.081219    0.033573   -21.00000    0.04965    0.03232 =
         0.01799   -0.00462   -0.00458   -0.01673
HKLF 4

REM  sa3430 in P-1
REM R1 =  0.0278 for    1364 Fo > 4sig(Fo)  and  0.0290 for all    1405 data
REM     92 parameters refined using      0 restraints

END

WGHT      0.0276      0.3159

REM Highest difference peak  0.622,  deepest hole -0.873,  1-sigma level  0.096
Q1    1   0.5524 -0.3057  0.3801  11.00000  0.05    0.62
Q2    1   0.9883  0.2915  0.1817  11.00000  0.05    0.36
Q3    1   0.8854 -0.1163  0.5175  11.00000  0.05    0.35
Q4    1   1.0618  0.2449  0.4027  11.00000  0.05    0.35
Q5    1   0.8717  0.0532  0.3069  11.00000  0.05    0.30
Q6    1   0.8171 -0.3368  0.5747  11.00000  0.05    0.30
Q7    1   1.0000  0.0000  0.5000  10.50000  0.05    0.29
Q8    1   0.8385  0.2226  0.1330  11.00000  0.05    0.28
Q9    1   0.8780 -0.3035  0.5662  11.00000  0.05    0.27
Q10   1   0.3252 -0.2470  0.4290  11.00000  0.05    0.26
Q11   1   0.9203  0.1861  0.4229  11.00000  0.05    0.25
Q12   1   0.9450  0.2249  0.2753  11.00000  0.05    0.24
Q13   1   0.9485 -0.1890  0.3512  11.00000  0.05    0.23
Q14   1   0.4396 -0.3967  0.3443  11.00000  0.05    0.23
Q15   1   1.2915  0.5483  0.0788  11.00000  0.05    0.23
Q16   1   1.3225  0.7659  0.0637  11.00000  0.05    0.23
Q17   1   0.2885  0.0298  0.3958  11.00000  0.05    0.22
Q18   1   0.8794 -0.3223  0.5013  11.00000  0.05    0.21
Q19   1   1.3200  0.4964  0.1471  11.00000  0.05    0.21
Q20   1   0.9482 -0.1905  0.4472  11.00000  0.05    0.21
;
_shelx_res_checksum              57411
_shelx_hkl_file
;
   0   0  -1   28.72   27.75   1 0.87275-0.87058 0.47799-0.46746 0.09910-0.15346
   0   0   1  -79.88   34.25   1 0.86124-0.86341 0.48357-0.49410 0.15621-0.10184
   0   0   1   11.79   21.63   1-0.75137 0.74922 0.64813-0.65865 0.12391-0.06954
   0   0  -1  -24.99   21.06   1-0.71570 0.71785 0.69406-0.68354 0.07771-0.13209
   0   0   1   15.64   21.46   1-0.82573 0.82353 0.55467-0.56521 0.10247-0.04813
   0   0  -1    1.98   25.26   1-0.83333 0.83553 0.55093-0.54039 0.04496-0.09931
   0   0  -2 4577.73  244.64   1 0.87739-0.87305 0.47458-0.45353 0.07037-0.17911
   0   0   2 4511.60  241.11   1 0.85438-0.85871 0.48574-0.50680 0.18460-0.07587
   0   0   2 5389.18  252.39   1-0.76768 0.76338 0.62378-0.64482 0.14680-0.03805
   0   0  -2 5296.12  247.80   1-0.69618 0.70046 0.71578-0.69473 0.05461-0.16336
   0   0   2 5721.49  277.61   1-0.82088 0.81649 0.55583-0.57692 0.13113-0.02244
   0   0  -2 5290.58  259.27   1-0.83608 0.84047 0.54836-0.52728 0.01611-0.12480
   0   0  -3 1808.60  164.61   1 0.88128-0.87478 0.47076-0.43917 0.04154-0.20464
   0   0   3 1603.24  140.00   1-0.78297 0.77652 0.59849-0.63005 0.16955-0.00643
   0   0   3 1384.01  193.37   1-0.81559 0.80904 0.55606-0.58773 0.16001 0.00298
   0   0  -430698.61 1312.08   1 0.88440-0.87589 0.46656-0.42452 0.01202-0.22932
   0   0   430774.47 1304.40   1 0.83840-0.84706 0.48884-0.53095 0.24106-0.02359
   0   0   432356.23 1331.30   1-0.79723 0.78862 0.57226-0.61434 0.19216 0.02533
   0   0  -431261.91 1281.45   1-0.65440 0.66298 0.75610-0.71400 0.00757-0.22507
   0   0   433425.80 1390.16   1-0.80931 0.80059 0.55628-0.59851 0.18855 0.02878
   0   0  -430833.84 1281.92   1-0.83946 0.84824 0.54180-0.49964-0.04176-0.17561
   0   0  -5193014.113015.35   1 0.88677-0.87613 0.46188-0.40934-0.01700-0.25461
   0   0   5185839.7 4392.97   1 0.82928-0.84011 0.48976-0.54240 0.26912 0.00271
   0   0   5194121.9 2144.28   1-0.81044 0.79968 0.54508-0.59768 0.21463 0.05724
   0   0  -5193300.413005.38   1-0.63195 0.64267 0.77483-0.72220-0.01616-0.25570
   0   0   5202768.3 2299.66   1-0.80232 0.79141 0.55603-0.60882 0.21702 0.05465
   0   0  -5183533.7 4283.46   1-0.84008 0.85105 0.53780-0.48510-0.07080-0.20091
   0   0  -6474684.9 5176.07   1 0.88837-0.87560 0.45678-0.39373-0.04615-0.27979
   0   0   6438577.3 4809.84   1 0.81953-0.83262 0.48980-0.55309 0.29741 0.02876
   0   0   6462178.8 4884.43   1-0.82264 0.80985 0.51664-0.57987 0.23735 0.08873
   0   0  -6441703.7 4648.92   1-0.60843 0.62130 0.79259-0.72943-0.04004-0.28619
   0   0  -6422000.6 4505.75   1-0.83998 0.85315 0.53333-0.47009-0.09991-0.22615
   0   0  -7338757.1 3863.75   1 0.88920-0.87430 0.45125-0.37769-0.07541-0.30485
   0   0   7339703.2 3688.27   1-0.83367 0.81875 0.48749-0.56125 0.25950 0.12093
   0   0  -7318914.3 3446.85   1-0.58381 0.59883 0.80935-0.73566-0.06407-0.31654
   0   0   7343317.1 3803.65   1-0.78615 0.77089 0.55408-0.62798 0.27376 0.10657
   0   0  -8123277.3 3059.09   1 0.88924-0.87221 0.44527-0.36120-0.10478-0.32980
   0   0   8122368.1 2942.69   1-0.84357 0.82653 0.45731-0.54161 0.28150 0.15328
   0   0  -8117493.8 2803.11   1-0.55808 0.57523 0.82507-0.74086-0.08826-0.34672
   0   0   8126030.6 3067.38   1-0.77696 0.75951 0.55236-0.63681 0.30203 0.13264
   0   0  -944803.90 1323.48   1 0.88846-0.86931 0.43885-0.34427-0.13427-0.35463
   0   0   940759.05 1108.83   1-0.85231 0.83314 0.42607-0.52091 0.30334 0.18579
   0   0   941582.81 1188.09   1-0.76700 0.74737 0.55013-0.64514 0.33023 0.15877
   0   0 -10 1068.41  329.62   1 0.88687-0.86558 0.43197-0.32688-0.16389-0.37935
   0   0  10  495.35  174.05   1-0.85984 0.83854 0.39373-0.49911 0.32501 0.21847
   0   0  10  290.06  350.52   1-0.75627 0.73446 0.54738-0.65295 0.35836 0.18497
   0   0 -11211838.3 5717.46   1 0.88442-0.86101 0.42461-0.30902-0.19363-0.40393
   0   0  11189932.6 5034.34   1-0.86611 0.84268 0.36023-0.47615 0.34651 0.25132
   0   0  11181805.9 4856.48   1-0.74473 0.72074 0.54409-0.66022 0.38643 0.21124
   0   0 -1262667.62 2633.48   1 0.88110-0.85556 0.41677-0.29067-0.22349-0.42839
   0   0  1255611.60 2376.49   1-0.87159 0.84578 0.32492-0.45100 0.36708 0.28502
   0   0  1259188.43 2408.81   1-0.73204 0.70622 0.54031-0.66719 0.41494 0.23685
   0   0 -13105967.5 4264.01   1 0.87665-0.84934 0.40874-0.27219-0.25377-0.45224
   0   0  1392315.18 4554.08   1-0.87508 0.84712 0.28898-0.42557 0.38822 0.31822
   0   0  1391327.33 3607.39   1-0.71882 0.69085 0.53589-0.67335 0.44283 0.26327
   0   0 -1426656.24 2231.60   1 0.87148-0.84207 0.39988-0.25283-0.28389-0.47643
   0   0  1424841.05 1474.47   1-0.87706 0.84695 0.25168-0.39878 0.40916 0.35163
   0   0  1423308.83 1256.09   1-0.70472 0.67460 0.53089-0.67892 0.47064 0.28978
   0   0 -15 6741.79  901.93   1 0.86534-0.83382 0.39048-0.23293-0.31416-0.50047
   0   0  15 6037.01  781.38   1-0.87742 0.84516 0.21290-0.37051 0.42988 0.38525
   0   0  15 4432.61  421.24   1-0.68971 0.65743 0.52527-0.68387 0.49837 0.31636
   0   0 -16 7060.98 1233.76   1 0.85817-0.82455 0.38051-0.21245-0.34457-0.52437
   0   0  16 5170.57  932.30   1-0.87601 0.84160 0.17252-0.34063 0.45036 0.41912
   0   0  16 6478.74  766.35   1-0.67373 0.63931 0.51901-0.68819 0.52602 0.34303
   0   1 -1633329.57 2932.21   1 0.86205-0.83593 0.38580-0.09640-0.32865-0.54029
   0  -1  1633500.05 1946.10   1-0.86832 0.84148 0.09309-0.38223 0.48718 0.38183
   0  -1  1632374.63 1661.58   1-0.60492 0.57729 0.48952-0.78018 0.62803 0.24090
   0   1 -1559502.97 3956.83   1 0.86956-0.84554 0.39683-0.11793-0.29391-0.52072
   0  -1  1549124.64 4341.62   1-0.87226 0.84744 0.12645-0.40542 0.47239 0.34274
   0  -1  1548676.73 3147.80   1-0.62031 0.59528 0.49639-0.77627 0.60729 0.20745
   0   1 -1413008.60 1167.90   1 0.87585-0.85393 0.40729-0.13889-0.25882-0.50150
   0  -1  1410648.47  994.75   1-0.87505 0.85237 0.15762-0.42608 0.45764 0.30315
   0  -1  1412465.20  670.99   1-0.63451 0.61163 0.50262-0.77193 0.58716 0.17326
   0   1 -13 1179.77  585.59   1 0.88116-0.86097 0.41690-0.15895-0.22304-0.48317
   0  -1  13  451.90  190.43   1-0.87671 0.85618 0.18667-0.44463 0.44331 0.26314
   0  -1  13  390.26  287.47   1-0.64744 0.62671 0.50817-0.76690 0.56796 0.13815
   0   1 -1283838.85 3357.37   1 0.88506-0.86700 0.42634-0.17890-0.18681-0.46507
   0  -1  1279258.47 3741.55   1-0.87743 0.85905 0.21352-0.46097 0.42956 0.22255
   0  -1  1271434.59 2846.49   1-0.65905 0.64047 0.51303-0.76119 0.54995 0.10184
   0   1 -1164801.60 2616.38   1 0.88773-0.87181 0.43532-0.19839-0.14970-0.44786
   0  -1  1160547.12 2404.22   1-0.87738 0.86115 0.23801-0.47495 0.41659 0.18117
   0  -1  1157944.91 2311.52   1-0.66925 0.65282 0.51721-0.75479 0.53347 0.06400
   0   1 -1018334.13  981.09   1 0.88913-0.87533 0.44387-0.21745-0.11139-0.43185
   0  -1  1021293.70 1427.71   1-0.87676 0.86269 0.25988-0.48631 0.40465 0.13877
   0  -1  1017267.69  910.53   1-0.67788 0.66361 0.52066-0.74768 0.51900 0.02415
   0   1  -9484132.024307.54   1 0.88913-0.87746 0.45202-0.23611-0.07142-0.41749
   0  -1   9445572.722368.27   1-0.87578 0.86386 0.27875-0.49468 0.39407 0.09501
   0  -1   9419387.621036.52   1-0.68471 0.67259 0.52334-0.73978 0.50722-0.01837
   0   1  -8225162.6 2788.72   1 0.88753-0.87799 0.45981-0.25441-0.02913-0.40546
   0  -1   8207991.2 2500.09   1-0.87468 0.86491 0.29406-0.49948 0.38529 0.04944
   0  -1   8195854.4 2341.87   1-0.68930 0.67933 0.52511-0.73098 0.49911-0.06458
   0   1  -715948.90  792.24   1 0.88396-0.87655 0.46725-0.27236 0.01656-0.39683
   0  -1   714858.98  730.10   1 0.72057-0.72838 0.47918-0.67447 0.50114-0.12059
   0  -1   717281.07 1210.94   1-0.87372 0.86610 0.30495-0.49986 0.37895 0.00144
   0  -1   713796.72  696.66   1-0.69093 0.68312 0.52574-0.72103 0.49618-0.11596
   0   1  -678386.66 1989.52   1 0.87778-0.87228 0.47425-0.28972 0.06772-0.39392
   0  -1   668373.99 1719.94   1 0.72164-0.72727 0.47939-0.66413 0.49940-0.17321
   0  -1   679010.06 2145.51   1-0.87322 0.86775 0.31008-0.49448 0.37593-0.04988
   0   1  -674512.88 1833.14   1-0.75795 0.76349 0.63860-0.45404 0.13300-0.45925
   0  -1   678341.75 1925.37   1-0.68834 0.68268 0.52475-0.70947 0.50081-0.17491
   0   1  -676731.71 1882.01   1-0.82861 0.83453 0.55361-0.36902 0.08304-0.40911
   0   1  -5278169.8 3135.37   1 0.86755-0.86422 0.48090-0.30690 0.12681-0.39865
   0  -1   5261713.0 2901.71   1 0.71687-0.72032 0.47812-0.65237 0.50743-0.23564
   0  -1   5298683.6 3300.90   1-0.87349 0.87017 0.30734-0.48124 0.37754-0.10583
   0   1  -5277278.5 3037.14   1-0.78747 0.79086 0.59052-0.41648 0.17653-0.44841
   0  -1   5293905.4 3185.68   1-0.67905 0.67553 0.52112-0.69527 0.51702-0.24544
   0   1  -5283085.9 3082.50   1-0.81686 0.82047 0.55594-0.38185 0.15378-0.42545
   0   1  -4367329.0 3958.84   1 0.85026-0.84910 0.48677-0.32330 0.20026-0.41773
   0  -1   4348607.7 3714.41   1 0.70118-0.70244 0.47483-0.63851 0.53186-0.31443
   0  -1   4380188.3 4127.24   1-0.87475 0.87358 0.29321-0.45660 0.38578-0.16841
   0   1  -4362194.5 3858.97   1-0.81637 0.81747 0.53162-0.36807 0.22560-0.44300
   0  -1   4384976.0 4049.36   1-0.65779 0.65642 0.51251-0.67608 0.55194-0.33467
   0   1  -4378432.5 3993.42   1-0.79543 0.79686 0.55540-0.39186 0.24250-0.45983
   0   1  -3450213.1 4709.99   1 0.81791-0.81883 0.48983-0.33674 0.30178-0.46487
   0  -1   3430337.8 4475.73   1 0.66242-0.66149 0.46562-0.61874 0.58684-0.42377
   0  -1   3444989.9 4743.84   1-0.87669 0.87767 0.26153-0.41441 0.40373-0.24070
   0   1  -3431210.0 4518.59   1-0.84351 0.84248 0.45751-0.30449 0.28136-0.44441
   0  -1   3439592.6 4568.07   1-0.61169 0.61248 0.49260-0.64564 0.61900-0.45607
   0   1  -3437908.2 4538.29   1-0.75425 0.75350 0.54683-0.39384 0.36341-0.52641
   0   1  -2474725.5 4879.96   1 0.74228-0.74538 0.48311-0.34057 0.46434-0.57307
   0  -1   2473355.3 4850.73   1 0.56111-0.55799 0.43608-0.57863 0.70354-0.59483
   0  -1   2467651.8 4897.27   1-0.87719 0.88032 0.20089-0.34327 0.43608-0.32740
   0   1  -2466335.7 4843.57   1-0.86637 0.86321 0.35864-0.21616 0.34751-0.45621
   0  -1   2483868.6 4955.82   1-0.50593 0.50891 0.44169-0.58414 0.74089-0.63228
   0   1  -2478736.8 4905.79   1-0.66238 0.65944 0.51440-0.37198 0.54464-0.65327
   0   1  -117516.68  710.91   1 0.49406-0.49935 0.41249-0.28051 0.76534-0.81972
   0  -1   117728.71  717.52   1 0.24267-0.23734 0.31110-0.44309 0.91886-0.86448
   0  -1   118018.52  759.79   1-0.86778 0.87308 0.08932-0.22111 0.48885-0.43453
   0   1  -115098.12  687.34   1-0.87747 0.87219 0.21812-0.08625 0.42715-0.48150
   0  -1   117353.82  707.54   1-0.23693 0.24206 0.29492-0.42693 0.92567-0.87128
   0   1  -117397.23  708.74   1-0.41922 0.41407 0.39731-0.26538 0.81632-0.87069
   0   1   011635.71  474.92   1-0.28196 0.27453 0.04366 0.07773 0.95842-0.95842
   0  -1   012602.07  512.80   1-0.50247 0.50989-0.09166-0.02972 0.85972-0.85972
   0  -1   011954.10  518.07   1-0.81809 0.82553-0.11112-0.01018 0.56425-0.56425
   0   1   011815.80  504.97   1-0.85271 0.84526 0.00851 0.11279 0.52230-0.52230
   0  -1   012155.93  524.23   1 0.28722-0.27986-0.04355-0.07790 0.95687-0.95687
   0   1   012138.93  495.63   1 0.12317-0.13054 0.06841 0.05301 0.99002-0.99002
   0  -1  -1 2206.16  206.06   1 0.76278-0.75325 0.28147-0.39233-0.58217 0.52790
   0   1   1 1954.86  267.91   1 0.83340-0.84300 0.35064-0.23980-0.42718 0.48149
   0  -1  -1 2239.00  249.67   1-0.64573 0.65536-0.43341 0.32251 0.62863-0.68299
   0   1   1 2390.73  284.83   1-0.73502 0.72545-0.29357 0.40444 0.61118-0.55690
   0  -1  -1 2362.76  270.61   1 0.66638-0.65678-0.33777 0.22686 0.66471-0.71914
   0   1   1 2696.47  249.62   1 0.57540-0.58500-0.26131 0.37222 0.77499-0.72056
   0   1   2771970.4 7889.28   1 0.88429-0.89604 0.42429-0.32397-0.19491 0.30356
   0   1   2794520.6 8076.57   1 0.73395-0.74576-0.39961 0.49994 0.54919-0.44033
   0  -1  -3570563.4 5935.90   1 0.87608-0.86228 0.40770-0.49753-0.25738 0.09445
   0   1   3540790.8 5633.67   1 0.88904-0.90292 0.45287-0.36306-0.06707 0.23004
   0   1   3570787.5 5802.30   1-0.12081 0.10707 0.90750-0.81785-0.40228 0.56537
   0  -1  -3558860.3 5682.54   1 0.17867-0.16477 0.82085-0.91049-0.54246 0.37927
   0   1   3536229.1 5543.01   1 0.78519-0.79921-0.45234 0.54208 0.42290-0.25961
   0   1   3559169.2 5762.84   1-0.82882 0.81497 0.50468-0.41489-0.24152 0.40457
   0  -1  -4762325.2 7935.00   1 0.88249-0.86649 0.41986-0.49916-0.21195-0.00534
   0   1   4763857.3 7958.39   1 0.88377-0.89995 0.46751-0.38827 0.01913 0.19833
   0   1   4773174.8 7864.75   1-0.38713 0.37121 0.89294-0.81371-0.22972 0.44728
   0  -1  -4749893.7 7619.69   1-0.03037 0.04632 0.89220-0.97134-0.45060 0.23313
   0   1   4762691.3 7853.29   1-0.83902 0.82297 0.52814-0.44889-0.13074 0.34814
   0  -1  -4791532.8 8130.93   1-0.80631 0.82236 0.47267-0.55192-0.35557 0.13818
   0  -1  -5191378.2 4521.87   1 0.88442-0.86629 0.42461-0.49340-0.19364-0.07798
   0   1   5181457.7 4302.37   1 0.87530-0.89364 0.47624-0.40752 0.08388 0.18795
   0   1   5201122.8 2145.41   1-0.54318 0.52507 0.83341-0.76460-0.10185 0.37372
   0  -1  -5192880.412966.52   1-0.15149 0.16957 0.91045-0.97901-0.38485 0.11303
   0   1   5187423.2 4382.69   1-0.83965 0.82142 0.54100-0.47235-0.04785 0.31958
   0  -1  -5197446.3 2209.39   1-0.81428 0.83252 0.48298-0.55170-0.32197 0.05022
   0  -1  -667665.85 1756.03   1 0.88477-0.86451 0.42555-0.48384-0.18992-0.13602
   0   1   667740.95 1750.47   1 0.86538-0.88588 0.48191-0.42372 0.13737 0.18883
   0   1   674859.11 1783.55   1-0.63972 0.61947 0.76856-0.71028-0.00805 0.33429
   0  -1  -671196.62 1686.00   1-0.21838 0.23862 0.91292-0.97093-0.34477 0.01859
   0   1   674328.55 1860.20   1-0.83586 0.81544 0.54861-0.49050 0.01873 0.30733
   0  -1  -667277.76 1659.98   1-0.81745 0.83789 0.48731-0.54550-0.30705-0.01903
   0  -1  -7 8870.71  551.64   1 0.88428-0.86190 0.42425-0.47203-0.19504-0.18522
   0   1   7 9962.63  486.37   1-0.70415 0.68172 0.70718-0.65938 0.06368 0.31694
   0  -1  -7 8910.62  412.12   1-0.25350 0.27590 0.91197-0.95943-0.32254-0.05799
   0   1   7 9847.18  567.42   1-0.82967 0.80705 0.55314-0.50557 0.07536 0.30505
   0  -1  -848602.99 1385.80   1 0.88316-0.85865 0.42145-0.45871-0.20591-0.22868
   0   1   845620.61 1157.28   1-0.74974 0.72516 0.65044-0.61316 0.12169 0.31331
   0  -1  -842470.92 1065.31   1-0.26935 0.29391 0.91101-0.94792-0.31224-0.12265
   0   1   850218.78 1381.94   1-0.82190 0.79709 0.55564-0.51861 0.12543 0.30932
   0  -1  -9224793.9 2892.39   1 0.88144-0.85480 0.41752-0.44428-0.22073-0.26818
   0   1   9203257.4 2328.15   1-0.78371 0.75698 0.59720-0.57044 0.17069 0.31868
   0  -1  -9186619.8 4354.44   1-0.27269 0.29942 0.91077-0.93713-0.31004-0.17922
   0   1   9200219.7 2469.44   1-0.81320 0.78627 0.55620-0.52991 0.17127 0.31773
   0  -1 -10215956.5 5804.30   1 0.87888-0.85037 0.41296-0.42927-0.23879-0.30429
   0   1  10191437.2 5014.68   1-0.80983 0.78095 0.54640-0.53016 0.21356 0.33020
   0  -1 -10161892.6 4234.68   1-0.26738 0.29628 0.91115-0.92696-0.31352-0.23010
   0   1  10206872.4 5505.52   1-0.80321 0.77411 0.55609-0.54035 0.21354 0.32979
   0  -1 -1193825.32 3683.93   1 0.87589-0.84528 0.40736-0.41316-0.25858-0.33881
   0   1  1182664.21 3156.10   1-0.83021 0.79935 0.49707-0.49158 0.25233 0.34550
   0   1  1189786.95 3497.56   1-0.79230 0.76102 0.55501-0.54983 0.25339 0.34428
   0  -1 -1210427.83 1370.95   1 0.87220-0.83949 0.40105-0.39635-0.28001-0.37169
   0   1  12 7387.58  513.45   1-0.84613 0.81315 0.44868-0.45374 0.28762 0.36456
   0   1  12 7567.19  606.44   1-0.78051 0.74705 0.55306-0.55844 0.29138 0.36062
   0  -1 -13  610.33  232.20   1 0.86777-0.83295 0.39408-0.37888-0.30275-0.40326
   0   1  13 3465.90  383.73   1-0.85837 0.82325 0.40060-0.41619 0.32049 0.38604
   0   1  13  360.11  314.03   1-0.76785 0.73220 0.55033-0.56626 0.32791 0.37842
   0  -1 -1412327.33 1587.74   1 0.86254-0.82563 0.38649-0.36078-0.32654-0.43378
   0   1  1411610.24  917.86   1-0.86737 0.83012 0.35234-0.37847 0.35144 0.40944
   0   1  1411597.09 1037.15   1-0.75431 0.71648 0.54684-0.57333 0.36327 0.39740
   0  -1 -1552893.09 3219.07   1 0.85647-0.81746 0.37826-0.34205-0.35122-0.46341
   0   1  1539808.78 3137.58   1-0.87393 0.83423 0.30274-0.33898 0.38024 0.43489
   0   1  1543801.42 2097.75   1-0.73955 0.70003 0.54269-0.58001 0.39817 0.41657
   0  -1 -1641969.34 3417.34   1 0.84951-0.80839 0.36942-0.32270-0.37664-0.49230
   0   1  1636197.23 1780.59   1-0.87701 0.83517 0.25307-0.29982 0.40840 0.46107
   0   1  1636146.88 1892.17   1-0.72417 0.68250 0.53772-0.58561 0.43176 0.43730
   0   2 -15 4142.61  753.21   1 0.86972-0.85320 0.39708 0.00314-0.29307-0.52156
   0  -2  15 4793.98 1224.45   1-0.85994 0.84270 0.04290-0.44286 0.50857 0.30613
   0  -2  15 4883.29  530.92   1-0.52858 0.51049 0.45306-0.85441 0.71786 0.09677
   0   2 -1480497.86 5186.07   1 0.87660-0.86218 0.40865-0.01892-0.25409-0.50623
   0  -2  1471843.19 4670.39   1-0.86451 0.84941 0.06835-0.45782 0.49793 0.26246
   0  -2  1468048.55 4333.40   1-0.54037 0.52446 0.45888-0.84965 0.70528 0.05504
   0   2 -1391262.78 4128.17   1 0.88225-0.86955 0.41932-0.04004-0.21400-0.49221
   0  -2  1378387.46 3570.88   1-0.86807 0.85511 0.09134-0.47032 0.48796 0.21812
   0  -2  1377448.96 3471.32   1-0.55016 0.53644 0.46367-0.84385 0.69449 0.01152
   0   2 -1290194.50 4394.73   1 0.88622-0.87565 0.42981-0.06104-0.17282-0.47906
   0  -2  1299108.89 6162.31   1-0.87060 0.85966 0.11185-0.48066 0.47909 0.17302
   0  -2  1283856.64 4061.06   1-0.55775 0.54621 0.46735-0.83694 0.68592-0.03421
   0   2 -1148755.95 2225.45   1 0.88863-0.88018 0.43981-0.08155-0.12999-0.46756
   0  -2  1146530.84 3055.90   1-0.87257 0.86378 0.12937-0.48767 0.47104 0.12672
   0  -2  1142498.04 1908.31   1-0.56277 0.55342 0.46977-0.82877 0.68014-0.08274
   0   2 -10  203.90  264.12   1 0.88930-0.88298 0.44935-0.10159-0.08497-0.45826
   0  -2  10  939.45  282.89   1-0.87393 0.86729 0.14367-0.49147 0.46432 0.07910
   0  -2  10  176.23  228.24   1-0.56471 0.55755 0.47070-0.81912 0.67788-0.13479
   0   2  -957022.83 2285.85   1 0.88795-0.88377 0.45843-0.12119-0.03696-0.45195
   0  -2   954176.64 2364.98   1-0.87480 0.87031 0.15430-0.49159 0.45924 0.02983
   0  -2   953093.48 2273.86   1-0.56278 0.55780 0.46977-0.80761 0.68013-0.19135
   0   2  -899748.21 3834.86   1 0.88410-0.88204 0.46704-0.14031 0.01519-0.44979
   0  -2   899659.87 3860.75   1-0.87526 0.87292 0.16060-0.48738 0.45619-0.02145
   0  -2   895625.60 3639.14   1-0.55575 0.55296 0.46638-0.79363 0.68820-0.25372
   0   2  -7249309.4 2970.53   1 0.87693-0.87677 0.47497-0.15855 0.07343-0.45400
   0  -2   7242643.0 2948.05   1-0.87534 0.87515 0.16168-0.47795 0.45567-0.07527
   0  -2   7241750.2 2770.69   1-0.54167 0.54106 0.45952-0.77618 0.70386-0.32370
   0   2  -6187898.4 4469.41   1 0.86476-0.86677 0.48218-0.17630 0.14029-0.46650
   0  -2   6177685.4 4177.15   1 0.55491-0.55298 0.43340-0.73954 0.71009-0.38376
   0  -2   6195263.4 2938.09   1-0.87495 0.87691 0.15632-0.46209 0.45826-0.13221
   0  -2   6201795.1 2316.52   1-0.51734 0.51892 0.44745-0.75352 0.72947-0.40362
   0   2  -6184850.4 4345.53   1-0.80182 0.80031 0.55600-0.25003 0.21895-0.54495
   0   2  -5266056.4 3011.06   1 0.84451-0.84868 0.48792-0.19256 0.22075-0.49259
   0  -2   5252559.1 2767.73   1 0.51658-0.51248 0.42043-0.71603 0.74590-0.47396
   0  -2   5268153.0 3091.69   1-0.87385 0.87797 0.14281-0.43807 0.46473-0.19301
   0  -2   5273416.7 2982.41   1-0.47739 0.48115 0.42707-0.72256 0.76792-0.49637
   0   2  -5253598.2 2792.96   1-0.77293 0.76924 0.55150-0.25609 0.31371-0.58538
   0   2  -4307162.5 3336.50   1 0.80959-0.81579 0.48985-0.20477 0.32342-0.54087
   0  -2   4294238.6 3133.06   1 0.44856-0.44230 0.39580-0.68085 0.80133-0.58378
   0  -2   4300378.5 3375.20   1-0.87141 0.87768 0.11874-0.40349 0.47594-0.25857
   0  -2   4305746.9 3270.69   1-0.41189 0.41772 0.39334-0.67830 0.82196-0.60449
   0   2  -4295732.7 3169.73   1-0.72519 0.71931 0.53806-0.25321 0.42963-0.64689
   0   2  -3227915.0 2461.81   1 0.74332-0.75170 0.48328-0.20876 0.46249-0.62558
   0  -2   3218655.6 2325.74   1 0.32564-0.31712 0.34685-0.62142 0.87957-0.71642
   0  -2   3223956.8 2602.23   1-0.86646 0.87493 0.08052-0.35460 0.49269-0.32975
   0   2  -3211535.0 2406.44   1-0.86553 0.85708 0.36370-0.08928 0.34432-0.50737
   0  -2   3224959.1 2415.67   1-0.30695 0.31501 0.33472-0.60913 0.89092-0.72781
   0   2  -3221026.3 2380.64   1-0.64444 0.63641 0.50689-0.23262 0.57248-0.73543
   0   2  -2283601.0 2959.06   1 0.60478-0.61540 0.44964-0.18569 0.65731-0.76602
   0  -2   2287400.2 2978.77   1 0.10184-0.09126 0.24623-0.51017 0.96384-0.85521
   0  -2   2281620.7 3090.05   1-0.85609 0.86671 0.02388-0.28748 0.51626-0.40763
   0   2  -2266409.5 2931.29   1-0.87562 0.86506 0.28122-0.01748 0.39267-0.50135
   0  -2   2286481.7 3003.14   1-0.13943 0.14970 0.23622-0.50024 0.96164-0.85284
   0   2  -2282630.6 2965.60   1-0.50391 0.49359 0.44067-0.17694 0.74288-0.85150
   0   2  -1468796.2 4784.67   1 0.30748-0.32028 0.33920-0.08583 0.88904-0.94342
   0  -2   1474135.1 4833.17   1-0.25042 0.26315 0.06180-0.31515 0.96616-0.91182
   0  -2   1494764.4 5232.43   1-0.83542 0.84818-0.05751-0.19559 0.54658-0.49226
   0   2  -1451168.0 4763.04   1-0.87660 0.86389 0.18415 0.06907 0.44457-0.49891
   0  -2   1480204.9 4935.75   1 0.09867-0.08615 0.08475-0.33819 0.99150-0.93712
   0   2  -1459977.9 4723.60   1-0.27203 0.25951 0.31454-0.06121 0.90942-0.96379
   0   2   0236976.6 2453.50   1 0.60630-0.62124 0.15912 0.08353-0.77914 0.77914
   0   2   0237841.5 2461.17   1-0.16045 0.14558 0.11202 0.13076 0.98066-0.98066
   0  -2   0245623.4 2761.57   1-0.79446 0.80937-0.17060-0.07209 0.58285-0.58285
   0   2   0228365.8 2532.53   1-0.86457 0.84967 0.06867 0.17394 0.49779-0.49779
   0  -2   0243354.8 2555.20   1 0.36548-0.35077-0.09976-0.14315 0.92545-0.92545
   0   2   0231516.1 2423.47   1 0.03864-0.05338 0.12422 0.11864 0.99150-0.99150
   0   2   1595501.3 6089.42   1 0.78898-0.80591 0.30521-0.07295-0.53324 0.58751
   0  -2  -1581062.3 5999.99   1-0.72004 0.73706-0.31984 0.08761 0.61582-0.67011
   0   2   1567666.8 5892.89   1-0.83266 0.81562-0.06672 0.29884 0.54974-0.49543
   0  -2  -1613440.0 6309.52   1 0.57658-0.55959-0.26227 0.02987 0.77379-0.82822
   0   2   1574038.7 5887.83   1 0.32897-0.34588-0.07332 0.30571 0.94148-0.88707
   0  -2  -2117076.0 2729.47   1 0.71726-0.69820 0.24311-0.46483-0.65301 0.54446
   0   2   2112896.5 2663.44   1 0.85847-0.87767 0.38090-0.15923-0.34341 0.45203
   0  -2  -2113816.3 2673.39   1-0.59351 0.61277-0.49932 0.27753 0.63119-0.73992
   0   2   2109185.1 2551.28   1-0.77264 0.75349-0.21999 0.44175 0.59550-0.48692
   0  -2  -2116666.7 2720.14   1 0.70568-0.68648-0.37301 0.15119 0.60239-0.71125
   0   2   2115257.1 2679.92   1 0.52519-0.54417-0.22004 0.44191 0.82204-0.71315
   0  -2  -3 5079.04  564.67   1 0.79542-0.77423 0.31130-0.52249-0.51998 0.35715
   0   2   3 3989.23  245.57   1 0.88277-0.90412 0.42051-0.20937-0.20947 0.37244
   0   2   3 4022.80  362.71   1-0.68257 0.66118-0.38093 0.59219 0.62367-0.46059
   0   2   3 4475.88  244.21   1 0.40398-0.42535 0.68188-0.47078-0.60977 0.77293
   0  -2  -3 5177.55  287.09   1 0.77496-0.75355-0.44114 0.22990 0.45258-0.61587
   0   2   3 3822.14  509.92   1 0.63595-0.65736-0.31153 0.52276 0.70604-0.54275
   0  -2  -4115434.8 2771.93   1 0.83086-0.80746 0.34784-0.54851-0.43436 0.21712
   0   2   4100197.2 2405.24   1 0.88914-0.91262 0.44390-0.24327-0.11123 0.32852
   0   2   4104303.2 2427.97   1-0.56644 0.54290-0.53027 0.73100 0.63082-0.41337
   0   2   4111157.9 2583.18   1 0.16983-0.19326 0.82491-0.62450-0.53913 0.75673
   0   2   4107630.7 2538.85   1 0.69796-0.72158-0.36595 0.56660 0.61556-0.39784
   0   2   4115769.2 2739.30   1-0.81280 0.78948 0.48100-0.28035-0.32860 0.54600
   0  -2  -5177606.1 4198.85   1 0.84812-0.82261 0.36771-0.55788-0.38141 0.10986
   0   2   5144493.3 3444.78   1 0.88780-0.91341 0.45896-0.26883-0.03398 0.30560
   0   2   5175789.6 4058.33   1-0.06783 0.04241 0.89963-0.70974-0.43134 0.70317
   0  -2  -5167752.6 3876.77   1 0.44171-0.41601 0.65129-0.84134-0.61700 0.34507
   0   2   5168307.8 3937.14   1 0.73280-0.75863-0.39851 0.58857 0.55152-0.27937
   0   2   5176259.0 4136.17   1-0.83047 0.80495 0.50758-0.31746-0.22951 0.50125
   0  -2  -6284233.2 3303.59   1 0.85683-0.82922 0.37873-0.55839-0.34985 0.02399
   0   2   6277400.9 2932.53   1-0.27260 0.24512 0.91078-0.73147-0.31010 0.63628
   0  -2  -6272756.1 2879.86   1 0.32771-0.29991 0.73733-0.91661-0.59070 0.26431
   0   2   6278689.3 3119.73   1-0.83822 0.81051 0.52519-0.34561-0.14677 0.47287
   0  -2  -7347426.9 4028.55   1 0.86110-0.83139 0.38448-0.55364-0.33266-0.04749
   0   2   7343459.6 3617.07   1-0.43186 0.40216 0.88049-0.71148-0.19551 0.57623
   0  -2  -7343078.6 3605.62   1 0.23372-0.20373 0.79338-0.96209-0.56206 0.18127
   0   2   7345750.4 3855.51   1-0.84012 0.81025 0.53710-0.36819-0.07557 0.45599
   0  -2  -827988.40 1389.90   1 0.86280-0.83099 0.38684-0.54549-0.32546-0.10901
   0   2   830539.45 1276.56   1-0.55036 0.51843 0.82946-0.67079-0.09534 0.53033
   0  -2  -828859.83 1205.91   1 0.16273-0.13056 0.82811-0.98625-0.53642 0.10123
   0   2   829908.28 1333.85   1-0.83814 0.80608 0.54529-0.38691-0.01304 0.44780
   0  -2  -926822.02 1394.48   1 0.86281-0.82890 0.38685-0.53500-0.32541-0.16336
   0   2   928404.03 1204.41   1-0.63874 0.60467 0.76936-0.62122-0.00908 0.49844
   0  -2  -927748.06 1165.89   1 0.11239-0.07803 0.84901-0.99659-0.51628 0.02669
   0   2   928900.77 1343.62   1-0.83352 0.79926 0.55079-0.40295 0.04322 0.44587
   0  -2 -1025252.82 2189.01   1 0.86158-0.82557 0.38514-0.52278-0.33066-0.21242
   0   2  1019337.06  877.58   1-0.70500 0.66875 0.70624-0.56856 0.06470 0.47905
   0  -2 -1019851.27  883.07   1 0.07974-0.04352 0.86100-0.99819-0.50230-0.04137
   0   2  1020434.37 1061.08   1-0.82691 0.79046 0.55428-0.41698 0.09478 0.44865
   0  -2 -1140182.98 1894.16   1 0.85933-0.82122 0.38207-0.50921-0.33993-0.25746
   0   2  1134582.78 1498.24   1-0.75479 0.71639 0.64322-0.51606 0.12861 0.46951
   0  -2 -1134740.93 1470.71   1 0.05995-0.02157 0.86764-0.99429-0.49355-0.10448
   0   2  1136329.07 1653.14   1-0.81899 0.78041 0.55570-0.42920 0.14299 0.45468
   0  -2 -12121007.3 4755.10   1 0.85618-0.81597 0.37788-0.49452-0.35233-0.29937
   0   2  12109738.8 4174.85   1-0.79271 0.75216 0.58088-0.46424 0.18484 0.46766
   0   2  12113380.3 4421.25   1-0.80942 0.76866 0.55628-0.44035 0.18806 0.46394
   0  -2 -1328513.83 1801.50   1 0.85218-0.80986 0.37274-0.47888-0.36721-0.33880
   0   2  1326659.53 1212.79   1-0.82152 0.77898 0.51938-0.41357 0.23522 0.47130
   0   2  1327504.16 1433.75   1-0.79865 0.75571 0.55574-0.45036 0.23087 0.47547
   0  -2 -1431821.98 2469.00   1 0.84732-0.80290 0.36674-0.46237-0.38410-0.37622
   0   2  1427518.14 1296.15   1-0.84328 0.79861 0.45825-0.36298 0.28083 0.48005
   0   2  1430380.72 1587.77   1-0.78675 0.74163 0.55418-0.45936 0.27183 0.48884
   0  -2 -1510679.98 1244.24   1 0.84160-0.79508 0.35995-0.44508-0.40265-0.41198
   0   2  15 9785.38  448.43   1-0.85912 0.81232 0.39715-0.31242 0.32276 0.49247
   0   2  1510248.62  617.65   1-0.77378 0.72648 0.55168-0.46742 0.31128 0.50372
   0  -2 -16   83.52  246.02   1 0.83499-0.78637 0.35242-0.42704-0.42258-0.44636
   0   2  16  971.15  345.69   1-0.75975 0.71026 0.54830-0.47460 0.34947 0.51987
   0   3 -14 3313.14  610.26   1 0.87346-0.86653 0.40313 0.10793-0.27303-0.48729
   0  -3  14 3484.29  454.59   1-0.84660 0.83895-0.01684-0.49393 0.53195 0.22844
   0  -3  14 3688.81  384.28   1-0.42053 0.41145 0.39802-0.90982 0.81530-0.05414
   0   3 -13 7763.07  636.26   1 0.88028-0.87507 0.41505 0.08555-0.22984-0.47637
   0  -3  13 6540.13 1036.86   1-0.85115 0.84564 0.00177-0.50206 0.52491 0.18117
   0  -3  13 6943.14  606.76   1-0.42566 0.41880 0.40079-0.90204 0.81128-0.10448
   0   3 -1221044.09 1103.47   1 0.88520-0.88212 0.42676 0.06334-0.18514-0.46674
   0  -3  1224488.36 1700.71   1-0.85474 0.85137 0.01760-0.50740 0.51875 0.13301
   0  -3  1220337.65 1076.20   1-0.42741 0.42278 0.40173-0.89244 0.80989-0.15746
   0   3 -1192309.45 4480.20   1 0.88829-0.88734 0.43793 0.04165-0.13833-0.45923
   0  -3  1190011.96 4490.95   1-0.85746 0.85623 0.03042-0.50973 0.51364 0.08381
   0  -3  1182573.20 3985.87   1-0.42517 0.42278 0.40053-0.88069 0.81166-0.21360
   0   3 -10190593.5 7258.17   1 0.88932-0.89049 0.44860 0.02048-0.08870-0.45454
   0  -3  10183691.1 7059.50   1-0.85936 0.86028 0.03990-0.50872 0.50980 0.03333
   0  -3  10172596.2 6556.79   1-0.41809 0.41793 0.39670-0.86632 0.81720-0.27351
   0   3  -970790.95 2812.23   1 0.88787-0.89116 0.45874-0.00016-0.03524-0.45367
   0  -3   963877.88 2708.11   1-0.86046 0.86352 0.04562-0.50395 0.50745-0.01863
   0  -3   965908.75 2588.01   1-0.40493 0.40700 0.38956-0.84863 0.82720-0.33788
   0   3  -8103820.6 2876.89   1 0.88332-0.88851 0.46816-0.01986 0.02348-0.45842
   0  -3   899026.68 3855.60   1-0.86073 0.86594 0.04704-0.49488 0.50687-0.07235
   0  -3   898682.33 3757.47   1-0.38395 0.38824 0.37805-0.82658 0.84240-0.40745
   0   3  -7 2133.55  282.50   1 0.87437-0.88172 0.47691-0.03914 0.08956-0.47013
   0  -3   7 3987.75  587.91   1-0.86005 0.86740 0.04346-0.48082 0.50834-0.12814
   0  -3   7 3124.83  363.09   1-0.35266 0.35918 0.36064-0.79863 0.86345-0.48287
   0   3  -617941.23  867.88   1 0.85888-0.86839 0.48440-0.05716 0.16635-0.49256
   0  -3   617031.79  776.26   1 0.31681-0.30722 0.34314-0.77091 0.88424-0.55793
   0  -3   621823.73 1461.37   1-0.85819 0.86768 0.03401-0.46088 0.51219-0.18631
   0  -3   620774.85  937.71   1-0.30757 0.31632 0.33507-0.76251 0.89057-0.56436
   0   3  -5196804.6 2305.33   1 0.83266-0.84434 0.48947-0.07276 0.25899-0.53083
   0  -3   5187902.3 4372.66   1 0.23868-0.22696 0.30933-0.72651 0.92050-0.64859
   0  -3   5202221.5 2585.75   1-0.85473 0.86636 0.01756-0.43393 0.51876-0.24719
   0  -3   5195384.2 2213.65   1-0.24254 0.25343 0.29823-0.71536 0.92316-0.65117
   0   3  -5179668.7 4210.66   1-0.73642 0.72545 0.54171-0.12500 0.40524-0.67682
   0   3  -4225488.3 2511.98   1 0.78759-0.80125 0.48881-0.08229 0.37517-0.59263
   0  -3   4218798.5 2365.11   1 0.12077-0.10702 0.25526-0.66175 0.95929-0.74203
   0  -3   4201147.0 2451.28   1-0.84897 0.86275-0.00731-0.39857 0.52837-0.31112
   0  -3   4223538.6 2460.73   1-0.15453 0.16767 0.24545-0.65202 0.95701-0.73942
   0   3  -4206745.8 2307.70   1-0.67524 0.66211 0.51961-0.11348 0.52348-0.74075
   0   3  -3293248.0 3129.37   1 0.70653-0.72246 0.47598-0.08006 0.52368-0.68675
   0  -3   3280722.5 2946.43   1-0.04851 0.06439 0.17124-0.56715 0.98403-0.82108
   0  -3   3304701.9 3652.72   1-0.83979 0.85571-0.04235-0.35304 0.54125-0.37831
   0  -3   3294469.4 3152.28   1-0.03696 0.05237 0.17226-0.56828 0.98435-0.82116
   0   3  -3282135.0 3028.72   1-0.58262 0.56714 0.47920-0.08360 0.65643-0.81936
   0   3  -2237101.2 2512.59   1 0.55752-0.57556 0.43425-0.04886 0.70751-0.81629
   0  -3   2231398.7 2427.28   1-0.27091 0.28894 0.05005-0.43535 0.96130-0.85263
   0  -3   2226027.7 2830.70   1-0.82539 0.84346-0.08963-0.29527 0.55738-0.44876
   0  -3   2249058.1 2678.33   1 0.11151-0.09383 0.07621-0.46166 0.99083-0.88207
   0   3  -2224302.0 2418.75   1-0.44783 0.43016 0.41160-0.02660 0.79373-0.90235
   0   3  -119993.93  829.24   1 0.30368-0.32394 0.33758 0.03716 0.89096-0.94534
   0  -3   120222.12  833.02   1-0.50736 0.52751-0.09488-0.27980 0.85648-0.80214
   0  -3   123035.54 1878.45   1-0.80224 0.82248-0.15138-0.22312 0.57748-0.52319
   0  -3   121494.05  926.31   1 0.27918-0.25930-0.03787-0.33703 0.95948-0.90507
   0   3  -119493.65  822.47   1-0.26468 0.24479 0.31026 0.06446 0.91306-0.96742
   0   3   0  832.27  151.86   1 0.69472-0.71692 0.22512 0.13907-0.68313 0.68313
   0   3   0 1221.45  110.00   1-0.02967 0.00745 0.18095 0.18321 0.98304-0.98304
   0  -3   0 1247.96  195.47   1-0.76795 0.79031-0.22987-0.13416 0.59783-0.59783
   0   3   0  747.60  170.91   1-0.87256 0.85026 0.12928 0.23479 0.47108-0.47108
   0  -3   0 1376.42  164.25   1 0.44221-0.42028-0.15621-0.20814 0.88319-0.88319
   0   3   0 1009.82   94.29   1-0.04897 0.02680 0.17987 0.18448 0.98246-0.98246
   0   3   191468.79 2149.89   1 0.79957-0.82391 0.31528 0.03837-0.51114 0.56541
   0   3   195987.40 2241.66   1-0.33341 0.30900 0.01393 0.33968 0.94267-0.88832
   0  -3  -197069.93 2449.86   1-0.71633 0.74081-0.32611-0.02746 0.61685-0.67114
   0   3   185117.91 2066.54   1-0.86016 0.83567 0.04405 0.30938 0.50810-0.45379
   0  -3  -197132.44 2287.23   1 0.57561-0.55123-0.26148-0.09240 0.77478-0.82921
   0   3   199633.32 2338.64   1 0.16304-0.18738 0.04155 0.31216 0.98574-0.93136
   0   3   2164135.7 3828.73   1 0.85201-0.87871 0.37253-0.02951-0.36781 0.47643
   0  -3  -2170566.4 4072.20   1-0.64148 0.66822-0.43911 0.09589 0.62902-0.73774
   0   3   2154281.6 3628.73   1-0.83836 0.81172-0.04741 0.39035 0.54304-0.43441
   0  -3  -2169976.4 3987.25   1 0.67434-0.64775-0.34477 0.00146 0.65298-0.76184
   0   3   2167838.0 3938.15   1 0.33954-0.36601-0.08094 0.42425 0.93709-0.82827
   0  -3  -3618225.8 6617.87   1 0.66532-0.63652 0.20249-0.53494-0.71856 0.55558
   0   3   3590121.0 6161.66   1-0.80521 0.77649-0.14377 0.47640 0.57529-0.41243
   0   3   3651628.6 6748.95   1 0.53647-0.56529 0.56268-0.23024-0.62894 0.79210
   0  -3  -3654884.0 6916.17   1 0.74071-0.71191-0.40618 0.07346 0.53511-0.69840
   0   3   3609140.1 6306.21   1 0.46930-0.49777-0.17676 0.50956 0.86516-0.70182
   0  -3  -4134704.9 3183.36   1 0.73475-0.70402 0.25748-0.57954-0.62756 0.41046
   0   3   4120731.7 2890.87   1 0.88685-0.91782 0.43190-0.10993-0.16417 0.38146
   0   3   4123389.8 2904.06   1-0.76202 0.73118-0.24203 0.56420 0.60060-0.38345
   0   3   4135490.0 3172.37   1 0.39901-0.42999 0.68572-0.36381-0.60873 0.82628
   0  -3  -4133133.2 3147.44   1 0.78336-0.75235-0.45030 0.12816 0.42844-0.64616
   0   3   4121382.9 2932.28   1 0.55812-0.58877-0.24619 0.56847 0.79239-0.57461
   0  -3  -560598.33 1565.84   1 0.77573-0.74287 0.29301-0.60453-0.55891 0.28753
   0   3   549300.55 1295.08   1 0.88932-0.92241 0.44844-0.13698-0.08945 0.36107
   0   3   552461.64 1345.03   1-0.70916 0.67620-0.33802 0.64972 0.61872-0.34729
   0   3   557890.77 1404.26   1 0.23495-0.26790 0.79272-0.48154-0.56247 0.83446
   0   3   561181.64 1544.53   1-0.81206 0.77927 0.48002-0.16851-0.33185 0.60360
   0  -3  -6 5372.24  736.04   1 0.80020-0.76521 0.31589-0.61688-0.50978 0.18412
   0   3   6 4176.48  507.66   1-0.65010 0.61479-0.42747 0.72856 0.62819-0.30202
   0   3   6 4249.40  236.12   1 0.05546-0.09036 0.86908-0.56844-0.49153 0.81774
   0   3   6 5267.74  395.77   1-0.82772 0.79274 0.50282-0.20185-0.24906 0.57516
   0  -3  -735313.12 2465.32   1 0.81481-0.77760 0.33090-0.62140-0.47600 0.09584
   0   3   730911.65 1280.54   1-0.58816 0.55071-0.50560 0.79616 0.63120-0.25067
   0   3   736873.55 2510.17   1-0.12277 0.08588 0.90773-0.61767-0.40118 0.78172
   0   3   734244.31 1485.38   1-0.83623 0.79905 0.51954-0.22910-0.17544 0.55589
   0  -3  -8120540.6 3359.03   1 0.82362-0.78431 0.34005-0.62005-0.45387 0.01939
   0   3   8113602.6 2978.37   1-0.28592 0.24686 0.90965-0.63015-0.30127 0.73617
   0  -3  -8111394.8 2924.37   1 0.52847-0.48883 0.57090-0.85070-0.62832 0.19322
   0   3   8113436.9 3089.06   1-0.83980 0.80048 0.53183-0.25211-0.10899 0.54375
   0  -3  -996234.80 3732.79   1 0.82858-0.78717 0.34536-0.61485-0.44065-0.04812
   0   3   997640.47 3659.00   1-0.42493 0.38360 0.88264-0.61330-0.20093 0.69043
   0  -3  -995053.07 3560.44   1 0.47506-0.43326 0.62215-0.89142-0.62228 0.13280
   0   3   9103838.1 2888.59   1-0.83967 0.79816 0.54090-0.27172-0.04857 0.53768
   0  -3 -1060185.79 2471.81   1 0.83086-0.78735 0.34784-0.60683-0.43435-0.10873
   0   3  1060448.17 2301.47   1-0.53930 0.49582 0.83549-0.57671-0.10538 0.64928
   0  -3 -1059910.12 2277.39   1 0.43015-0.38619 0.66092-0.91967-0.61493 0.07106
   0   3  1063548.12 2542.68   1-0.83679 0.79308 0.54747-0.28882 0.00717 0.53627
   0  -3 -1137400.75 3084.61   1 0.83117-0.78556 0.34818-0.59667-0.43348-0.16391
   0   3  1133730.05 1469.37   1-0.62979 0.58404 0.77654-0.52802-0.01839 0.61651
   0   3  1133621.82 1606.33   1-0.83172 0.78582 0.55203-0.30392 0.05916 0.53862
   0  -3 -1219827.02 2331.21   1 0.82993-0.78222 0.34682-0.58480-0.43694-0.21477
   0   3  1217420.97  824.80   1-0.70188 0.65396 0.70967-0.47159 0.06097 0.59154
   0   3  1218473.55 1021.83   1-0.82483 0.77673 0.55493-0.31737 0.10812 0.54401
   0  -3 -13  397.84  239.03   1 0.82738-0.77757 0.34407-0.57154-0.44389-0.26212
   0   3  13  401.19  174.44   1-0.75753 0.70746 0.63922-0.41166 0.13241 0.57447
   0   3  13 1403.53  474.38   1-0.81665 0.76641 0.55596-0.32927 0.15482 0.55152
   0  -3 -1437046.23 2877.37   1 0.82368-0.77177 0.34012-0.55709-0.45371-0.30661
   0   3  1435857.21 1633.19   1-0.80012 0.74790 0.56658-0.34954 0.19694 0.56432
   0   3  1438971.39 1937.65   1-0.80678 0.75436 0.55625-0.34011 0.19920 0.56147
   0  -3 -1520597.37 2401.29   1 0.81891-0.76489 0.33512-0.54159-0.46591-0.34872
   0   3  1525339.64 1781.61   1-0.79561 0.74101 0.55542-0.34984 0.24186 0.57314
   0  -3 -1616940.85 2377.85   1 0.81353-0.75722 0.32908-0.52470-0.47944-0.38896
   0   3  1617391.66 1167.38   1-0.78321 0.72643 0.55357-0.35855 0.28306 0.58628
   0  -4  1239884.97 3258.29   1-0.83138 0.83547-0.07086-0.54024 0.55115 0.10061
   0  -4  1234811.12 1710.29   1-0.27186 0.27461 0.31444-0.92654 0.90951-0.25708
   0   4 -1125186.96 1692.55   1 0.88562-0.89215 0.42798 0.17294-0.18025-0.41730
   0  -4  1126770.60 2576.90   1-0.83433 0.84056-0.06118-0.53943 0.54784 0.04960
   0  -4  1124952.58 1676.60   1-0.26209 0.26707 0.30874-0.91030 0.91432-0.31626
   0   4 -10   10.54  188.80   1 0.88869-0.89734 0.44019 0.15022-0.12827-0.41497
   0  -4  10  589.97  252.08   1-0.83624 0.84460-0.05475-0.53537 0.54562-0.00248
   0  -4  10  322.63  192.35   1-0.24469 0.25170 0.29950-0.89084 0.92218-0.37820
   0   4  -937327.11  889.72   1 0.88915-0.89993 0.45189 0.12801-0.07211-0.41680
   0  -4   937566.39 2396.52   1-0.83706 0.84757-0.05191-0.52772 0.54463-0.05580
   0  -4   936019.58 1665.06   1-0.22129 0.23055 0.28565-0.86644 0.93243-0.44285
   0   4  -885247.83 3303.84   1 0.88628-0.89920 0.46302 0.10638-0.01018-0.42440
   0  -4   885970.57 3453.69   1-0.83672 0.84938-0.05307-0.51607 0.54503-0.11052
   0  -4   879832.89 3084.01   1-0.18885 0.20037 0.26625-0.83648 0.94522-0.51004
   0   4  -791787.32 3536.49   1 0.87893-0.89378 0.47320 0.08591 0.05962-0.44019
   0  -4   799676.72 3977.96   1-0.83506 0.84985-0.05874-0.49991 0.54700-0.16681
   0  -4   788249.65 3382.22   1-0.14544 0.15921 0.23990-0.79958 0.95983-0.57905
   0   4  -6189203.7 4984.71   1 0.86459-0.88161 0.48225 0.06633 0.14108-0.46728
   0  -4   6187818.5 4880.82   1 0.02676-0.00983 0.20949-0.75853 0.97744-0.65155
   0  -4   6212355.0 5707.48   1-0.83180 0.84874-0.06953-0.47864 0.55070-0.22481
   0  -4   6193882.4 5072.67   1-0.08888 0.10491 0.20495-0.75408 0.97472-0.64834
   0   4  -588994.57 3369.12   1 0.83900-0.85819 0.48876 0.04930 0.23912-0.51095
   0  -4   581597.93 3056.07   1-0.07812 0.09716 0.15581-0.69427 0.98469-0.71311
   0  -4   595487.67 3715.15   1-0.82653 0.84562-0.08614-0.45153 0.55624-0.28467
   0  -4   585132.90 3218.70   1-0.01599 0.03438 0.15948-0.69810 0.98707-0.71517
   0   4  -4 1427.61  180.58   1 0.79431-0.81544 0.48928 0.03867 0.36008-0.57754
   0  -4   4 1395.23  160.29   1-0.21236 0.23355 0.08332-0.61112 0.97363-0.75629
   0  -4   4 1264.46  287.36   1-0.81867 0.83990-0.10943-0.41775 0.56372-0.34646
   0  -4   4 1457.74  212.40   1 0.07215-0.05153 0.10228-0.63032 0.99213-0.77461
   0   4  -4 1019.14  169.04   1-0.65625 0.63588 0.51187 0.01553 0.55436-0.77163
   0   4  -3 1109.28  143.00   1 0.71565-0.73908 0.47787 0.03945 0.50938-0.67245
   0  -4   3  968.42  112.39   1-0.37127 0.39459-0.00882-0.50832 0.92847-0.76543
   0  -4   3  998.88  253.79   1-0.80657 0.83002-0.14021-0.37657 0.57425-0.41139
   0  -4   3 1248.91  181.86   1 0.17565-0.15282 0.03298-0.55045 0.98389-0.82076
   0   4  -3 1275.51  187.68   1-0.56769 0.54486 0.47212 0.04474 0.67440-0.83733
   0   4  -2144761.3 3753.21   1 0.57941-0.60503 0.44190 0.06485 0.68483-0.79355
   0  -4   2151372.3 4053.63   1-0.79058 0.81615-0.17985-0.32646 0.58534-0.47677
   0  -4   2154089.8 4020.61   1 0.29099-0.26594-0.04621-0.46068 0.95560-0.84678
   0   4  -2135745.6 3544.88   1-0.45042 0.42541 0.41297 0.09330 0.79155-0.90017
   0   4  -1218651.2 2330.14   1 0.37243-0.40009 0.36610 0.13017 0.85279-0.90718
   0  -4   1219190.4 2621.52   1-0.76830 0.79599-0.22914-0.26670 0.59766-0.54337
   0  -4   1232411.5 2563.59   1 0.40786-0.38079-0.13052-0.36582 0.90366-0.84921
   0   4   0274155.7 2897.31   1 0.11062-0.14025 0.25043 0.23512 0.96179-0.96179
   0  -4   0284526.3 3329.33   1-0.73759 0.76740-0.28891-0.19647 0.61031-0.61031
   0  -4   0275132.8 3140.95   1 0.51586-0.48661-0.21273-0.27309 0.82983-0.82983
   0   4   1118616.1 2829.20   1 0.83057-0.86267 0.34752 0.12733-0.43516 0.48947
   0   4   1120575.6 2814.06   1-0.14664 0.11478 0.11954 0.35549 0.98193-0.92760
   0  -4  -1122083.3 2961.69   1-0.69577 0.72771-0.35949-0.11541 0.62181-0.67610
   0  -4  -1123929.7 2952.20   1 0.60594-0.57417-0.28635-0.18903 0.74217-0.79660
   0   4   1113526.9 2677.46   1 0.02932-0.06103 0.13028 0.34487 0.99104-0.93666
   0   4   2  372.52  104.98   1 0.86235-0.89655 0.38622 0.07813-0.32736 0.43598
   0   4   2  512.80  129.99   1-0.35427 0.32030 0.00145 0.46302 0.93513-0.82644
   0  -4  -2  546.36  115.94   1-0.64030 0.67453-0.44068-0.02396 0.62912-0.73785
   0  -4  -2 1031.00  188.32   1 0.67834-0.64436-0.34831-0.11648 0.64693-0.75579
   0   4   3  211.30  118.31   1 0.87932-0.91564 0.41309 0.04071-0.23693 0.39991
   0   4   3  386.04  181.38   1-0.50172 0.46562-0.09117 0.54511 0.86020-0.69716
   0  -4  -3  368.60  170.54   1-0.56691 0.60328-0.52975 0.07563 0.63084-0.79393
   0  -4  -3  386.20  132.74   1 0.73239-0.69621-0.39812-0.05609 0.55235-0.71564
   0   4   3  144.40   81.15   1 0.30868-0.34470-0.05880 0.51304 0.94934-0.78610
   0  -4  -4 4333.03  293.84   1 0.60520-0.56679 0.15834-0.60160-0.78016 0.56285
   0   4   4 3772.20  278.82   1 0.88704-0.92549 0.43259 0.01071-0.16130 0.37860
   0   4   4 4115.69  299.21   1 0.47401-0.51243 0.62310-0.17984-0.62213 0.83968
   0  -4  -4 4353.41  343.13   1 0.77125-0.73286-0.43719-0.00643 0.46262-0.68034
   0  -4  -5121234.1 2909.32   1 0.67061-0.63006 0.20650-0.63926-0.71248 0.44085
   0   4   5122971.3 2920.32   1 0.36020-0.40079 0.71444-0.28171-0.59984 0.87178
   0   4   5127527.6 3080.86   1-0.80074 0.76068 0.46585-0.03295-0.37653 0.64828
   0  -4  -6172881.6 4626.03   1 0.71360-0.67121 0.24014-0.66253-0.65809 0.33244
   0   4   6143140.3 3763.59   1-0.78443 0.74190-0.19405 0.61663 0.58906-0.26334
   0   4   6174165.7 4543.54   1 0.22894-0.27143 0.79591-0.37396-0.56044 0.88683
   0   4   6178345.5 4721.54   1-0.81879 0.77654 0.48920-0.06683-0.30041 0.62651
   0  -4  -7134558.2 3645.18   1 0.74278-0.69826 0.26423-0.67608-0.61518 0.23525
   0   4   7112587.0 3009.23   1-0.75574 0.71108-0.25458 0.66669 0.60336-0.22335
   0   4   7127271.2 3342.33   1 0.08395-0.12832 0.85953-0.44814-0.50413 0.88470
   0   4   7136091.7 3665.20   1-0.83034 0.78588 0.50734-0.09551-0.23050 0.61094
   0  -4  -866759.01 2840.28   1 0.76234-0.71568 0.28108-0.68239-0.58294 0.14873
   0   4   853952.43 2242.88   1-0.72557 0.67879-0.31030 0.71194 0.61420-0.17990
   0   4   867998.65 2582.25   1-0.06737 0.02084 0.89955-0.49869-0.43158 0.86652
   0   4   869918.65 2752.06   1-0.83697 0.79032 0.52146-0.12016-0.16599 0.60078
   0  -4  -928451.22 1373.46   1 0.77532-0.72653 0.29265-0.68342-0.55966 0.07118
   0   4   920867.05  960.01   1-0.69551 0.64661-0.35990 0.75108 0.62187-0.13328
   0   4   927471.59 1187.39   1-0.21509 0.16662 0.91293-0.52268-0.34681 0.83608
   0   4   926872.61 1293.53   1-0.83987 0.79110 0.53235-0.14181-0.10590 0.59501
   0  -4 -10  967.91  282.28   1 0.78366-0.73274 0.30026-0.68050-0.54379 0.00104
   0   4  10  712.73  144.11   1-0.35239 0.30158 0.90040-0.52018-0.25514 0.79903
   0   4  10 1017.11  293.56   1-0.83971 0.78875 0.54073-0.16073-0.04987 0.59332
   0  -4 -1115297.09 2035.13   1 0.78858-0.73553 0.30484-0.67454-0.53404-0.06299
   0   4  1115532.03  757.20   1-0.47477 0.42181 0.86526-0.49560-0.16096 0.75924
   0   4  1114573.84  832.28   1-0.83710 0.78395 0.54703-0.17757 0.00290 0.59488
   0  -4 -1236384.82 1056.56   1 0.79091-0.73573 0.30702-0.66619-0.52932-0.12198
   0   4  1237412.46  749.40   1-0.57851 0.52323 0.81273-0.45330-0.06913 0.72162
   0   4  1239041.43 2068.84   1-0.83244 0.77709 0.55156-0.19264 0.05296 0.59917
   0  -4 -1322180.45 2177.11   1 0.79116-0.73385 0.30726-0.65590-0.52880-0.17677
   0   4  1322032.33 1248.25   1-0.82600 0.76846 0.55458-0.20621 0.10072 0.60575
   0  -4 -1410246.24 1273.01   1 0.78970-0.73025 0.30588-0.64398-0.53179-0.22806
   0   4  1410515.10 1002.95   1-0.81826 0.75855 0.55579-0.21835 0.14673 0.61394
   0  -4 -15 3132.23  655.24   1 0.78673-0.72515 0.30311-0.63067-0.53774-0.27639
   0   4  15 3508.55  631.03   1-0.80877 0.74687 0.55628-0.22939 0.19087 0.62414
   0  -5  1055436.75 2821.73   1-0.80570 0.82176-0.14249-0.56892 0.57492-0.03204
   0  -5   983772.95 5368.78   1-0.80613 0.82431-0.14138-0.55956 0.57459-0.08601
   0  -5   833149.77 3590.22   1-0.80515 0.82545-0.14391-0.54656 0.57533-0.14103
   0  -5   833576.36 1562.32   1 0.01423 0.00487 0.14005-0.83183 0.99004-0.55500
   0  -5   7  -39.23  338.20   1-0.80260 0.82503-0.15045-0.52955 0.57721-0.19720
   0  -5   7  493.67  155.11   1 0.06187-0.04054 0.10904-0.79024 0.99210-0.61145
   0   5  -645064.39 2185.18   1 0.88002-0.90454 0.47212 0.19782 0.05149-0.37770
   0  -5   647815.41 3188.21   1-0.79824 0.82278-0.16139-0.50814 0.58031-0.25458
   0  -5   651647.12 2505.16   1 0.11945-0.09590 0.07090-0.74153 0.99030-0.66402
   0   5  -549103.04 2102.34   1 0.86263-0.88932 0.48305 0.17636 0.15005-0.42188
   0  -5   555217.89 2312.90   1-0.79169 0.81836-0.17721-0.48185 0.58464-0.31320
   0  -5   555450.72 2167.00   1 0.18691-0.16114 0.02530-0.68535 0.98205-0.71015
   0   5  -499827.25 3777.70   1 0.82846-0.85705 0.48939 0.16001 0.27229-0.48975
   0  -5   4113464.8 4633.30   1-0.78250 0.81128-0.19842-0.45017 0.59018-0.37303
   0  -5   4103026.9 4112.63   1 0.26414-0.23613-0.02728-0.62214 0.96409-0.74644
   0   5  -360636.96 2308.86   1 0.76346-0.79423 0.48626 0.15258 0.42504-0.58814
   0  -5   368278.14 2741.81   1-0.77000 0.80091-0.22557-0.41256 0.59682-0.43396
   0  -5   362517.59 2436.27   1 0.34649-0.31629-0.08596-0.55292 0.93410-0.77086
   0   5  -267179.93 2514.93   1 0.72823-0.76097 0.25208 0.37598-0.63727 0.52872
   0   5  -271798.98 2692.28   1 0.65142-0.68454 0.46276 0.16539 0.60124-0.70995
   0  -5   278568.15 3126.36   1-0.75338 0.78640-0.25919-0.36847 0.60434-0.49576
   0  -5   275411.07 2882.50   1 0.43139-0.39919-0.14808-0.48024 0.88992-0.78103
   0   5  -199202.04 3696.63   1 0.79548-0.83035 0.31136 0.30617-0.51985 0.46558
   0   5  -1104415.5 2726.71   1 0.48135-0.51646 0.40792 0.20979 0.77582-0.83020
   0  -5   1110206.9 3078.22   1-0.73155 0.76670-0.29978-0.31741 0.61233-0.55804
   0  -5   1104548.3 2876.81   1 0.51283-0.47844-0.21036-0.40743 0.83231-0.77787
   0   5   054055.76 2289.44   1 0.83845-0.87594 0.35632 0.25037-0.41233 0.41233
   0   5   058416.16 2200.08   1 0.26494-0.30227 0.32089 0.28600 0.90930-0.90930
   0  -5   063803.28 2567.56   1-0.70320 0.74047-0.34770-0.25902 0.62016-0.62016
   0  -5   060097.60 2314.14   1 0.58516-0.54821-0.26926-0.33819 0.76490-0.76490
   0   5   153750.17 2288.28   1 0.86394-0.90353 0.38845 0.20774-0.32047 0.37478
   0   5   159205.84 2235.68   1 0.03915-0.07830 0.21565 0.38071 0.97568-0.92136
   0  -5  -159143.63 2355.11   1-0.66728 0.70685-0.40340-0.19321 0.62609-0.68046
   0  -5  -156782.47 2265.56   1 0.64877-0.60961-0.32249-0.27437 0.68926-0.74369
   0   5   297733.79 3678.93   1 0.87864-0.92032 0.41176 0.17388-0.24172 0.35037
   0   5   2105914.8 2779.52   1-0.16204 0.12061 0.11116 0.47471 0.98050-0.87183
   0  -5  -2109688.5 3002.51   1-0.62098 0.66269-0.46576-0.12032 0.63043-0.73915
   0  -5  -2112713.1 3019.39   1 0.70090-0.65953-0.36863-0.21765 0.61060-0.71946
   0   5   394855.67 3588.51   1 0.88607-0.92988 0.42934 0.14580-0.17474 0.33771
   0   5   3108366.2 2863.79   1-0.32346 0.27994 0.01984 0.55547 0.94603-0.78299
   0  -5  -3110582.6 3009.46   1-0.56292 0.60677-0.53416-0.04139 0.63070-0.79379
   0  -5  -3113805.8 3060.35   1 0.74203-0.69845-0.40747-0.16823 0.53230-0.69559
   0   5   484858.06 3203.19   1-0.44418 0.39852-0.05404 0.61883 0.89430-0.67691
   0   5   489848.44 3422.02   1 0.49186-0.53773 0.60666-0.04206-0.62452 0.84206
   0  -5  -492135.90 3537.07   1 0.77350-0.72772-0.43958-0.12553 0.45656-0.67428
   0   5   5 6958.56  596.46   1 0.40578-0.45381 0.68047-0.12640-0.61015 0.88208
   0  -5  -6 1228.27  227.66   1 0.59962-0.54947 0.15436-0.69793-0.78525 0.45929
   0   5   6 1340.15  199.78   1 0.30609-0.35592 0.75130-0.20801-0.58468 0.91107
   0   5   6 1652.19  245.08   1-0.81614 0.76660 0.48549 0.05826-0.31336 0.63946
   0  -5  -714119.33 1052.34   1 0.64485-0.59257 0.18715-0.72021-0.74103 0.36075
   0   5   713969.62  785.31   1 0.19144-0.24346 0.81481-0.28209-0.54719 0.92797
   0   5   714513.54  795.81   1-0.82763 0.77591 0.50267 0.03054-0.24965 0.63010
   0  -5  -8 1891.65  323.92   1 0.67734-0.62293 0.21166-0.73421-0.70455 0.26994
   0   5   8 1892.63  205.94   1 0.06661-0.12045 0.86546-0.34331-0.49652 0.93146
   0   5   8 2212.26  326.57   1-0.83497 0.78105 0.51657 0.00611-0.18963 0.62442
   0  -5  -962999.93 2621.92   1 0.70023-0.64404 0.22946-0.74164-0.67603 0.18755
   0   5   963352.06 2447.49   1-0.06572 0.00973 0.89926-0.38765-0.43244 0.92175
   0   5   964794.39 2614.21   1-0.83893 0.78281 0.52775-0.01560-0.13291 0.62205
   0  -5 -10113437.5 5480.18   1 0.71680-0.65848 0.24273-0.74437-0.65365 0.11090
   0   5  10113951.9 5384.68   1-0.19907 0.14119 0.91278-0.41178-0.35664 0.90027
   0   5  10124390.3 2222.09   1-0.84013 0.78191 0.53660-0.03526-0.07893 0.62238
   0  -5 -11  709.21  257.43   1 0.72828-0.66783 0.25212-0.74322-0.63721 0.04017
   0   5  11  381.17  122.73   1-0.32931 0.26927 0.90430-0.41385-0.27161 0.86960
   0   5  11 1864.13  465.55   1-0.83890 0.77849 0.54357-0.05277-0.02763 0.62543
   0  -5 -12  594.88  209.32   1 0.73584-0.67326 0.25839-0.73896-0.62590-0.02539
   0   5  12  -98.09  319.02   1-0.83562 0.77302 0.54887-0.06860 0.02148 0.63065
   0  -5 -13 3546.39  846.69   1 0.74030-0.67559 0.26214-0.73217-0.61904-0.08653
   0   5  13 3003.64  407.45   1-0.83054 0.76574 0.55270-0.08297 0.06871 0.63777
   0  -5 -14 3298.22  670.24   1 0.74225-0.67540 0.26378-0.72328-0.61601-0.14384
   0   5  14 2890.73  477.14   1-0.82381 0.75682 0.55521-0.09602 0.11430 0.64652
   0  -6   838581.23 2181.90   1-0.76832 0.79608-0.22909-0.58272 0.59765-0.16335
   0  -6   759387.04 2914.46   1-0.76512 0.79499-0.23572-0.56563 0.59918-0.21917
   0  -6   662576.18 4054.29   1-0.75997 0.79197-0.24617-0.54471 0.60152-0.27580
   0  -6   527626.69 3354.38   1-0.75258 0.78669-0.26074-0.51967 0.60467-0.33323
   0  -6   4 2058.18  519.70   1-0.74256 0.77880-0.27977-0.49018 0.60854-0.39139
   0  -6   4 1583.24  172.26   1 0.42784-0.39268-0.14542-0.62540 0.89207-0.67429
   0  -6   320937.01 2094.08   1-0.72942 0.76778-0.30355-0.45592 0.61301-0.45015
   0  -6   319912.67 1351.83   1 0.48887-0.45153-0.19178-0.56852 0.85100-0.68767
   0  -6   2100367.1 4901.00   1-0.71256 0.75304-0.33241-0.41659 0.61786-0.50928
   0  -6   121395.84 2346.87   1-0.69166 0.73444-0.36707-0.37203 0.62197-0.56761
   0  -6   120955.38 1628.23   1 0.60279-0.56066-0.28374-0.45579 0.74573-0.69130
   0   6   026528.75 1172.89   1 0.44038-0.48511 0.39271 0.33589 0.80736-0.80736
   0  -6   031105.21 2375.44   1-0.66499 0.70991-0.40667-0.32190 0.62641-0.62641
   0  -6   025763.85 1254.31   1 0.65296-0.60862-0.32610-0.40284 0.68358-0.68358
   0   6   196129.91 3619.43   1 0.23566-0.28259 0.30799 0.40967 0.92173-0.86735
   0  -6  -1102976.9 4028.61   1-0.63192 0.67898-0.45171-0.26633 0.62977-0.68413
   0  -6  -198539.48 3800.88   1 0.69634-0.64979-0.36447-0.35388 0.61826-0.67270
   0   6   2 9366.41  530.93   1 0.04108-0.08975 0.21661 0.49057 0.97539-0.86676
   0  -6  -210783.96  706.60   1-0.59129 0.64049-0.50194-0.20557 0.63120-0.73993
   0  -6  -210744.89  852.84   1 0.73263-0.68388-0.39835-0.30943 0.55186-0.66072
   0   6   3  827.65  199.24   1-0.12743 0.07644 0.12991 0.56680 0.98330-0.82029
   0  -6  -3  544.46  183.50   1 0.76216-0.71119-0.42769-0.26950 0.48598-0.64928
   0   6   431788.55 1389.25   1-0.26388 0.21076 0.05409 0.63207 0.96303-0.74569
   0   6   435287.27 1624.37   1 0.48312-0.53643 0.61479 0.07114-0.62339 0.84094
   0  -6  -432121.44 1459.10   1 0.78558-0.73240-0.45277-0.23384 0.42173-0.63945
   0   6   561875.55 2962.84   1-0.37159 0.31637-0.00901 0.68465 0.92835-0.65661
   0   6   564026.82 3110.03   1 0.41289-0.46836 0.67487 0.00053-0.61160 0.88353
   0   6   565940.89 3199.23   1-0.80626 0.75165 0.47261 0.20307-0.35577 0.62751
   0   6   623376.50 1121.29   1-0.45367 0.39632-0.06007 0.72518 0.88914-0.56306
   0   6   624562.04 1166.47   1 0.33240-0.38958 0.73421-0.06959-0.59196 0.91835
   0   6   626090.82 1276.61   1-0.81957 0.76276 0.49030 0.17485-0.29649 0.62259
   0   6   727279.64 1281.18   1-0.51614 0.45666-0.10069 0.75526 0.85056-0.47013
   0   6   726121.97 1240.22   1 0.23903-0.29839 0.79052-0.13647-0.56384 0.94463
   0   6   729455.38 1424.02   1-0.82908 0.77007 0.50512 0.14949-0.23974 0.62018
   0  -6  -8 8255.71  411.69   1 0.56720-0.50532 0.13167-0.77555-0.81298 0.37837
   0   6   8 7316.62  407.16   1 0.13479-0.19633 0.84008-0.19659-0.52544 0.96062
   0   6   8 7879.82  509.07   1-0.83537 0.77417 0.51747 0.12660-0.18538 0.62017
   0  -6  -9  377.41  219.06   1 0.60251-0.53849 0.15641-0.78978-0.78263 0.29369
   0   6   9  154.61  123.07   1 0.02207-0.08538 0.87908-0.24618-0.47614 0.96545
   0   6   9 1229.78  499.33   1-0.83891 0.77552 0.52770 0.10585-0.13323 0.62237
   0  -6 -10 1903.82  345.27   1 0.62899-0.56285 0.17549-0.79835-0.75733 0.21407
   0   6  10 2425.12  267.86   1-0.09808 0.03261 0.90444-0.28208-0.41516 0.95883
   0   6  10 1613.27  287.92   1-0.84013 0.77466 0.53599 0.08669-0.08295 0.62640
   0  -6 -11 5230.83  440.06   1 0.64865-0.58038 0.18997-0.80232-0.73698 0.13939
   0   6  11 5656.96  546.68   1-0.83920 0.77153 0.54271 0.06943-0.03458 0.63238
   0  -6 -12 8640.41 1302.67   1 0.66296-0.59255 0.20070-0.80253-0.72124 0.06933
   0   6  1211039.67  761.62   1-0.83640 0.76654 0.54797 0.05363 0.01219 0.63994
   0  -7   467426.31 3174.15   1-0.69799 0.74168-0.35600-0.53528 0.62133-0.40419
   0  -7   329823.49 2649.39   1-0.68485 0.73082-0.37750-0.50410 0.62327-0.46018
   0  -7   215017.41 2045.69   1-0.66796 0.71608-0.40241-0.46866 0.62600-0.51727
   0  -7   1  985.37  283.84   1-0.64710 0.69737-0.43154-0.42899 0.62850-0.57413
   0  -7   0 1628.24  196.93   1-0.62162 0.67403-0.46494-0.38506 0.63040-0.63040
   0  -7  -129834.66 1988.03   1-0.59079 0.64533-0.50253-0.33694 0.63120-0.68557
   0  -7  -227518.38 1842.55   1-0.55379 0.61047-0.54408-0.28486 0.63030-0.73903
   0   7   329880.68 1976.01   1 0.51045-0.56903 0.58886 0.22894-0.62663 0.78979
   0  -7  -326335.38 1724.88   1 0.78726-0.72891-0.45466-0.36402 0.41651-0.57980
   0   7   4 7191.90  614.38   1 0.45862-0.51937 0.63677 0.17050-0.61982 0.83736
   0   7   4 5986.88  369.09   1-0.80577 0.74607 0.47199 0.33561-0.35769 0.57508
   0   7   513786.29  921.05   1 0.39814-0.46105 0.68640 0.11035-0.60854 0.88048
   0   7   515296.35 1001.58   1-0.81782 0.75593 0.48783 0.30924-0.30524 0.57699
   0   7   6  764.13  282.78   1 0.32973-0.39425 0.73599 0.04996-0.59125 0.91764
   0   7   6  332.76  315.84   1-0.82693 0.76285 0.50152 0.28502-0.25425 0.58035
   0   7   715086.89  933.06   1-0.36327 0.29637-0.00397 0.77992 0.93167-0.55124
   0   7   714990.49  940.68   1 0.25034-0.31704 0.78433-0.00893-0.56758 0.94836
   0   7   715766.09 1034.99   1-0.83344 0.76716 0.51328 0.26272-0.20473 0.58517
   0   7   8 9627.54  626.49   1-0.42583 0.35680-0.04248 0.80790 0.90380-0.46903
   0   7   8 8090.53  680.34   1 0.16127-0.23016 0.82875-0.06392-0.53586 0.97104
   0   7   811209.38  746.72   1-0.83762 0.76915 0.52331 0.24216-0.15660 0.59140
   0   7   9 7568.66  662.60   1-0.47493 0.40377-0.07371 0.82859 0.87692-0.38780
   0   7   910756.43  733.87   1-0.83978 0.76925 0.53171 0.22286-0.10970 0.59881
  -1   7   8 8340.05  605.38   1 0.08454-0.32972 0.85932-0.09459-0.50438 0.93932
  -1   7   8 8793.19  688.39   1-0.81054 0.56537 0.47805 0.28742-0.33834 0.77313
  -1   7   7 6713.27  650.88   1 0.15656-0.40001 0.83083-0.05544-0.53404 0.91482
   1  -7  -7 5725.79  623.83   1 0.79454-0.55046-0.46302-0.31333 0.39281-0.77382
  -1   7   621485.72 1175.07   1 0.22393-0.46520 0.79854-0.01258-0.55872 0.88511
   1  -7  -620999.60 1165.14   1 0.77767-0.53580-0.44406-0.34287 0.44500-0.77159
  -1   7   5 5638.89  602.62   1 0.28563-0.52471 0.76391 0.03261-0.57866 0.85065
   1  -7  -5 7206.36  692.00   1 0.75767-0.51800-0.42309-0.37443 0.49691-0.76906
  -1   7   4 1271.31  315.56   1 0.34029-0.57777 0.72828 0.07900-0.59481 0.81236
   1  -7  -4 2947.23  808.28   1 0.73448-0.49702-0.40012-0.40798 0.54812-0.76584
  -1   7   3 5072.46  520.55   1 0.39027-0.62559 0.69240 0.12540-0.60684 0.77000
   1  -7  -3 4964.07  875.34   1 0.70811-0.47287-0.37525-0.44343 0.59812-0.76141
  -1   7   237267.09 2461.61   1 0.43455-0.66770 0.65729 0.17104-0.61573 0.72450
   1  -7  -235576.32 2354.93   1 0.67871-0.44568-0.34865-0.48062 0.64636-0.75522
  -1   7   1 6705.65  632.57   1 0.47337-0.70436 0.62367 0.21518-0.62204 0.67643
   1  -7  -1 6099.28  874.94   1 0.64654-0.41572-0.32058-0.51927 0.69224-0.74667
  -1   7   0 7350.57  733.25   1 0.50709-0.73592 0.59213 0.25726-0.62628 0.62628
   1  -7   0 7104.34 1063.25   1 0.61204-0.38343-0.29142-0.55902 0.73516-0.73516
  -1   7  -133234.10 1766.87   1 0.53609-0.76275 0.56308 0.29683-0.62891 0.57453
   1  -7   128420.96 1590.89   1 0.57579-0.34938-0.26163-0.59939 0.77460-0.72017
   1  -7   2 3732.28  490.04   1-0.56009 0.78499-0.53725-0.33381 0.63059-0.52186
   1  -7   2 2984.50  485.14   1 0.53959-0.31591-0.23142-0.63981 0.80949-0.70060
   1  -6 -12 1351.19  420.93   1 0.74362-0.49704 0.26494-0.86691-0.61385-0.03745
  -1   6  12  730.21  192.66   1-0.29084 0.04476 0.90918-0.30798-0.29798 0.95033
  -1   6  12 1937.93  395.91   1-0.83800 0.59133 0.52448 0.07745-0.15050 0.80269
   1  -6 -1138828.85 1933.21   1 0.73551-0.49106 0.25812-0.87062-0.62641 0.02937
  -1   6  1135902.26 1744.42   1-0.20227-0.04163 0.91283-0.30109-0.35469 0.95268
  -1   6  1139222.11 1991.27   1-0.83350 0.58902 0.51340 0.09907-0.20417 0.80202
   1  -6 -1014239.40 1565.56   1 0.72308-0.48077 0.24785-0.87089-0.64475 0.10199
  -1   6  1015949.98 1029.75   1-0.11389-0.12829 0.90653-0.28417-0.40647 0.95015
  -1   6  1016472.08 1156.60   1-0.82619 0.58391 0.50031 0.12269-0.25900 0.80249
   1  -6  -9  291.26  228.79   1 0.70483-0.46464 0.23312-0.86669-0.66997 0.18148
  -1   6   9   15.05  174.63   1-0.02608-0.21394 0.89125-0.25835-0.45275 0.94206
  -1   6   9  840.84  286.11   1-0.81581 0.57572 0.48505 0.14849-0.31490 0.80404
   1  -6  -8 2756.40  507.41   1 0.67909-0.44044 0.21301-0.85689-0.70246 0.26785
  -1   6   8 3369.61  344.57   1 0.05912-0.29699 0.86791-0.22447-0.49318 0.92811
  -1   6   8 3756.03  461.21   1-0.80206 0.56416 0.46743 0.17664-0.37175 0.80654
   1  -6  -7  260.47  143.67   1 0.64093-0.40441 0.18424-0.83864-0.74515 0.36487
  -1   6   7  233.79  312.84   1 0.13977-0.37588 0.83801-0.18395-0.52743 0.90822
   1  -6  -7  170.18  190.88   1 0.78239-0.54570-0.44922-0.20563 0.43134-0.81235
   1  -6  -6 5908.15  491.90   1 0.58471-0.35032 0.14385-0.80875-0.79838 0.47242
  -1   6   6 6853.24  627.40   1 0.21596-0.44989 0.80266-0.13803-0.55596 0.88235
   1  -6  -6 6480.46  588.04   1 0.76078-0.52630-0.42627-0.23917 0.48938-0.81596
  -1   6   531527.15 1404.97   1-0.49248 0.26061-0.08511 0.76075 0.86614-0.59441
  -1   6   532914.89 1583.79   1 0.28621-0.51795 0.76356-0.08837-0.57884 0.85083
   1  -6  -531116.15 1509.36   1 0.73489-0.50261-0.40052-0.27550 0.54728-0.81943
  -1   6   444171.21 2236.87   1 0.34887-0.57891 0.72238-0.03644-0.59702 0.81456
   1  -6  -443066.08 2152.89   1 0.70453-0.47446-0.37195-0.31466 0.60438-0.82211
  -1   6   338193.48 1963.11   1 0.40591-0.63378 0.68037 0.01608-0.61018 0.77333
   1  -6  -337381.23  996.48   1 0.66966-0.44181-0.34065-0.35654 0.65991-0.82321
  -1   6   218025.62  980.87   1 0.45624-0.68195 0.63885 0.06814-0.61944 0.72821
   1  -6  -215709.69 1464.81   1 0.63047-0.40483-0.30689-0.40089 0.71296-0.82182
  -1   6   1 9975.11  899.00   1 0.50010-0.72364 0.59886 0.11865-0.62550 0.67989
   1  -6  -1 9523.16 1049.51   1 0.58739-0.36395-0.27107-0.44729 0.76255-0.81698
  -1   6   082564.01 4049.46   1 0.53787-0.75925 0.56124 0.16681-0.62904 0.62904
   1  -6   070636.19 3429.74   1 0.54227-0.32153-0.23354-0.49519 0.80709-0.80709
   1  -6   138441.25 2010.18   1-0.56946 0.78902-0.52692-0.21218 0.63092-0.57655
   1  -6   133922.26 2450.02   1 0.49377-0.27521-0.19555-0.54370 0.84731-0.79287
   1  -6   215014.50 1816.80   1-0.59656 0.81398-0.49571-0.25393 0.63117-0.52244
   1  -6   213592.66 1390.14   1 0.44423-0.22785-0.15773-0.59204 0.88191-0.77302
   1  -6   346310.58 2207.94   1-0.61911 0.83438-0.46811-0.29205 0.63052-0.46743
   1  -6   346537.42 2119.99   1 0.39493-0.18073-0.12095-0.63934 0.91071-0.74737
   1  -6   420850.60 2597.86   1-0.63761 0.85074-0.44426-0.32645 0.62934-0.41189
   1  -6   419507.06 2056.30   1 0.34684-0.13470-0.08622-0.68466 0.93395-0.71630
   1  -6   514645.95 2192.06   1-0.65252 0.86351-0.42415-0.35709 0.62793-0.35612
   1  -6   510875.68 1504.42   1 0.30167-0.09172-0.05380-0.72761 0.95189-0.67982
   1  -6   6 1546.66  358.68   1-0.66425 0.87310-0.40773-0.38404 0.62651-0.30033
   1  -6   6 1508.47  285.07   1 0.25999-0.05224-0.02437-0.76757 0.96530-0.63882
   1  -6   723115.68 3172.58   1-0.67314 0.87985-0.39490-0.40740 0.62523-0.24469
   1  -6   727591.98 1381.65   1 0.22245-0.01690 0.00176-0.80424 0.97494-0.59405
   1  -5 -14 6244.36 1049.66   1 0.80713-0.56368 0.32267-0.78216-0.49439-0.26546
  -1   5  14 8170.76  719.14   1-0.83933 0.59565 0.54227-0.08308-0.03810 0.79893
   1  -5 -13 8726.70 1363.24   1 0.80899-0.56767 0.32452-0.79455-0.49011-0.21546
  -1   5  1310274.46  632.63   1-0.44690 0.20554 0.87553-0.40554-0.18360 0.89066
  -1   5  13 9495.03  717.77   1-0.84008 0.59859 0.53460-0.06488-0.09193 0.79841
   1  -5 -12 3266.83  526.08   1 0.80932-0.57014 0.32485-0.80542-0.48934-0.16196
  -1   5  12 2669.22  323.73   1-0.36311 0.12390 0.89829-0.41775-0.24740 0.90007
  -1   5  12 4307.31  504.87   1-0.83818 0.59878 0.52506-0.04450-0.14747 0.79966
   1  -5 -11  689.26  202.87   1 0.80782-0.57077 0.32335-0.81446-0.49280-0.10422
  -1   5  11  -69.62  187.11   1-0.27480 0.03813 0.91061-0.42016-0.30865 0.90664
  -1   5  11  487.48  307.15   1-0.83345 0.59624 0.51330-0.02221-0.20465 0.80249
   1  -5 -10 9394.01 1513.27   1 0.80400-0.56908 0.31959-0.82123-0.50142-0.04132
  -1   5  1010004.49  822.97   1-0.18288-0.05161 0.91230-0.41130-0.36640 0.91003
  -1   5  1011056.98  954.18   1-0.82545 0.59044 0.49914 0.00248-0.26357 0.80707
   1  -5  -945293.28 2320.42   1 0.79710-0.56431 0.31290-0.82508-0.51644 0.02796
  -1   5   945868.04 2260.82   1-0.08979-0.14292 0.90323-0.39162-0.41965 0.90895
  -1   5   948107.07 2427.57   1-0.81378 0.58096 0.48231 0.02984-0.32423 0.81337
   1  -5  -871062.82 2819.06   1 0.78586-0.55521 0.30230-0.82502-0.53946 0.10525
  -1   5   870919.86 2776.49   1 0.00366-0.23422 0.88405-0.36190-0.46737 0.90230
   1  -5  -746860.23 2053.62   1 0.76820-0.53968 0.28626-0.81951-0.57263 0.19270
  -1   5   746047.76 2018.94   1 0.09502-0.32342 0.85557-0.32288-0.50889 0.88946
   1  -5  -748035.03 2152.14   1 0.77526-0.54596-0.44146-0.09190 0.45173-0.83275
   1  -5  -627220.70 1275.85   1 0.74050-0.51411 0.26230-0.80609-0.61874 0.29309
  -1   5   630921.03 1436.08   1 0.18184-0.40842 0.81937-0.27609-0.54364 0.87003
   1  -5  -629369.63 1402.40   1 0.74927-0.52218-0.41463-0.12931 0.51638-0.84296
   1  -5  -5  455.96  106.02   1 0.69614-0.47188 0.22623-0.78055-0.68132 0.40994
  -1   5   5  530.56  239.84   1 0.26365-0.48804 0.77682-0.22297-0.57186 0.84385
   1  -5  -5 -154.14  226.49   1 0.71746-0.49258-0.38394-0.17059 0.58123-0.85338
   1  -5  -4   52.38   68.65   1 0.62342-0.40077 0.17144-0.73604-0.76285 0.54554
  -1   5   4  171.85  101.03   1 0.74313-0.96597 0.48325 0.08174 0.46282-0.24536
  -1   5   4    7.01  219.75   1 0.33759-0.56019 0.73010-0.16551-0.59411 0.81165
   1  -5  -4  682.85  178.69   1 0.67941-0.45674-0.34927-0.21585 0.64529-0.86301
  -1   5   3 4845.45  389.63   1 0.70662-0.92746 0.47600 0.09931 0.52354-0.36047
  -1   5   3 5072.00  390.98   1-0.48332 0.26313-0.07915 0.65447 0.87185-0.70881
  -1   5   3 6448.29  592.71   1 0.40488-0.62532 0.68117-0.10605-0.60996 0.77312
   1  -5  -3 6215.06  960.15   1 0.63496-0.41449-0.31068-0.26501 0.70731-0.87060
  -1   5   262362.01 2330.00   1 0.61197-0.83062 0.45176 0.13412 0.64915-0.54044
  -1   5   265554.44 2437.01   1-0.20939-0.00873 0.08497 0.50089 0.97413-0.86546
  -1   5   270779.92 2777.22   1 0.46419-0.68246 0.63188-0.04622-0.62068 0.72945
   1  -5  -270349.25 2719.26   1 0.58430-0.36605-0.26855-0.31773 0.76581-0.87467
  -1   5   1135429.0 3694.26   1 0.51556-0.73167 0.58383 0.01234-0.62715 0.68154
   1  -5  -1117885.2 3347.96   1 0.52928-0.31368-0.22326-0.37348 0.81854-0.87298
   1  -5   081370.50 3183.22   1-0.55890 0.77311-0.53855-0.06859 0.63054-0.63054
   1  -5   075059.40 3019.89   1 0.46881-0.25539-0.17638-0.43089 0.86550-0.86550
   1  -5   165373.63 2678.57   1-0.59578 0.80785-0.49664-0.12104 0.63118-0.57681
   1  -5   161549.09 2516.88   1 0.40573-0.19448-0.12894-0.48885 0.90485-0.85040
   1  -5   2 4930.40  657.61   1-0.62640 0.83633-0.45885-0.16935 0.63013-0.52140
   1  -5   2 3358.37  404.31   1 0.34173-0.13256-0.08252-0.54583 0.93616-0.82733
   1  -5   3 9694.10 1345.03   1-0.65149 0.85928-0.42556-0.21318 0.62805-0.46496
   1  -5   3 8112.14 1050.72   1 0.27956-0.07258-0.03813-0.60075 0.95936-0.79613
   1  -5   461717.03 2528.36   1-0.67176 0.87741-0.39692-0.25236 0.62544-0.40799
   1  -5   461400.84 2449.38   1 0.22068-0.01589 0.00299-0.65241 0.97534-0.75769
   1  -5   5100253.2 5332.68   1-0.68787 0.89137-0.37290-0.28690 0.62271-0.35089
   1  -5   5105210.6 5029.32   1 0.16581 0.03676 0.03968-0.69972 0.98535-0.71346
   1  -5   635908.40 2645.47   1-0.70003 0.90140-0.35276-0.31677 0.62088-0.29516
   1  -5   634069.66 1594.64   1 0.11733 0.08302 0.07232-0.74294 0.99045-0.66417
   1  -5   738400.76 1935.18   1-0.70946 0.90871-0.33753-0.34247 0.61865-0.23864
   1  -5   736778.83 1727.67   1 0.07497 0.12316 0.10043-0.78163 0.99211-0.61145
   1  -5   813032.50 1484.52   1-0.71616 0.91329-0.32640-0.36407 0.61690-0.18260
   1  -5   813371.12  897.79   1 0.03883 0.15708 0.12410-0.81588 0.99150-0.55647
   1  -5   9 1574.64  466.99   1-0.72045 0.91545-0.31913-0.38180 0.61571-0.12712
   1  -5   9 1172.84  321.61   1 0.00876 0.18493 0.14358-0.84594 0.98959-0.50018
   1  -5  1020682.83 2259.73   1-0.72256 0.91545-0.31551-0.39589 0.61510-0.07222
   1  -5  1023271.26 1211.34   1-0.01553 0.20702 0.15919-0.87212 0.98712-0.44332
   1  -4 -15 8339.21 1295.89   1 0.84030-0.60219 0.35844-0.68625-0.40670-0.40793
  -1   4  15 7962.44  785.69   1-0.83353 0.59491 0.55078-0.22348 0.04307 0.77209
   1  -4 -14 1367.25  340.79   1 0.84502-0.60901 0.36398-0.70230-0.39172-0.36860
  -1   4  14  793.81  290.51   1-0.59962 0.36322 0.79879-0.46041-0.04875 0.80999
  -1   4  14 1478.59  453.52   1-0.83799 0.60156 0.54557-0.20774-0.01050 0.77133
   1  -4 -1310913.06 1571.80   1 0.84887-0.61497 0.36864-0.71746-0.37882-0.32719
  -1   4  1310304.77  436.81   1-0.53225 0.29822 0.83918-0.49062-0.11168 0.81874
  -1   4  1312937.71  643.62   1-0.84003 0.60580 0.53849-0.19011-0.06608 0.77256
   1  -4 -1216400.30 1444.21   1 0.85184-0.62003 0.37232-0.73164-0.36842-0.28328
  -1   4  1214015.56  501.03   1-0.45665 0.22477 0.87210-0.51299-0.17576 0.82843
  -1   4  1212728.23  604.30   1-0.83929 0.60717 0.52935-0.17019-0.12393 0.77612
   1  -4 -1130591.53 1535.86   1 0.85386-0.62415 0.37487-0.74470-0.36109-0.23631
  -1   4  1130082.43 1403.45   1-0.37368 0.14395 0.89605-0.52639-0.23968 0.83796
  -1   4  1130176.72 1519.57   1-0.83549 0.60556 0.51775-0.14806-0.18406 0.78190
   1  -4 -1039327.37 2175.45   1 0.85481-0.62721 0.37609-0.75642-0.35755-0.18553
  -1   4  1037194.00 1644.82   1-0.28426 0.05700 0.90981-0.53010-0.30238 0.84601
  -1   4  1037504.70 1730.75   1-0.82807 0.60034 0.50341-0.12318-0.24670 0.79020
   1  -4  -927427.60 1675.95   1 0.85447-0.62896 0.37565-0.76649-0.35883-0.12995
  -1   4   928509.48 1303.86   1-0.18898-0.03610 0.91252-0.52227-0.36274 0.85201
  -1   4   929693.30 1413.67   1-0.81643 0.59089 0.48590-0.09513-0.31197 0.80112
   1  -4  -812682.61 1745.46   1 0.85242-0.62902 0.37305-0.77439-0.36633-0.06814
  -1   4   811934.75  905.35   1-0.09029-0.13295 0.90330-0.50245-0.41938 0.85432
   1  -4  -7 9152.84 1177.49   1 0.84792-0.62662 0.36747-0.77931-0.38207 0.00191
  -1   4   7 7954.15  639.10   1 0.01056-0.23165 0.88223-0.47084-0.47068 0.85125
   1  -4  -7 8199.37  660.18   1 0.77542-0.55351-0.44164 0.02976 0.45129-0.83230
   1  -4  -638441.10 1705.34   1 0.83953-0.62033 0.35756-0.77990-0.40905 0.08319
  -1   4   638281.10 1658.93   1 0.11058-0.32951 0.84975-0.42781-0.51545 0.84165
   1  -4  -637632.26 1656.84   1 0.74602-0.52632-0.41140-0.01105 0.52362-0.85021
   1  -4  -583532.53 3190.24   1 0.82441-0.60731 0.34089-0.77373-0.45181 0.18027
  -1   4   573290.17 2846.68   1 0.77148-0.98903 0.48724-0.05422 0.40914-0.13732
  -1   4   588037.60 3356.22   1 0.20654-0.42359 0.80742-0.37490-0.55263 0.82462
   1  -4  -585551.44 3284.86   1 0.70877-0.49127-0.37585-0.05718 0.59697-0.86912
   1  -4  -4260098.8 6738.51   1 0.79646-0.58174 0.31229-0.75575-0.51778 0.30068
  -1   4   4216877.1 5677.79   1 0.76082-0.97619 0.48591-0.04234 0.43015-0.21270
  -1   4   4274513.7 7165.96   1 0.29703-0.51190 0.75695-0.31387-0.58205 0.79964
   1  -4  -4258753.3 6766.70   1 0.66277-0.44748-0.33461-0.10901 0.66989-0.88762
   1  -4  -352271.18 2197.14   1 0.74093-0.52834 0.26267-0.71666-0.61807 0.45524
  -1   4   351336.11 2142.34   1 0.73691-0.95010 0.48220-0.02808 0.47374-0.31065
  -1   4   356068.88 2193.62   1 0.37857-0.59157 0.70114-0.24736-0.60420 0.76736
   1  -4  -352852.51 2397.55   1 0.60749-0.39442-0.28763-0.16657 0.74041-0.90370
   1  -4  -214067.79  970.49   1 0.61843-0.40752 0.16783-0.63212-0.76770 0.65904
  -1   4   213545.37  942.47   1 0.67929-0.89044 0.46980-0.00532 0.56377-0.45506
  -1   4   216815.07  861.26   1 0.45168-0.66251 0.64279-0.17848-0.61870 0.72747
   1  -4  -215904.47 1672.79   1 0.54418-0.33371-0.23506-0.22971 0.80536-0.91425
  -1   4   1   99.00   36.66   1 0.47323-0.68201 0.40496 0.07023 0.78234-0.72795
  -1   4   1  240.41   55.57   1-0.22296 0.01440 0.07736 0.39766 0.97175-0.91741
  -1   4   1   94.97  259.24   1 0.51491-0.72358 0.58448-0.10964-0.62709 0.68147
   1  -4  -1  130.26  121.98   1 0.47171-0.26342-0.17860-0.29669 0.86347-0.91791
   1  -4   024462.41 1137.68   1-0.56797 0.77469-0.52858 0.04286 0.63087-0.63087
   1  -4   022351.82 1017.26   1 0.39332-0.18721-0.11976-0.36605 0.91156-0.91156
   1  -4   1130839.8 3675.88   1-0.61231 0.81689-0.47660-0.01964 0.63080-0.57644
   1  -4   1129808.9 3597.63   1 0.31177-0.10776-0.06100-0.43536 0.94819-0.89378
   1  -4   2164328.4 4394.85   1-0.64845 0.85090-0.42971-0.07706 0.62836-0.51964
   1  -4   2181085.2 4770.26   1 0.23129-0.02948-0.00435-0.50254 0.97287-0.86404
   1  -4   3108069.7 3017.12   1-0.67746 0.87776-0.38856-0.12875 0.62454-0.46146
   1  -4   3117918.0 3168.76   1 0.15408 0.04555 0.04762-0.56508 0.98690-0.82377
   1  -4   474422.14 2924.50   1-0.69994 0.89809-0.35291-0.17433 0.62090-0.40376
   1  -4   470995.47 2745.82   1 0.08416 0.11326 0.09436-0.62240 0.99197-0.77445
   1  -4   5 3251.27  488.94   1-0.71781 0.91385-0.32362-0.21410 0.61645-0.34501
   1  -4   5 2908.96  358.10   1 0.02229 0.17291 0.13484-0.67345 0.99061-0.71871
  -1   4  -6 7966.76  418.07   1 0.61936-0.81322 0.16849 0.37988-0.76681 0.44085
   1  -4   610287.65 1359.03   1-0.73141 0.92533-0.30003-0.24816 0.61237-0.28665
   1  -4   6 9761.34  645.39   1-0.03089 0.22387 0.16899-0.71818 0.98513-0.65885
  -1   4  -774617.31 2811.90   1 0.71720-0.90848 0.24306 0.31628-0.65309 0.27316
   1  -4   790468.55 3664.92   1-0.74145 0.93324-0.28183-0.27683 0.60894-0.22893
   1  -4   786602.66 3370.05   1-0.07639 0.26697 0.19714-0.75682 0.97739-0.59661
   1  -4   845836.15 2773.71   1-0.74847 0.93814-0.26864-0.30048 0.60631-0.17201
   1  -4   843446.00 2176.34   1-0.11294 0.30126 0.21990-0.79013 0.96896-0.53378
   1  -4   9105287.4 5373.24   1-0.75291 0.94046-0.26010-0.31949 0.60453-0.11595
   1  -4   9103366.3 4553.77   1-0.14212 0.32818 0.23787-0.81865 0.96084-0.47126
   1  -4  1046016.91 3918.77   1-0.75509 0.94053-0.25584-0.33422 0.60363-0.06075
   1  -4  1042344.72 2738.10   1-0.16473 0.34854 0.25166-0.84300 0.95369-0.40971
   1  -4  11 5637.78 1094.68   1-0.75526 0.93857-0.25551-0.34501 0.60356-0.00640
   1  -4  11 5123.65  453.07   1-0.18152 0.36307 0.26183-0.86372 0.94788-0.34951
   1  -4  12 7850.96 1321.86   1-0.75356 0.93475-0.25884-0.35215 0.60427 0.04717
   1  -4  12 8027.80  637.22   1-0.19317 0.37247 0.26885-0.88129 0.94361-0.29084
   1  -3 -16 5924.31 1199.69   1 0.85839-0.62568 0.38080-0.57676-0.34372-0.52522
  -1   3  16 5317.82  622.43   1-0.81893 0.58546 0.55570-0.36069 0.14331 0.72603
   1  -3 -1513349.00 2418.12   1 0.86404-0.63343 0.38860-0.59507-0.32002-0.49461
  -1   3  1513866.32  853.18   1-0.72418 0.49298 0.68393-0.47741 0.08828 0.72735
  -1   3  1513433.75  935.97   1-0.82738 0.59601 0.55410-0.34816 0.09161 0.72356
   1  -3 -1413197.08 1705.70   1 0.86889-0.64038 0.39579-0.61276-0.29727-0.46305
  -1   3  14 9954.25  717.20   1-0.67722 0.44821 0.73504-0.51810 0.03276 0.72847
  -1   3  1411804.73  878.80   1-0.83407 0.60490 0.55034-0.33386 0.03789 0.72293
   1  -3 -1366966.39 3431.30   1 0.87299-0.64659 0.40236-0.62983-0.27564-0.43037
  -1   3  1358467.18 2861.18   1-0.62324 0.39637 0.78162-0.55415-0.02511 0.73198
  -1   3  1357987.85 2931.44   1-0.83843 0.61145 0.54469-0.31767-0.01822 0.72471
   1  -3 -1214244.10 1978.06   1 0.87640-0.65210 0.40829-0.64627-0.25535-0.39635
  -1   3  1212317.00  936.82   1-0.56135 0.33663 0.82317-0.58517-0.08524 0.73772
  -1   3  1210785.55  962.28   1-0.84012 0.61534 0.53688-0.29931-0.07708 0.72922
   1  -3 -11 1923.26  306.83   1 0.87943-0.65685 0.41332-0.66173-0.23611-0.36145
  -1   3  11 1663.94  253.90   1-0.49161 0.26921 0.85833-0.61010-0.14690 0.74518
  -1   3  11 1157.71  268.07   1-0.83863 0.61598 0.52662-0.27832-0.13911 0.73695
   1  -3 -1026522.04 1342.74   1 0.88160-0.66115 0.41786-0.67678-0.21945-0.32379
  -1   3  1026221.51 1208.47   1-0.41241 0.19216 0.88631-0.62753-0.21060 0.75450
  -1   3  1025214.13 1206.35   1-0.83346 0.61300 0.51334-0.25450-0.20447 0.74796
   1  -3  -931479.59 1493.85   1 0.88322-0.66489 0.42159-0.69101-0.20536-0.28355
  -1   3   929152.80 1295.47   1-0.32453 0.10668 0.90502-0.63607-0.27495 0.76421
  -1   3   931511.39 1467.24   1-0.82377 0.60551 0.49652-0.22715-0.27358 0.76273
   1  -3  -8144973.4 3965.19   1 0.88432-0.66812 0.42435-0.70429-0.19464-0.23994
  -1   3   8153477.2 4066.77   1-0.22781 0.01213 0.91282-0.63332-0.33888 0.77379
  -1   3   8154918.2 4153.83   1-0.80853 0.59245 0.47546-0.19556-0.34671 0.78150
   1  -3  -7114219.3 3139.54   1 0.88490-0.67084 0.42592-0.71636-0.18847-0.19179
  -1   3   7134993.0 3582.28   1-0.12371-0.08980 0.90783-0.61778-0.40066 0.78120
   1  -3  -7127971.0 3449.52   1 0.78466-0.57014-0.45174 0.16135 0.42453-0.80554
   1  -3  -660266.02 1606.75   1 0.88489-0.67295 0.42588-0.72683-0.18865-0.13729
  -1   3   667639.93 1698.28   1-0.01483-0.19678 0.88864-0.58800-0.45834 0.78455
   1  -3  -667726.25 1730.38   1 0.75397-0.54166-0.41934 0.11837 0.50563-0.83221
   1  -3  -526482.82 1175.09   1 0.88397-0.67416 0.42345-0.73491-0.19816-0.07345
  -1   3   524041.72 1097.99   1 0.76216-0.97225 0.48609-0.17451 0.42757-0.15575
  -1   3   528352.44 1217.88   1 0.09661-0.30607 0.85498-0.54380-0.50956 0.78140
   1  -3  -526893.75 1176.39   1 0.71291-0.50281-0.37970 0.06814 0.58955-0.86170
   1  -3  -4 3225.66  255.22   1 0.88126-0.67358 0.41712-0.73909-0.22220 0.00490
  -1   3   4 4215.89  326.97   1 0.75161-0.95952 0.48459-0.16246 0.44749-0.23003
  -1   3   4 3456.96  314.03   1 0.20588-0.41340 0.80775-0.48600-0.55240 0.76999
   1  -3  -4 4186.57  457.78   1 0.65959-0.45170-0.33185 0.00971 0.67439-0.89211
   1  -3  -375484.97 1860.71   1 0.87360-0.66821 0.40338-0.73590-0.27218 0.10925
  -1   3   366412.16 1635.06   1 0.72812-0.93385 0.48062-0.14795 0.48870-0.32561
  -1   3   377726.10 1918.33   1 0.30995-0.51528 0.74885-0.41654-0.58578 0.74897
   1  -3  -378797.69 1935.04   1 0.59251-0.38682-0.27527-0.05745 0.75706-0.92035
   1  -3  -2344681.3 3617.30   1 0.85198-0.64869 0.37249-0.71551-0.36792 0.25930
  -1   3   2322364.0 3412.13   1 0.67427-0.87792 0.46858-0.12551 0.57077-0.46205
  -1   3   2369294.8 4017.19   1 0.40390-0.60728 0.68194-0.33897-0.60976 0.71853
   1  -3  -2342930.1 3868.83   1 0.51234-0.30919-0.20998-0.13334 0.83271-0.94160
   1  -3  -1122273.9 2819.67   1 0.76819-0.56726 0.28625-0.63991-0.57265 0.51838
  -1   3   1115962.9 2678.10   1 0.52423-0.72556 0.42308-0.06932 0.73904-0.68465
  -1   3   1132137.0 3169.26   1 0.48686-0.68808 0.61133-0.25783-0.62388 0.67827
   1  -3  -1120953.1 3026.03   1 0.41861-0.21764-0.13852-0.21532 0.89753-0.95198
   1  -3   0227850.8 2667.38   1-0.55660 0.75584-0.54105 0.17676 0.63044-0.63044
   1  -3   0229448.1 2653.05   1 0.31597-0.11713-0.06401-0.30036 0.94660-0.94660
   1  -3   194277.78 2337.15   1-0.61397 0.81107-0.47455 0.09972 0.63074-0.57638
   1  -3   198011.10 2368.90   1 0.21110-0.01445 0.00960-0.38451 0.97741-0.92300
   1  -3   235139.83 2439.55   1-0.65971 0.85466-0.41415 0.02880 0.62710-0.51837
   1  -3   235371.20 2433.29   1 0.10935 0.08513 0.07764-0.46310 0.99096-0.88220
   1  -3   3226528.5 2754.35   1-0.69539 0.88821-0.36126-0.03461 0.62121-0.45812
   1  -3   3228378.8 2614.04   1 0.01733 0.17493 0.13805-0.53408 0.99027-0.82713
   1  -3   4173621.0 3974.35   1 0.17391 0.01660 0.28014-0.68663 0.94407-0.72681
   1  -3   4181881.7 4386.85   1-0.72225 0.91295-0.31605-0.08985 0.61519-0.39804
   1  -3   4177860.0 4201.40   1-0.06336 0.25331 0.18895-0.59552 0.97993-0.76235
  -1   3  -5107572.0 2792.24   1 0.72660-0.91474 0.25073 0.16613-0.63966 0.36828
   1  -3   5112048.9 2906.68   1 0.42253-0.23418 0.38588-0.80292 0.82009-0.54815
   1  -3   5113007.0 3128.44   1-0.74287 0.93145-0.27919-0.13718 0.60843-0.33699
   1  -3   5109801.5 2958.84   1-0.13033 0.31803 0.23063-0.64776 0.96427-0.69228
  -1   3  -6151693.3 3948.84   1 0.77888-0.96489 0.29588 0.13152-0.55298 0.22732
   1  -3   6152839.9 3971.06   1 0.50789-0.32170 0.41740-0.84498 0.75353-0.42721
   1  -3   6152144.6 4104.69   1-0.75808 0.94455-0.24993-0.17690 0.60235-0.27663
   1  -3   6152669.2 4064.45   1-0.18477 0.37021 0.26379-0.69146 0.94671-0.62033
  -1   3  -750610.66 2167.77   1 0.80005-0.98392 0.31574 0.12220-0.51011 0.13018
   1  -3   751901.50 2159.99   1 0.54642-0.36239 0.43059-0.86872 0.71833-0.33762
   1  -3   752356.29 2315.60   1-0.76898 0.95333-0.22771-0.20960 0.59732-0.21731
   1  -3   753385.51 2299.40   1-0.22796 0.41114 0.28961-0.72784 0.92959-0.54881
  -1   3  -816260.57  959.27   1 0.80895-0.99070 0.32448 0.12400-0.49020 0.05600
   1  -3   819307.69 1932.57   1-0.77641 0.95863-0.21187-0.23591 0.59353-0.15923
   1  -3   816761.83  863.04   1-0.26233 0.44343 0.30888-0.75741 0.91420-0.47925
  -1   3  -9 7309.30  751.43   1 0.81164-0.99126 0.32717 0.13184-0.48392-0.00455
   1  -3   9 9458.65 1354.01   1-0.78100 0.96110-0.20177-0.25647 0.59103-0.10244
   1  -3   9 8519.38  634.16   1-0.28761 0.46648 0.32358-0.78265 0.90142-0.41210
  -1   3 -1038407.94 2156.06   1 0.81057-0.98805 0.32609 0.14345-0.48644-0.05630
   1  -3  1045486.72 3365.92   1-0.78320 0.96118-0.19683-0.27188 0.58977-0.04690
   1  -3  1038837.28 1977.02   1-0.30602 0.48266 0.33418-0.80380 0.89144-0.34775
  -1   3 -1172939.94 3289.73   1 0.80685-0.98220 0.32239 0.15769-0.49501-0.10201
   1  -3  1182537.45 3800.10   1-0.78333 0.95919-0.19654-0.28264 0.58970 0.00745
   1  -3  1168616.82 3088.11   1-0.31865 0.49306 0.34140-0.82156 0.88425-0.28619
  -1   3 -1257600.59 3816.09   1 0.80105-0.97426 0.31671 0.17391-0.50794-0.14336
   1  -3  1263130.78 4062.10   1-0.78159 0.95533-0.20045-0.28920 0.59069 0.06075
   1  -3  1255485.81 3560.17   1-0.32639 0.49857 0.34581-0.83651 0.87970-0.22728
  -1   3 -1347847.91 2298.49   1 0.79343-0.96452 0.30941 0.19174-0.52413-0.18144
   1  -3  1351477.91 2520.44   1-0.77810 0.94972-0.20818-0.29194 0.59262 0.11310
   1  -3  1345470.03 2246.36   1-0.32994 0.49990 0.34782-0.84907 0.87758-0.17079
   1  -2 -1617832.35 2357.71   1 0.87308-0.64787 0.40251-0.47713-0.27514-0.59380
  -1   2  1617157.30 1013.54   1-0.80809 0.58210 0.55015-0.47560 0.21050 0.65950
  -1   2  1618613.24 1107.42   1-0.80388 0.57771 0.55613-0.48242 0.21093 0.65841
   1  -2 -15 3784.89  630.08   1 0.87801-0.65490 0.41128-0.49640-0.24483-0.56980
  -1   2  15 3127.79  371.56   1-0.78058 0.55674 0.60263-0.51755 0.16590 0.64974
  -1   2  15 3686.70  503.26   1-0.81537 0.59138 0.55607-0.47181 0.16106 0.65394
   1  -2 -14  209.66  407.88   1 0.88222-0.66074 0.41924-0.51479-0.21427-0.54626
  -1   2  14  832.00  296.06   1-0.74784 0.52616 0.65310-0.55750 0.11912 0.64213
  -1   2  14  557.78  420.52   1-0.82472 0.60280 0.55496-0.45983 0.10877 0.65205
   1  -2 -1313957.72 1255.49   1 0.88528-0.66593 0.42697-0.53303-0.18428-0.52192
  -1   2  1310402.86  818.48   1-0.70932 0.48979 0.70140-0.59528 0.06991 0.63697
  -1   2  1310005.40  882.72   1-0.83233 0.61261 0.55163-0.44596 0.05393 0.65255
   1  -2 -1253759.60 2285.05   1 0.88746-0.67024 0.43420-0.55077-0.15447-0.49741
  -1   2  1248470.08 2131.75   1-0.66409 0.44675 0.74742-0.63087 0.01813 0.63435
  -1   2  1249551.11 2228.02   1-0.83758 0.62005 0.54629-0.43007-0.00403 0.65617
   1  -2 -11124786.6 4884.18   1 0.88880-0.67370 0.44095-0.56802-0.12484-0.47271
  -1   2  11118337.7 4524.71   1-0.61175 0.39656 0.79019-0.66310-0.03672 0.63484
  -1   2  11116211.2 4494.21   1-0.84003 0.62469 0.53855-0.41179-0.06566 0.66346
   1  -2 -1087591.69 3458.10   1 0.88931-0.67634 0.44722-0.58481-0.09541-0.44782
  -1   2  1087318.90 3335.74   1-0.55105 0.33800 0.82907-0.69146-0.09471 0.63845
  -1   2  1087514.17 3383.60   1-0.83898 0.62579 0.52798-0.39053-0.13167 0.67517
   1  -2  -922930.35 1195.30   1 0.88902-0.67818 0.45303-0.60113-0.06618-0.42272
  -1   2   922364.87 1025.82   1-0.48142 0.27064 0.86259-0.71469-0.15544 0.64494
  -1   2   921187.04 1018.87   1-0.83367 0.62268 0.51376-0.36578-0.20257 0.69171
   1  -2  -8 1375.33  289.18   1 0.88796-0.67925 0.45839-0.61699-0.03719-0.39739
  -1   2   8 1055.76  221.50   1-0.40062 0.19199 0.88953-0.73108-0.21959 0.65471
  -1   2   8  238.96  252.60   1-0.82279 0.61399 0.49503-0.33652-0.27917 0.71397
   1  -2  -711202.87  634.94   1 0.88615-0.67957 0.46330-0.63241-0.00847-0.37179
  -1   2   711395.70  566.85   1-0.30856 0.10229 0.90719-0.73844-0.28597 0.66651
  -1   2   712049.53  617.62   1-0.80461 0.59800 0.47056-0.30151-0.36216 0.74261
   1  -2  -6175658.3 4232.40   1 0.88364-0.67891 0.46770-0.64724 0.02042-0.34662
  -1   2   6192324.012955.49   1-0.20432 0.00022 0.91286-0.73356-0.35344 0.67961
   1  -2  -6182749.6 4307.63   1 0.77515-0.57023-0.44135 0.26186 0.45204-0.77862
  -1   2   5374465.8 4160.23   1 0.72994-0.93257 0.48096-0.29082 0.48565-0.21383
   1  -2  -4229174.7 2660.94   1 0.87657-0.67617 0.47526-0.67585 0.07579-0.29326
  -1   2   4249448.5 2745.04   1 0.03460-0.23459 0.87548-0.67505-0.48200 0.69947
   1  -2  -4253440.8 2762.97   1 0.37154-0.17126 0.70630-0.90687-0.60257 0.38502
   1  -2  -4250637.6 3074.23   1 0.67677-0.47626-0.34692 0.14627 0.64932-0.86704
  -1   2   4235295.7 2606.14   1 0.45945-0.65964-0.16925 0.37008 0.87192-0.65414
  -1   2   3206736.2 2306.34   1 0.68229-0.88063 0.47052-0.25942 0.55954-0.39647
  -1   2   3232734.2 2558.51   1 0.16210-0.36009 0.82839-0.61741-0.53618 0.69937
   1  -2  -3232332.4 2538.90   1 0.45286-0.25475 0.64177-0.85288-0.61889 0.45573
   1  -2  -3233056.7 2614.37   1 0.59848-0.40018-0.28018 0.06894 0.75054-0.91383
  -1   2   3218453.8 2425.08   1 0.37089-0.56896-0.10370 0.31502 0.92286-0.75962
   1  -2  -2 4842.87  296.05   1 0.86753-0.67146 0.48091-0.70257 0.12691-0.23564
  -1   2   2 5180.03  264.77   1 0.61571-0.81186 0.45285-0.23118 0.64484-0.53612
  -1   2   2 5637.32  358.99   1 0.28763-0.48343 0.76270-0.54116-0.57926 0.68806
   1  -2  -2 5427.17  294.41   1 0.53843-0.34248 0.56066-0.78229-0.62908 0.52031
   1  -2  -2 6552.60  754.08   1 0.49797-0.30213-0.19880-0.02305 0.84409-0.95298
  -1   2   2 5090.85  631.13   1 0.25737-0.45325-0.02254 0.24439 0.96604-0.85722
   1  -2  -1 8258.82  375.59   1 0.86316-0.66926 0.48284-0.71503 0.14767-0.20204
  -1   2   110475.53  447.88   1 0.45742-0.65129 0.39912-0.16679 0.79464-0.74026
  -1   2   1 9166.02  913.90   1-0.62261 0.42872-0.46368 0.69601 0.63034-0.57598
  -1   2   110471.91  497.41   1 0.40308-0.59686 0.68258-0.45043-0.60959 0.66397
   1  -2  -112810.92 1102.14   1 0.37478-0.18110-0.10655-0.12583 0.92096-0.97538
  -1   2   111055.67  508.94   1 0.11929-0.31307 0.07101 0.16127 0.99031-0.93593
   1  -2   050028.58 1179.56   1 0.86151-0.66977 0.48348-0.72619 0.15505-0.15505
  -1   2   062260.54 1438.17   1-0.00323-0.18833 0.19442 0.04836 0.98091-0.98091
  -1   2   055495.42 1402.27   1-0.69869 0.50695-0.35490 0.59759 0.62118-0.62118
  -1   2   063464.96 1568.83   1 0.50410-0.69572 0.59502-0.35234-0.62595 0.62595
   1  -2   064400.65 1688.14   1 0.23820-0.04671-0.00915-0.23375 0.97117-0.97117
  -1   2   058803.71 1427.72   1-0.03343-0.15812 0.17060 0.07225 0.98477-0.98477
   1  -2   1345403.5 3717.93   1-0.58682 0.77643-0.50716 0.25377 0.63120-0.57684
  -1   2  -1319873.6 3440.91   1-0.76324 0.57363-0.23957 0.49273 0.60005-0.65434
   1  -2   1360705.6 3868.70   1 0.09980 0.08953 0.08400-0.33745 0.99145-0.93707
  -1   2  -1320472.1 3419.85   1-0.18802-0.00130 0.26575-0.01229 0.94552-0.99992
   1  -2   2268495.7 2981.33   1-0.65177 0.83924-0.42518 0.16126 0.62802-0.51929
  -1   2  -2246962.8 2775.39   1-0.81376 0.62655-0.12321 0.38681 0.56798-0.67661
   1  -2   2267633.8 2923.81   1-0.02675 0.21387 0.16636-0.43038 0.98570-0.87694
  -1   2  -2248423.3 2709.02   1-0.33029 0.14319 0.34802-0.08415 0.87737-0.98611
   1  -2   3187279.9 4312.17   1 0.80985-0.62467 0.48986-0.76439 0.32274-0.15965
   1  -2   3214128.6 2496.18   1-0.70009 0.88546-0.35267 0.07858 0.62087-0.45801
  -1   2  -3186765.7 4375.70   1-0.84829 0.66323-0.01008 0.28416 0.52942-0.69236
   1  -2   3222920.3 2501.17   1-0.13498 0.31980 0.23349-0.50805 0.96294-0.79975
  -1   2  -3199616.3 2242.77   1-0.45130 0.26647 0.41343-0.13912 0.79082-0.95374
  -1   2  -4201258.6 2159.34   1 0.71329-0.89616 0.23989 0.04504-0.65853 0.44142
   1  -2   4177929.2 4126.54   1 0.80354-0.62054 0.48971-0.77479 0.33836-0.12090
   1  -2   4204541.2 2468.02   1-0.73594 0.91919-0.29190 0.00734 0.61087-0.39372
   1  -2   4206520.6 2363.57   1-0.22142 0.40398 0.28573-0.57085 0.93237-0.71478
  -1   2  -510433.68  497.62   1 0.77866-0.95941 0.29568-0.00020-0.55339 0.28201
   1  -2   510234.37  488.96   1 0.79404-0.61322 0.48926-0.78489 0.36070-0.08888
   1  -2   514023.47 1361.60   1-0.76163 0.94276-0.24283-0.05219 0.60078-0.32935
   1  -2   510673.75  558.91   1-0.28892 0.46934 0.32434-0.61985 0.90073-0.62888
  -1   2  -652357.83 1356.27   1 0.80678-0.98538 0.32232-0.01631-0.49518 0.16953
   1  -2   647611.81 1216.64   1 0.78288-0.60424 0.48841-0.79459 0.38540-0.05921
   1  -2   654807.68 1608.86   1-0.77966 0.95867-0.20474-0.10076 0.59177-0.26605
   1  -2   653643.75 1421.72   1-0.33925 0.51743 0.35309-0.65914 0.87191-0.54570
  -1   2  -7192669.4 5102.01   1 0.81933-0.99622 0.33556-0.01935-0.46484 0.08467
   1  -2   7184052.0 4824.16   1 0.77049-0.59403 0.48713-0.80385 0.41114-0.03059
   1  -2   7207283.6 5570.37   1-0.79200 0.96889-0.17649-0.13947 0.58444-0.20443
   1  -2   7197652.9 5207.28   1-0.37638 0.55234 0.37386-0.69046 0.84767-0.46709
  -1   2  -8297440.0 7792.59   1 0.82498-0.99976 0.34150-0.01478-0.45030 0.01583
   1  -2   8310510.8 8169.07   1-0.80006 0.97483-0.15686-0.16956 0.57904-0.14474
   1  -2   8299815.9 7836.59   1-0.40318 0.57690 0.38860-0.71573 0.82851-0.39356
  -1   2  -912019.83 1100.03   1 0.82641-0.99908 0.34302-0.00580-0.44652-0.04226
   1  -2   913324.07 1816.33   1-0.80484 0.97749-0.14471-0.19219 0.57556-0.08698
   1  -2   911333.00  900.01   1-0.42186 0.59336 0.39874-0.73642 0.81426-0.32494
  -1   2 -1040574.89 2001.28   1 0.82506-0.99564 0.34158 0.00612-0.45008-0.09300
   1  -2  1047440.95 2185.67   1-0.80703 0.97756-0.13902-0.20835 0.57390-0.03103
   1  -2  1041729.58 1896.86   1-0.43414 0.60341 0.40534-0.75357 0.80449-0.26081
  -1   2 -1158204.75 2370.03   1 0.82167-0.99015 0.33800 0.02021-0.45890-0.13849
   1  -2  1157326.62 2361.90   1-0.80706 0.97546-0.13894-0.21889 0.57388 0.02327
   1  -2  1150297.02 2251.53   1-0.44126 0.60831 0.40915-0.76792 0.79866-0.20061
  -1   2 -12 2888.91  506.52   1 0.81661-0.98298 0.33275 0.03597-0.47160-0.18010
   1  -2  12 3142.68  454.37   1-0.80520 0.97148-0.14379-0.22452 0.57529 0.07614
   1  -2  12 3007.12  430.77   1-0.44418 0.60899 0.41071-0.78002 0.79625-0.14382
  -1   2 -1323152.89 1958.84   1 0.81054-0.97423 0.32607 0.05369-0.48651-0.21907
   1  -2  1323959.33 1284.92   1-0.80160 0.96576-0.15300-0.22576 0.57794 0.12778
   1  -2  1321921.40 1173.16   1-0.44356 0.60615 0.41038-0.79024 0.79676-0.08997
  -1   2 -1454379.75 2810.40   1 0.80260-0.96416 0.31822 0.07206-0.50452-0.25533
   1  -2  1452310.19 3054.32   1-0.79629 0.95833-0.16616-0.22307 0.58163 0.17838
   1  -2  1450555.54 2495.53   1-0.43993 0.60029 0.40844-0.79884 0.79976-0.03860
  -1   2 -1530008.50 1814.22   1 0.79330-0.95272 0.30928 0.09155-0.52441-0.28971
   1  -2  1532667.76 1766.01   1-0.78926 0.94918-0.18293-0.21677 0.58616 0.22814
   1  -2  1532499.69 1680.36   1-0.43365 0.59177 0.40508-0.80602 0.80489 0.01063
   1  -1 -16 5102.87  727.91   1 0.88161-0.66335 0.41788-0.37108-0.21938-0.64980
  -1   1  16 4449.77  509.34   1-0.84178 0.62356 0.46310-0.51031 0.27735 0.59223
  -1   1  16 3754.66  550.35   1-0.77838 0.55951 0.55264-0.60025 0.29782 0.57152
   1  -1 -1520751.02 1574.68   1 0.88539-0.66926 0.42728-0.39099-0.18303-0.63182
  -1   1  1517886.13 1150.09   1-0.82476 0.60867 0.51132-0.54799 0.24146 0.57376
  -1   1  1517359.37 1162.44   1-0.79283 0.57614 0.55508-0.59212 0.25159 0.56341
   1  -1 -1471018.65 3298.29   1 0.88792-0.67392 0.43613-0.41035-0.14618-0.61435
  -1   1  1463238.42 2860.57   1-0.80419 0.58987 0.55834-0.58418 0.20379 0.55747
  -1   1  1466497.41 3045.34   1-0.80581 0.59130 0.55622-0.58271 0.20318 0.55749
   1  -1 -1334885.85 1777.22   1 0.88918-0.67731 0.44445-0.42917-0.10867-0.59753
  -1   1  1332451.26 1550.91   1-0.77968 0.56751 0.60417-0.61949 0.16453 0.54235
  -1   1  1335814.11 1738.93   1-0.81719 0.60486 0.55591-0.57184 0.15215 0.55418
   1  -1 -1278061.57 3180.62   1 0.88911-0.67937 0.45224-0.44747-0.07033-0.58156
  -1   1  1269747.54 2749.16   1-0.75083 0.54082 0.64889-0.65369 0.12318 0.52932
  -1   1  1274722.85 2988.96   1-0.82644 0.61616 0.55444-0.55957 0.09787 0.55426
   1  -1 -11 2625.50  471.42   1 0.88763-0.68002 0.45950-0.46524-0.03090-0.56666
  -1   1  11 3126.07  394.63   1-0.71706 0.50920 0.69246-0.68674 0.07940 0.51873
  -1   1  11 2135.13  369.95   1-0.83387 0.62578 0.55051-0.54511 0.03990 0.55789
   1  -1 -1046005.55 2109.53   1 0.88460-0.67911 0.46623-0.48248 0.00993-0.55317
  -1   1  1045259.48 1963.85   1-0.67737 0.47171 0.73489-0.71872 0.03294 0.51080
  -1   1  1045645.23 1996.15   1-0.83866 0.63278 0.54416-0.52821-0.02274 0.56619
   1  -1  -9102003.3 2918.86   1 0.87984-0.67611 0.47231-0.49891 0.05287-0.54217
  -1   1   999304.90 3771.42   1-0.63110 0.42758 0.77551-0.74881-0.01704 0.50640
  -1   1   9100361.2 5111.77   1-0.84009 0.63639 0.53473-0.50824-0.09113 0.58024
   1  -1  -8247180.7 3095.17   1 0.87294-0.67138 0.47787-0.51500 0.09799-0.53293
  -1   1   8265472.6 2997.91   1-0.57665 0.37528 0.81390-0.77667-0.07090 0.50589
  -1   1   8253121.9 2920.23   1-0.83691 0.63539 0.52131-0.48419-0.16672 0.60152
   1  -1  -7214793.0 2712.72   1 0.86343-0.66403 0.48273-0.53039 0.14643-0.52700
  -1   1   7230426.1 2617.85   1-0.51273 0.31358 0.84882-0.80125-0.12883 0.50955
  -1   1   7241555.8 2772.17   1-0.82743 0.62810 0.50233-0.45468-0.25102 0.63146
   1  -1  -670320.79 1847.09   1 0.85047-0.65324 0.48672-0.54490 0.19948-0.52568
  -1   1   669072.81 1696.88   1-0.43621 0.23921 0.87910-0.82098-0.19209 0.51842
   1  -1  -667992.17 1655.08   1-0.07000 0.26700 0.90001-0.95806-0.43019 0.10399
  -1   1   676436.71 1885.83   1-0.80871 0.61157 0.47570-0.41751-0.34595 0.67205
   1  -1  -510986.24  600.36   1 0.83261-0.63755 0.48948-0.55819 0.25914-0.53098
  -1   1   5 9560.88  501.15   1 0.66933-0.86455 0.46737-0.39881 0.57753-0.30575
  -1   1   5 9820.99  489.63   1-0.34497 0.15012 0.90175-0.83308-0.26043 0.53238
   1  -1  -5 9282.50  468.25   1-0.02198 0.21681 0.89031-0.95891-0.45480 0.18296
   1  -1  -5 9967.60  493.09   1 0.77497-0.57965-0.44115 0.37258 0.45254-0.72469
  -1   1   5 9157.98  719.99   1 0.61570-0.81102-0.29446 0.36304 0.73088-0.45873
   1  -1  -4 2009.46  220.83   1 0.80729-0.61430 0.48981-0.56906 0.32916-0.54661
  -1   1   4 1087.67  141.74   1 0.64294-0.83597 0.46049-0.38137 0.61201-0.39458
  -1   1   4 1715.47  158.16   1-0.23674 0.04421 0.91262-0.83352-0.33325 0.55071
   1  -1  -4 1770.79  206.64   1 0.72202-0.52891-0.38823 0.30907 0.57267-0.79039
  -1   1   4 1693.96  257.13   1 0.55792-0.75081-0.24604 0.32541 0.79257-0.57479
   1  -1  -372374.78 1767.43   1 0.76914-0.57833 0.48697-0.57676 0.41385-0.57694
  -1   1   367663.76 1643.13   1 0.59484-0.78568 0.44665-0.35695 0.66832-0.50525
  -1   1   377279.57 1847.75   1-0.10970-0.08081 0.90600-0.81633-0.40879 0.57189
   1  -1  -366675.43 1592.75   1 0.13262 0.05802 0.84097-0.93061-0.52456 0.36137
   1  -1  -374840.78 1794.77   1 0.63911-0.44821-0.31422 0.22448 0.70198-0.86527
  -1   1   369510.48 1662.25   1 0.47027-0.66097-0.17750 0.26739 0.86448-0.70115
   1  -1  -2268224.8 2879.81   1 0.70683-0.51818 0.47604-0.57631 0.52322-0.63193
  -1   1   2260555.2 2774.17   1 0.50520-0.69379 0.41645-0.31611 0.75586-0.64708
  -1   1   2269577.3 2869.01   1 0.03510-0.22346 0.87533-0.77512-0.48223 0.59096
   1  -1  -2275924.1 2923.95   1 0.24447-0.05601 0.78756-0.88777-0.56565 0.45685
   1  -1  -2267684.7 2857.73   1 0.51723-0.32870-0.21380 0.11339 0.82871-0.93760
  -1   1   2253903.6 2715.38   1 0.34316-0.53168-0.08355 0.18395 0.93555-0.82672
   1  -1   042357.64 1005.90   1 0.37378-0.18952 0.36665-0.48808 0.85196-0.85196
  -1   1   041207.60  974.39   1-0.00429-0.17987 0.19388-0.07249 0.98101-0.98101
  -1   1   044840.82 1096.71   1 0.34543-0.52961 0.72476-0.60342-0.59614 0.59614
   1  -1   043390.83 1056.58   1 0.51626-0.33208 0.58315-0.70449-0.62722 0.62722
   1  -1   044048.99 1082.28   1 0.16061 0.02357 0.04320-0.16464 0.98607-0.98607
  -1   1   040146.39  982.13   1-0.02371-0.16046 0.16442-0.04298 0.98610-0.98610
   1  -1   110100.52  426.14   1-0.00573 0.18779 0.19315-0.32512 0.98115-0.92683
  -1   1  -1 8969.28  379.55   1-0.45703 0.27507-0.06222 0.19414 0.88727-0.94161
  -1   1  -1 9328.65  421.80   1-0.64718 0.46506-0.43144 0.56340 0.62849-0.68285
  -1   1  -1 9757.18  455.04   1 0.48414-0.66616 0.61384-0.48197-0.62353 0.56914
   1  -1   1 9803.18  454.65   1-0.02684 0.20881 0.16641-0.29842 0.98568-0.93131
  -1   1  -1 9337.47  425.35   1-0.21950 0.03756 0.28459-0.15259 0.93317-0.98757
   1  -1   2  137.51   38.19   1 0.75609-0.57635 0.27562-0.41809-0.59359 0.70214
   1  -1   2  172.32   73.21   1-0.39421 0.57404-0.02285-0.11960 0.91873-0.81004
   1  -1   2  553.48  112.01   1-0.59550 0.77548-0.49697 0.35447 0.63118-0.52245
  -1   1  -2   25.60   61.25   1-0.75154 0.57150-0.26275 0.40504 0.60509-0.71366
   1  -1   2  687.85  119.12   1-0.18466 0.36435 0.26373-0.40628 0.94675-0.83796
  -1   1  -2  113.50   91.63   1-0.38676 0.20704 0.37960-0.23712 0.84042-0.94916
  -1   1  -355725.33 1321.93   1 0.61847-0.79631 0.16785-0.01499-0.76766 0.60469
   1  -1   355266.72 1324.51   1 0.86207-0.68428 0.38582-0.53868-0.32857 0.49150
   1  -1   355752.66 1377.97   1-0.67749 0.85533-0.38851 0.23548 0.62454-0.46145
  -1   1  -351182.22 1295.23   1-0.82368 0.64606-0.09480 0.24758 0.55906-0.72201
   1  -1   357685.04 1423.68   1-0.30371 0.48121 0.33286-0.48588 0.89272-0.72961
  -1   1  -354487.69 1338.83   1-0.51565 0.33817 0.44659-0.29356 0.73119-0.89412
  -1   1  -4225526.4 2466.49   1 0.72673-0.90220 0.25084-0.08730-0.63948 0.42237
   1  -1   4215280.0 2336.08   1 0.88776-0.71207 0.43541-0.59878-0.14932 0.36661
   1  -1   4223070.0 2485.68   1-0.73330 0.90910-0.29665 0.13343 0.61176-0.39461
  -1   1  -4212873.7 2420.45   1-0.86310 0.68763 0.06009 0.10317 0.50143-0.71868
   1  -1   4230599.2 2570.77   1-0.38797 0.56324 0.38026-0.54383 0.83956-0.62209
  -1   1  -4214974.5 2384.47   1-0.60982 0.43453 0.49175-0.32813 0.62151-0.83875
  -1   1  -5408893.6 4371.54   1 0.77805-0.95140 0.29513-0.12105-0.55454 0.28316
   1  -1   5379730.1 4049.43   1 0.88730-0.71375 0.46048-0.63435-0.02527 0.29689
   1  -1   5414915.2 4521.97   1-0.77066 0.94434-0.22418 0.05050 0.59650-0.32506
  -1   1  -5388063.7 4155.90   1-0.87706 0.70368 0.19629-0.02239 0.43844-0.71015
   1  -1   5411350.3 4430.23   1-0.44622 0.61926 0.41179-0.58591 0.79454-0.52270
  -1   1  -5376215.0 4062.54   1-0.67788 0.50484 0.52066-0.34651 0.51902-0.79060
  -1   1  -6211334.8 2469.64   1 0.80389-0.97510 0.31948-0.13486-0.50168 0.17602
   1  -1   6189273.7 4452.16   1 0.87777-0.70654 0.47425-0.65878 0.06774 0.25845
   1  -1   6219929.7 2583.90   1-0.79476 0.96632-0.16987-0.01428 0.58265-0.25693
  -1   1  -6199078.8 2336.30   1-0.87302 0.70180 0.31202-0.12761 0.37478-0.70084
   1  -1   6216838.2 2521.69   1-0.48611 0.65703 0.43157-0.61637 0.75989-0.43403
  -1   1  -784746.01 2205.95   1 0.81685-0.98623 0.33300-0.13813-0.47101 0.09085
   1  -1   768426.35 1730.88   1 0.86463-0.69557 0.48223-0.67729 0.14087 0.23968
   1  -1   784874.58 2165.87   1-0.81064 0.97969-0.13167-0.06305 0.57053-0.19033
  -1   1  -776619.86 1882.91   1-0.85603 0.68682 0.41089-0.21572 0.31363-0.69407
   1  -1   784849.34 2132.78   1-0.51276 0.68150 0.44514-0.64053 0.73410-0.35394
  -1   1  -820708.25 1022.64   1 0.82343-0.99071 0.33985-0.13448-0.45437 0.01989
   1  -1   818633.19 1205.51   1-0.81987 0.98678-0.10598-0.09923 0.56264-0.12812
   1  -1   818887.40  927.80   1-0.53006 0.69661 0.45379-0.65976 0.71630-0.28183
  -1   1  -9 5498.37  883.84   1 0.82592-0.99110 0.34250-0.12662-0.44782-0.04096
   1  -1   9 6083.89  850.02   1-0.82501 0.98977-0.09080-0.12490 0.55777-0.06894
   1  -1   9 5171.22  542.97   1-0.54052 0.70489 0.45896-0.67551 0.70511-0.21632
  -1   1 -10270555.8 7506.12   1 0.82567-0.98875 0.34223-0.11585-0.44849-0.09460
   1  -1  10284800.8 7837.32   1-0.82717 0.98978-0.08419-0.14200 0.55560-0.01246
   1  -1  10260036.6 6861.90   1-0.54583 0.70801 0.46156-0.68870 0.69930-0.15621
  -1   1 -1149912.60 2266.29   1 0.82339-0.98436 0.33980-0.10292-0.45448-0.14291
   1  -1  1148341.96 2182.36   1-0.82702 0.98749-0.08465-0.15203 0.55575 0.04169
   1  -1  1147592.98 2150.62   1-0.54712 0.70711 0.46219-0.69992 0.69787-0.10047
  -1   1 -1277357.30 4641.39   1 0.81946-0.97834 0.33570-0.08831-0.46451-0.18719
   1  -1  1269230.26 2806.17   1-0.82493 0.98326-0.09105-0.15613 0.55785 0.09391
   1  -1  1264211.60 2602.12   1-0.54518 0.70298 0.46124-0.70955 0.70002-0.04831
  -1   1 -1325163.83 1771.56   1 0.81411-0.97089 0.33020-0.07231-0.47768-0.22833
   1  -1  1320688.07 1434.52   1-0.82107 0.97725-0.10252-0.15515 0.56154 0.14454
   1  -1  1320011.26 1143.83   1-0.54055 0.69617 0.45897-0.71787 0.70508 0.00093
  -1   1 -14 4306.42  743.40   1 0.80792-0.96207 0.32345-0.05455-0.49258-0.26727
   1  -1  14 4457.64  779.16   1-0.81548 0.96953-0.11844-0.14972 0.56652 0.19387
   1  -1  14 3784.39  480.65   1-0.53361 0.68704 0.45555-0.72504 0.71255 0.04777
  -1   1 -15 3858.00  624.88   1 0.79999-0.95201 0.31568-0.03625-0.51024-0.30389
   1  -1  15 3834.09  949.53   1-0.80774 0.96021-0.13716-0.14120 0.57335 0.24095
   1  -1  15 2800.95  455.14   1-0.52462 0.67587 0.45109-0.73116 0.72199 0.09263
   1   0 -1632481.48 1710.55   1 0.88575-0.67498 0.42835-0.26021-0.17876-0.69042
  -1   0  1627431.93 1412.91   1-0.86414 0.65334 0.37167-0.54028 0.33927 0.53030
  -1   0  1627735.12 1428.36   1-0.73737 0.52640 0.54201-0.71118 0.40310 0.46595
   1   0 -15 1807.29  391.13   1 0.88834-0.67970 0.43820-0.28057-0.13716-0.67769
  -1   0  15 2021.10  310.64   1-0.85516 0.64649 0.41458-0.57265 0.31114 0.50408
  -1   0  15 1558.24  409.56   1-0.75476 0.54537 0.54697-0.70533 0.36215 0.45285
   1   0 -14 3664.85  445.42   1 0.88931-0.68280 0.44741-0.30029-0.09450-0.66603
  -1   0  14 5004.14  493.03   1-0.84386 0.63733 0.45634-0.60387 0.28220 0.47868
  -1   0  14 2465.10  400.52   1-0.77069 0.56348 0.55099-0.69880 0.32004 0.44063
   1   0 -1357686.45 2958.15   1 0.88855-0.68416 0.45598-0.31937-0.05053-0.65567
  -1   0  1354170.88 2695.65   1-0.83020 0.62579 0.49708-0.63408 0.25231 0.45421
  -1   0  1358245.97 2882.48   1-0.78549 0.58046 0.55397-0.69121 0.27589 0.43044
   1   0 -1248821.26 2254.04   1 0.88588-0.68362 0.46388-0.33778-0.00493-0.64695
  -1   0  1247636.11 2138.64   1-0.81404 0.61177 0.53695-0.66341 0.22136 0.43082
  -1   0  1248572.02 2178.01   1-0.79909 0.59624 0.55578-0.68247 0.22924 0.42276
   1   0 -1117531.82  964.02   1 0.88112-0.68056 0.47094-0.35512 0.04283-0.64086
  -1   0  1114062.56 1061.49   1-0.79517 0.59468 0.57623-0.69195 0.18880 0.40932
  -1   0  1117602.88  989.61   1-0.81139 0.61072 0.55626-0.67239 0.17946 0.41820
   1   0 -10363801.718336.39   1 0.87379-0.67539 0.47731-0.37203 0.09306-0.63673
  -1   0  10360812.8 9396.70   1-0.77334 0.57500 0.61472-0.71992 0.15507 0.38868
  -1   0  10358882.3 9342.92   1-0.82187 0.62323 0.55565-0.66105 0.12562 0.41782
   1   0  -9101505.6 2899.47   1 0.86340-0.66718 0.48274-0.38799 0.14656-0.63586
  -1   0   998753.80 3769.12   1-0.74814 0.55195 0.65268-0.74736 0.11952 0.36985
  -1   0   9102607.5 2812.01   1-0.83079 0.63435 0.55256-0.64742 0.06669 0.42240
   1   0  -8  768.29  289.31   1 0.84916-0.65511 0.48701-0.40278 0.20427-0.63921
  -1   0   8  285.02  182.57   1-0.71896 0.52492 0.69021-0.77438 0.08175 0.35324
  -1   0   8  198.92  176.16   1-0.83724 0.64300 0.54682-0.63114 0.00093 0.43382
   1   0  -7114675.4 2864.85   1 0.82984-0.63795 0.48971-0.41601 0.26746-0.64803
  -1   0   7108903.9 2640.52   1-0.68485 0.49301 0.72750-0.80118 0.04144 0.33916
  -1   0   7114950.2 2773.49   1-0.84011 0.64806 0.53733-0.61111-0.07406 0.45448
   1   0  -6222348.5 2682.15   1 0.80356-0.61367 0.48971-0.42642 0.33831-0.66450
  -1   0   6214634.8 2459.65   1-0.64487 0.45518 0.76428-0.82744-0.00261 0.32886
   1   0  -6191995.812931.63   1-0.35283 0.54250 0.90031-0.83700-0.25482-0.07151
  -1   0   6202456.4 2287.04   1 0.72331-0.91345-0.38945 0.32595 0.57021-0.24363
  -1   0   6221634.1 2494.10   1-0.83727 0.64740 0.52229-0.58550-0.16180 0.48790
   1   0  -5318070.4 3542.87   1 0.76694-0.57923 0.48670-0.43396 0.41822-0.69004
  -1   0   5311157.7 3443.46   1 0.57543-0.76314 0.44065-0.49350 0.68899-0.41720
  -1   0   5339216.3 3661.98   1-0.59710 0.40955 0.80052-0.85315-0.05121 0.32308
   1   0  -5315998.7 3409.18   1-0.33923 0.52675 0.90274-0.84998-0.26451-0.00743
  -1   0   5320204.6 3474.75   1 0.69734-0.88527-0.36538 0.31246 0.61660-0.34445
   1   0  -4366460.6 3957.59   1 0.71476-0.52923 0.47769-0.43541 0.51080-0.72823
  -1   0   4366010.0 3892.87   1-0.53888 0.35347 0.83571-0.87782-0.10573 0.32322
   1   0  -4345960.3 3675.02   1-0.31325 0.49853 0.90659-0.86440-0.28275 0.06530
   1   0  -4367515.1 4501.61   1 0.79386-0.60814-0.46222 0.50456 0.39512-0.61284
  -1   0   4353002.0 3723.42   1 0.65189-0.83761-0.32518 0.28284 0.68504-0.46732
   1   0  -3298351.5 3227.42   1 0.63769-0.45436 0.45906-0.42735 0.61854-0.78161
  -1   0   3283584.5 3055.29   1 0.46545-0.64875 0.40210-0.43373 0.78845-0.62529
  -1   0   3288646.5 3092.20   1-0.46647 0.28325 0.86847-0.90013-0.16778 0.33094
   1   0  -3275775.4 2939.17   1-0.26888 0.45200 0.91105-0.87940-0.31254 0.14946
   1   0  -3305117.9 3235.95   1 0.73053-0.54702-0.39633 0.42808 0.55609-0.71938
  -1   0   3275511.9 2920.31   1 0.57099-0.75450-0.25774 0.22599 0.77944-0.61615
   1   0  -2  880.93  111.57   1 0.52093-0.33980 0.42194-0.40085 0.74202-0.85079
  -1   0   2 1173.19  130.82   1-0.37313 0.19205 0.89617-0.91728-0.24008 0.34886
   1   0  -2  947.41   89.29   1-0.19706 0.37801 0.91274-0.89164-0.35786 0.24914
   1   0  -2 1402.63  209.33   1 0.60448-0.42317-0.28513 0.30630 0.74383-0.85269
  -1   0   2 1260.43  186.71   1 0.42827-0.60948-0.14574 0.12469 0.89181-0.78292
   1   0  -1 1818.57  129.01   1 0.34176-0.16285 0.35355-0.34294 0.87074-0.92513
  -1   0   1 1636.83  150.24   1 0.17252-0.35143 0.27937-0.28998 0.94455-0.89017
  -1   0   1 1897.12  138.18   1-0.25045 0.07166 0.91212-0.92266-0.32451 0.37887
   1   0  -1 1315.19  104.30   1-0.08368 0.26257 0.90228-0.89174-0.42293 0.36856
   1   0  -1 2086.00  260.00   1 0.38340-0.20444-0.11287 0.12340 0.91665-0.97106
  -1   0   1 1338.87  137.36   1 0.19879-0.37775 0.01807-0.02860 0.97987-0.92546
   1   0   0 3218.40  191.90   1 0.08838 0.08838 0.23974-0.23974 0.96680-0.96680
  -1   0   0 2788.83  170.37   1-0.08838-0.08838 0.15041-0.15041 0.98466-0.98466
  -1   0   0 3846.94  214.62   1-0.08836-0.08836 0.90301-0.90301-0.42042 0.42042
   1   0   0 2441.64  144.24   1 0.08836 0.08836 0.85797-0.85797-0.50603 0.50603
   1   0   0 2717.68  173.27   1 0.08840 0.08840 0.09156-0.09156 0.99186-0.99186
  -1   0   0 2622.68  152.31   1-0.08840-0.08840 0.20465-0.20465 0.97483-0.97483
  -1   0  -1999998.567155.73   1-0.34497 0.17039 0.35632-0.34577 0.86834-0.92271
   1   0   2555720.9 5710.90   1 0.62322-0.45071 0.17129-0.19232-0.76304 0.87170
   1   0   2582907.1 5976.33   1-0.44774 0.62014-0.05630 0.03523 0.89238-0.78369
  -1   0  -2556128.0 5681.01   1-0.58221 0.40971-0.51249 0.53356 0.63117-0.73989
  -1   0  -2573422.3 5851.73   1 0.34259-0.51500 0.72671-0.70565-0.59541 0.48664
   1   0   2575681.8 5949.94   1-0.37031 0.54266 0.37049-0.39158 0.85182-0.74308
  -1   0  -2538387.3 5550.05   1-0.52272 0.35040 0.45014-0.42896 0.72396-0.83258
  -1   0  -3581498.1 6027.68   1 0.60767-0.77805 0.16010-0.12856-0.77787 0.61489
   1   0   3581150.3 5980.36   1 0.76769-0.59748 0.28580-0.31741-0.57355 0.73638
  -1   0  -3556302.1 5688.06   1-0.77410 0.60363-0.21687 0.24827 0.59475-0.75761
   1   0   3579596.9 6033.83   1-0.48358 0.65372 0.43027-0.46203 0.76223-0.59930
  -1   0  -3530187.8 5495.02   1-0.63463 0.46454 0.50267-0.47095 0.58698-0.74993
  -1   0  -465899.92 1649.72   1 0.70063-0.86871 0.22978-0.18764-0.67550 0.45839
   1   0   464626.12 1612.28   1 0.84119-0.67300 0.35947-0.40149-0.40394 0.62118
   1   0   466581.92 1579.94   1-0.67573 0.84395-0.39111 0.34898 0.62482-0.40737
  -1   0  -463750.17 1510.17   1-0.86309 0.69507 0.06004-0.01808 0.50145-0.71870
   1   0   466340.71 1626.82   1-0.55072 0.71867 0.46394-0.50629 0.69387-0.47663
  -1   0  -464109.56 1560.22   1-0.70480 0.53686 0.53092-0.48862 0.47049-0.68776
  -1   0  -5103906.1 2495.88   1 0.75287-0.91881 0.27284-0.22017-0.59893 0.32755
   1   0   599568.11 2385.72   1 0.87483-0.70875 0.40549-0.45801-0.26501 0.53655
   1   0   598697.89 2351.85   1-0.75431 0.92053-0.25738 0.20504 0.60395-0.33252
  -1   0  -598131.80 2343.58   1-0.87604 0.71010 0.27449-0.22196 0.39648-0.66819
   1   0   594654.79 2296.35   1-0.59076 0.75652 0.48300-0.53593 0.64630-0.37475
  -1   0  -595384.64 2286.77   1-0.75056 0.58478 0.54579-0.49300 0.37250-0.64418
  -1   0  -623831.82 1063.47   1 0.78266-0.94646 0.29934-0.23612-0.54574 0.22009
   1   0   620650.22  902.50   1 0.88760-0.72366 0.43477-0.49782-0.15203 0.47798
   1   0   621595.50  936.65   1-0.79765 0.96175-0.16284 0.10004 0.58071-0.25499
  -1   0  -622517.93  942.83   1-0.85139 0.68747 0.42961-0.36638 0.30091-0.62701
   1   0   622427.82 1020.36   1-0.61465 0.77822 0.49393-0.55745 0.61500-0.28915
  -1   0  -772443.14 2193.92   1 0.79981-0.96149 0.31551-0.24176-0.51063 0.13070
   1   0   766415.94 1743.37   1-0.82150 0.98310-0.10125 0.02782 0.56113-0.18093
  -1   0  -763147.67 1532.99   1-0.81248 0.65069 0.54046-0.46669 0.21855-0.59899
   1   0   768868.16 1777.76   1-0.62846 0.78994 0.49998-0.57399 0.59586-0.21564
  -1   0  -8285455.0 3380.88   1 0.80949-0.96904 0.32502-0.24074-0.48894 0.05474
   1   0   8262113.6 3054.55   1-0.83381 0.99326-0.06291-0.02099 0.54844-0.11393
  -1   0  -8246802.1 2710.49   1-0.76814 0.60852 0.62306-0.53890 0.14746-0.58247
   1   0   8265956.5 3140.51   1-0.63553 0.79486 0.50306-0.58765 0.58568-0.15115
  -1   0  -9194498.0 5253.78   1 0.81446-0.97187 0.33002-0.23520-0.47720-0.01127
   1   0   9182438.7 4885.35   1-0.83994 0.99724-0.04182-0.05258 0.54106-0.05223
  -1   0  -9169532.0 4426.18   1-0.72235 0.56489 0.68615-0.59147 0.08599-0.57537
   1   0   9183968.5 4911.88   1-0.63790 0.79509 0.50409-0.59925 0.58220-0.09335
  -1   0 -1072533.22 3061.12   1 0.81584-0.97142 0.33196-0.22692-0.47350-0.06959
   1   0  1073372.32 2856.44   1-0.84226 0.99742-0.03339-0.07150 0.53803 0.00510
  -1   0 -1064614.55 2460.52   1-0.67606 0.52068 0.73617-0.63090 0.03145-0.57519
   1   0  1070306.15 2790.76   1-0.63681 0.79185 0.50362-0.60935 0.58380-0.04063
  -1   0 -11 4381.99  643.82   1 0.81524-0.96872 0.33135-0.21581-0.47494-0.12245
   1   0  11 2847.01  445.90   1-0.84195 0.99497-0.03452-0.08086 0.53844 0.05901
   1   0  11 2732.63  477.83   1-0.63302 0.78590 0.50197-0.61828 0.58931 0.00816
  -1   0 -12 9842.21 1101.17   1 0.81322-0.96424 0.32877-0.20234-0.48017-0.17113
   1   0  12 9360.70 1079.39   1-0.83957 0.99045-0.04313-0.08274 0.54153 0.11024
   1   0  12 7968.97  665.86   1-0.62703 0.77776 0.49935-0.62624 0.59788 0.05390
  -1   0 -1324531.65 2896.62   1 0.80925-0.95814 0.32478-0.18781-0.48950-0.21607
   1   0  1322280.83 1996.85   1-0.83534 0.98408-0.05779-0.07856 0.54668 0.15940
   1   0  1322694.30 1250.12   1-0.61916 0.76774 0.49587-0.63333 0.60888 0.09723
  -1   0 -1468983.04 4608.77   1 0.80390-0.95065 0.31949-0.17199-0.50165-0.25820
   1   0  1465800.92 3083.16   1-0.82929 0.97588-0.07756-0.06928 0.55340 0.20699
   1   0  1465329.63 3012.81   1-0.60973 0.75581 0.49171-0.63992 0.62164 0.13868
  -1   0 -1541859.15 3468.97   1 0.79726-0.94188 0.31305-0.15502-0.51610-0.29802
   1   0  1538994.34 2610.85   1-0.82131 0.96576-0.10181-0.05553 0.56131 0.25339
   1   0  1539989.31 2671.41   1-0.59872 0.74262 0.48668-0.64548 0.63613 0.17850
  -1   0 -16 3912.41  745.35   1 0.78937-0.93186 0.30557-0.13700-0.53246-0.33595
   1   0  16 3184.51  479.11   1-0.58629 0.72800 0.48091-0.65030 0.65190 0.21704
   1   1 -1561479.30 2997.19   1 0.88919-0.68803 0.44452-0.16556-0.10832-0.70653
  -1  -1  1561285.67 2923.61   1-0.87263 0.67111 0.31578-0.59475 0.37255 0.44258
  -1  -1  1554450.64 2607.64   1-0.69456 0.49298 0.52712-0.80700 0.48961 0.32513
   1   1 -1468003.92 4383.74   1 0.88889-0.68986 0.45406-0.18561-0.06080-0.69973
  -1  -1  1464555.58 4144.74   1-0.86739 0.66828 0.35221-0.62114 0.35152 0.40935
  -1  -1  1458680.23 3745.14   1-0.71214 0.51271 0.53356-0.80286 0.45624 0.30418
   1   1 -1356577.36 2699.81   1 0.88638-0.68948 0.46280-0.20486-0.01149-0.69472
  -1  -1  1353668.59 2484.96   1-0.86122 0.66424 0.38700-0.64540 0.32940 0.37713
  -1  -1  1355189.32 2523.33   1-0.72878 0.53150 0.53925-0.79798 0.42200 0.28411
   1   1 -1224919.99 1363.57   1 0.88147-0.68625 0.47054-0.22284 0.03998-0.69238
  -1  -1  1225230.07 1273.73   1-0.85369 0.65884 0.42058-0.66845 0.30708 0.34510
  -1  -1  1223312.07 1141.75   1-0.74489 0.54933 0.54414-0.79214 0.38605 0.26595
   1   1 -11 8189.17  644.43   1 0.87360-0.68055 0.47743-0.24026 0.09414-0.69218
  -1  -1  11 8829.04  664.09   1-0.84486 0.65214 0.45301-0.69034 0.28456 0.31327
  -1  -1  11 8747.34  636.39   1-0.75982 0.56645 0.54832-0.78576 0.34928 0.24838
   1   1 -1066962.50 2731.98   1 0.86229-0.67140 0.48318-0.25654 0.15159-0.69526
  -1  -1  1070091.11 2756.00   1-0.83477 0.64417 0.48434-0.71113 0.26184 0.28164
  -1  -1  1069149.99 2686.44   1-0.77398 0.58279 0.55172-0.77861 0.31071 0.23262
   1   1  -981889.80 3220.61   1 0.84670-0.65798 0.48751-0.27140 0.21311-0.70242
  -1  -1   980006.85 3099.84   1-0.82345 0.63499 0.51462-0.73087 0.23892 0.25022
  -1  -1   984219.67 3230.04   1-0.78740 0.59839 0.55428-0.77061 0.26973 0.21926
   1   1  -8231595.1 6152.51   1 0.82576-0.63898 0.48955-0.28372 0.28007-0.71498
  -1  -1   8218860.3 5770.95   1-0.81093 0.62460 0.54389-0.74960 0.21578 0.21900
  -1  -1   8231538.2 6058.62   1-0.80011 0.61328 0.55587-0.76164 0.22543 0.20924
   1   1  -7210272.5 2605.63   1 0.79744-0.61283 0.48945-0.29417 0.35286-0.73341
  -1  -1   7200136.4 2413.97   1-0.79713 0.61261 0.57246-0.76754 0.19200 0.18863
  -1  -1   7175879.8 4151.95   1 0.78118-0.96614-0.44789 0.25231 0.43491-0.05389
  -1  -1   7212183.4 2448.09   1-0.81209 0.62744 0.55624-0.75146 0.17632 0.20401
   1   1  -6205198.6 2464.59   1 0.75920-0.57677 0.48569-0.30095 0.43325-0.75944
  -1  -1   6201053.1 2381.92   1-0.78220 0.59984 0.59982-0.78438 0.16838 0.15787
  -1  -1   6176906.5 4142.27   1 0.77569-0.95844-0.44192 0.25693 0.45055-0.12397
  -1  -1   6205467.1 2336.60   1-0.82284 0.64023 0.55544-0.74003 0.12006 0.20600
   1   1  -5141548.3 3382.38   1 0.70718-0.52696 0.47612-0.30186 0.52268-0.79447
  -1  -1   5139876.2 3340.68   1-0.76607 0.58586 0.62629-0.80033 0.14449 0.12738
  -1  -1   5131918.8 3096.59   1 0.76321-0.94376-0.42877 0.25436 0.48337-0.21121
  -1  -1   5141436.4 3323.17   1-0.83255 0.65215 0.55149-0.72554 0.05198 0.21973
   1   1  -4370277.4 3988.88   1 0.63504-0.45701 0.45833-0.29465 0.62180-0.83923
  -1  -1   4346378.1 3731.31   1 0.38940-0.56740 0.37290-0.53652 0.84220-0.62465
  -1  -1   4352089.1 3831.21   1-0.74869 0.57062 0.65191-0.81543 0.12027 0.09722
   1   1  -4326612.8 3555.19   1-0.56211 0.74013 0.82272-0.65918-0.08453-0.13296
  -1  -1   4347143.2 3648.67   1 0.73637-0.91470-0.40195 0.23812 0.54423-0.32650
  -1  -1   4364446.3 3823.55   1-0.83928 0.66107 0.54243-0.70595-0.03680 0.25418
   1   1  -3374544.5 3985.66   1 0.53515-0.35931 0.42680-0.27373 0.72900-0.89216
  -1  -1   3367369.5 3905.36   1 0.30306-0.47878 0.33732-0.49052 0.89127-0.72811
  -1  -1   3375779.4 4019.59   1-0.72999 0.55407 0.67672-0.82972 0.09566 0.06746
   1   1  -3348701.0 3739.69   1-0.56293 0.73880 0.82224-0.66922-0.08377-0.07934
  -1  -1   3371668.2 3865.14   1 0.67472-0.85085-0.34511 0.19187 0.65240-0.48911
  -1  -1   3378303.3 3914.82   1-0.83698 0.66097 0.52148-0.67448-0.16587 0.32892
   1   1  -2464030.4 4850.54   1 0.39602-0.22234 0.37552-0.23300 0.83794-0.94671
  -1  -1   2451832.4 4712.74   1 0.17911-0.35268 0.28240-0.42500 0.94242-0.83365
  -1  -1   2464858.7 4920.58   1-0.70983 0.53607 0.70082-0.84330 0.07053 0.03821
   1   1  -2446762.9 4692.09   1-0.55542 0.72915 0.82660-0.68411-0.09071-0.01803
  -1  -1   2462071.3 4713.71   1 0.51431-0.68821-0.21152 0.06902 0.83110-0.72221
   1   1  -1280743.0 2985.87   1 0.21165-0.04021 0.29724-0.16525 0.93104-0.98543
  -1  -1   1268477.5 2844.77   1 0.01025-0.18173 0.20123-0.33320 0.97948-0.92517
  -1  -1   1278060.1 2967.59   1-0.68796 0.51638 0.72434-0.85630 0.04503 0.00933
   1   1  -1274091.9 2919.62   1-0.53426 0.70585 0.83814-0.70618-0.10986 0.05548
   1   1  -1280169.0 2864.24   1 0.59880-0.42709-0.28044 0.41252 0.75018-0.80461
  -1  -1   1278167.5 2845.51   1 0.10867-0.28033 0.07810-0.21011 0.99100-0.93662
   1   1   0475581.9 4922.75   1-0.00905 0.17841 0.19147-0.07008 0.98145-0.98145
  -1  -1   0461113.8 4768.41   1-0.19490 0.02563 0.09305-0.21445 0.97639-0.97639
  -1  -1   0475277.9 4914.56   1-0.66398 0.49454 0.74752-0.86896 0.01801-0.01801
   1   1   0457899.7 4725.47   1-0.48800 0.65744 0.85986-0.73843-0.14994 0.14994
   1   1   0447017.6 4544.54   1 0.03969 0.12974 0.12354-0.00211 0.99154-0.99154
  -1  -1   0457565.9 4652.03   1-0.40882 0.23938 0.39167-0.51306 0.82429-0.82429
   1   1   174634.64 1769.90   1-0.23347 0.40060 0.07143 0.03940 0.96973-0.91540
  -1  -1  -180437.41 1892.85   1-0.40614 0.23903-0.03021-0.08063 0.91331-0.96765
  -1  -1  -180758.03 1886.59   1-0.63675 0.46946 0.77098-0.88189-0.01116-0.04321
   1   1   179998.00 1861.44   1-0.38799 0.55528 0.89273-0.78185-0.22909 0.28347
   1   1   183636.50 1942.57   1-0.39707 0.56428 0.38526-0.27441 0.83300-0.77863
  -1  -1  -178241.32 1819.92   1-0.64969 0.48253 0.50912-0.61983 0.56452-0.61884
   1   1   238449.20 2604.67   1 0.58583-0.42080 0.14464-0.04433-0.79741 0.90606
   1   1   238137.73 2587.85   1-0.42291 0.58788-0.04065 0.14096 0.90525-0.79656
  -1  -1  -239721.27  937.32   1-0.60310 0.43795 0.79637-0.89675-0.04532-0.06342
   1   1   239810.28  932.64   1-0.14968 0.31473 0.91031-0.81011-0.38590 0.49462
   1   1   239140.89  954.88   1-0.57718 0.74215 0.47663-0.37653 0.66307-0.55446
  -1  -1  -238100.80 2580.15   1-0.73980 0.57479 0.54276-0.64289 0.39761-0.50624
   1   1   3191644.512895.00   1 0.71350-0.55070 0.24007-0.15027-0.65823 0.82106
   1   1   3191127.3 4430.77   1-0.65297 0.81582 0.51050-0.42094 0.55946-0.39651
  -1  -1  -3184802.3 4284.15   1-0.78134 0.61850 0.55322-0.64286 0.28885-0.45185
  -1  -1  -4244424.3 2684.19   1 0.65113-0.81190 0.19182-0.27110-0.73431 0.51701
   1   1   4230806.5 2520.15   1 0.79547-0.63479 0.31134-0.23208-0.51989 0.73699
   1   1   4233105.6 2574.40   1-0.68835 0.84905 0.52475-0.44577 0.50079-0.28352
  -1  -1  -4233529.3 2563.16   1-0.80419 0.64353 0.55614-0.63523 0.20968-0.42701
  -1  -1  -5380686.7 4130.52   1 0.70881-0.86735 0.23630-0.30502-0.66463 0.39325
   1   1   5362948.0 3901.79   1 0.84424-0.68565 0.36305-0.29423-0.39426 0.66581
  -1  -1  -5363933.5 3694.22   1-0.62397 0.46526 0.78106-0.84986-0.02436-0.24750
   1   1   5365075.0 3968.93   1-0.70567 0.86422 0.53123-0.46282 0.46883-0.19725
  -1  -1  -5344662.0 3721.47   1-0.81831 0.65983 0.55578-0.62431 0.14647-0.41814
   1   1   6427019.5 4376.77   1-0.73328 0.88993-0.29669 0.35523 0.61176-0.28604
  -1  -1  -6435374.4 4441.72   1-0.56629 0.40972 0.82024-0.87852-0.08064-0.24560
   1   1   6433486.3 4716.78   1-0.71363 0.87003 0.53408-0.47625 0.45329-0.12739
  -1  -1  -6383664.9 4146.75   1-0.82731 0.67105 0.55413-0.61224 0.09208-0.41815
  -1  -1  -7 8103.04 1179.85   1 0.76842-0.92270 0.28646-0.33411-0.57223 0.19230
   1   1   7 6401.11  317.52   1-0.81171 0.96585-0.12881 0.17669 0.56967-0.18947
  -1  -1  -7 7202.97  327.81   1-0.52758 0.37319 0.84156-0.88913-0.11582-0.26489
   1   1   7 6780.16  469.27   1-0.71610 0.87035 0.53495-0.48769 0.44834-0.06812
  -1  -1  -812702.34 1415.77   1 0.78290-0.93504 0.29956-0.33667-0.54527 0.11107
   1   1   8 9905.88  742.01   1-0.83854 0.99054-0.04676 0.08415 0.54281-0.10830
  -1  -1  -8 8815.49  399.14   1-0.49190 0.33966 0.85820-0.89522-0.14665-0.28845
   1   1   8 9990.75  653.46   1-0.71500 0.86709 0.53457-0.49787 0.45055-0.01602
  -1  -1  -947804.67 1391.63   1 0.79163-0.94164 0.30770-0.33428-0.52785 0.03937
   1   1   942761.44 1179.20   1-0.84871 0.99857-0.00836 0.03526 0.52877-0.03994
  -1  -1  -944148.08 1082.43   1-0.45701 0.30691 0.87197-0.89843-0.17548-0.31402
   1   1   949574.24 1401.01   1-0.71135 0.86129 0.53328-0.50716 0.45781 0.03103
  -1  -1 -1060033.49 2895.59   1 0.79638-0.94426 0.31221-0.32825-0.51797-0.02478
   1   1  1057434.28 2262.90   1-0.85203 0.99974 0.00553 0.01087 0.52346 0.01967
  -1  -1 -1056617.96 2141.33   1-0.42171 0.27377 0.88361-0.89952-0.20343-0.34045
   1   1  1062025.29 2470.44   1-0.70573 0.85352 0.53125-0.51571 0.46872 0.07443
  -1  -1 -11131226.4 3677.40   1 0.79820-0.94395 0.31396-0.31947-0.51408-0.08294
   1   1  11127128.8 3407.46   1-0.85172 0.99729 0.00420 0.00171 0.52397 0.07347
  -1  -1 -11122607.0 3213.60   1-0.38542 0.23963 0.89335-0.89870-0.23100-0.36728
   1   1  11129418.9 3576.94   1-0.69849 0.84413 0.52859-0.52362 0.48237 0.11510
  -1  -1 -1244778.42 2096.94   1 0.79778-0.94139 0.31355-0.30852-0.51500-0.13630
   1   1  1241683.90 1850.79   1-0.84893 0.99236-0.00749 0.00293 0.52844 0.12332
   1   1  1241973.64 1942.95   1-0.68986 0.83335 0.52533-0.53093 0.49809 0.15369
  -1  -1 -1331529.18 2249.79   1 0.79551-0.93700 0.31138-0.29582-0.51979-0.18578
   1   1  1330239.28 1370.14   1-0.84401 0.98529-0.02685 0.01179 0.53565 0.17043
   1   1  1333263.58 1632.16   1-0.67997 0.82131 0.52149-0.53766 0.51543 0.19067
  -1  -1 -14 8963.76 1656.86   1 0.79167-0.93102 0.30774-0.28164-0.52777-0.23208
   1   1  14 6990.60 1208.84   1-0.83696 0.97610-0.05227 0.02673 0.54475 0.21564
   1   1  14 7937.59  839.05   1-0.66890 0.80808 0.51707-0.54382 0.53404 0.22638
  -1  -1 -15 1537.12  321.47   1 0.78641-0.92363 0.30281-0.26618-0.53837-0.27575
   1   1  15 1475.37  364.19   1-0.65670 0.79373 0.51206-0.54938 0.55365 0.26108
  -1  -1 -16 7785.67 1189.53   1 0.77983-0.91492 0.29674-0.24957-0.55118-0.31722
   1   1  16 8896.67  762.32   1-0.64338 0.77826 0.50644-0.55434 0.57408 0.29497
   1   2 -14 3240.82  611.99   1 0.88839-0.69684 0.45673-0.06694-0.04645-0.71408
  -1  -2  14 3491.98  480.26   1-0.87714 0.68520 0.24886-0.63869 0.41070 0.35009
  -1  -2  14 3189.64  431.20   1-0.62345 0.43126 0.49778-0.88836 0.60292 0.15750
   1   2 -1334794.84 2360.22   1 0.88485-0.69544 0.46580-0.08652 0.00713-0.71335
  -1  -2  1334542.17 2941.68   1-0.87583 0.68604 0.27797-0.65728 0.39451 0.31193
  -1  -2  1334236.03 2246.08   1-0.63909 0.44906 0.50460-0.88462 0.58045 0.12565
   1   2 -1297699.57 4772.42   1 0.87844-0.69072 0.47366-0.10460 0.06310-0.71550
  -1  -2  1295462.75 5625.20   1-0.87368 0.68604 0.30541-0.67422 0.37868 0.27342
  -1  -2  1292077.05 4420.84   1-0.65341 0.46553 0.51068-0.88012 0.55878 0.09300
   1   2 -11167497.1 6464.65   1 0.86846-0.68291 0.48044-0.12192 0.12221-0.72024
  -1  -2  11152458.9 5840.68   1-0.87082 0.68534 0.33114-0.68945 0.36332 0.23444
  -1  -2  11168987.0 6409.16   1-0.66637 0.48064 0.51604-0.87490 0.53818 0.05929
   1   2 -1055577.35 2330.23   1 0.85429-0.67091 0.48577-0.13777 0.18495-0.72862
  -1  -2  1052613.35 3661.62   1-0.86691 0.68374 0.35530-0.70349 0.34959 0.19389
  -1  -2  1051768.61 2249.24   1-0.67787 0.49429 0.52066-0.86895 0.51902 0.02413
   1   2  -962078.82 2510.92   1 0.83492-0.65370 0.48925-0.15178 0.25206-0.74136
  -1  -2   963845.61 2545.68   1-0.86310 0.68206 0.37735-0.71500 0.33564 0.15349
  -1  -2   961926.62 2406.20   1-0.68775 0.50632 0.52452-0.86224 0.50186-0.01301
   1   2  -8 1836.46  321.20   1 0.80909-0.62977 0.48985-0.16257 0.32466-0.75957
  -1  -2   8 1151.15  259.83   1-0.85908 0.68017 0.39730-0.72442 0.32266 0.11212
  -1  -2   8  519.19  215.03   1-0.69569 0.51641 0.52754-0.85469 0.48754-0.05301
   1   2  -747047.27 2046.01   1 0.77448-0.59734 0.48758-0.17085 0.40302-0.78357
  -1  -2   747640.97 2068.74   1-0.85508 0.67830 0.41491-0.73148 0.31092 0.06951
  -1  -2   744043.89 1857.16   1-0.70112 0.52400 0.52957-0.84614 0.47746-0.09724
   1   2  -742341.88 1799.53   1-0.80902 0.98653 0.47610-0.15957-0.34467-0.03577
   1   2  -6260027.2 3006.36   1 0.72842-0.55345 0.48068-0.17450 0.48820-0.81439
  -1  -2   6281803.7 3295.11   1-0.85135 0.67670 0.42978-0.73581 0.30079 0.02529
  -1  -2   6266221.5 2909.63   1-0.70294 0.52797 0.53024-0.83624 0.47403-0.14813
   1   2  -5245514.5 2810.20   1 0.66727-0.49456 0.46685-0.17119 0.58033-0.85211
  -1  -2   5219616.4 2588.66   1-0.84821 0.67569 0.44138-0.73687 0.29275-0.02101
  -1  -2   5234529.4 2540.28   1-0.69874 0.52592 0.52868-0.82411 0.48192-0.21033
   1   2  -5220319.4 2420.55   1-0.80760 0.98072 0.47429-0.17883-0.35046 0.07871
   1   2  -4289948.2 3204.35   1 0.58540-0.41488 0.44376-0.15867 0.67850-0.89593
  -1  -2   4268085.4 2949.54   1 0.21917-0.38956 0.30062-0.58581 0.92821-0.71067
  -1  -2   4272905.6 3100.17   1-0.84607 0.67569 0.44888-0.73384 0.28748-0.07009
  -1  -2   4279228.1 2940.91   1-0.68235 0.51168 0.52242-0.80728 0.51132-0.29406
   1   2  -3300358.1 3257.46   1 0.47815-0.30977 0.40675-0.13225 0.77840-0.94156
  -1  -2   3292261.8 3159.92   1 0.12310-0.29139 0.25637-0.53089 0.95870-0.79576
  -1  -2   3285152.7 3196.71   1-0.84544 0.67718 0.45105-0.72547 0.28595-0.12291
   1   2  -3267744.2 3025.27   1-0.70391 0.87246 0.70744-0.43301 0.06339-0.22652
  -1  -2   3284226.4 2945.98   1 0.77192-0.94066-0.43790 0.16316 0.46083-0.29754
  -1  -2   3303798.8 3139.28   1-0.63266 0.46414 0.50182-0.77610 0.58984-0.42689
   1   2  -2 2228.67  216.84   1 0.33927-0.17315 0.35252-0.08854 0.87213-0.98090
  -1  -2   2 1823.34  201.73   1 0.00074-0.16693 0.19643-0.46037 0.98051-0.87188
  -1  -2   2 2451.19  285.14   1-0.84694 0.68082 0.44587-0.70975 0.28961-0.18091
   1   2  -2 1961.34  187.89   1-0.71742 0.88382 0.69204-0.42812 0.07984-0.18859
  -1  -2   2 2049.71  169.82   1 0.61759-0.78412-0.29605 0.03190 0.72864-0.61978
   1   2  -116038.88  714.06   1 0.17022-0.00625 0.27831-0.02494 0.94528-0.99966
  -1  -2   114285.86  623.03   1-0.14630-0.01766 0.11972-0.37307 0.98196-0.92763
  -1  -2   114684.34  665.92   1-0.85130 0.68730 0.42999-0.68333 0.30065-0.24630
   1   2  -114755.60  685.70   1-0.72874 0.89298 0.67829-0.42489 0.09407-0.14844
   1   2   0271371.1 2923.80   1-0.01758 0.17953 0.18713 0.05564 0.98217-0.98217
  -1  -2   0257853.3 2757.61   1-0.30680 0.14496 0.02917-0.27196 0.95132-0.95132
  -1  -2   0261444.4 2828.88   1-0.85907 0.69721 0.39734-0.64015 0.32263-0.32263
   1   2   0247117.1 2717.36   1-0.73717 0.89926 0.66750-0.42462 0.10495-0.10495
   1   2   1267508.9 2875.92   1-0.20277 0.36248 0.08867 0.14356 0.97520-0.92086
  -1  -2  -1252679.9 2704.23   1-0.46288 0.30320-0.06596-0.16627 0.88395-0.93830
  -1  -2  -1257437.9 2769.02   1-0.86970 0.70997 0.33613-0.56839 0.36141-0.41576
   1   2   1241783.3 2624.34   1-0.74130 0.90124 0.66202-0.42966 0.11039-0.05601
   1   2   1259638.8 2678.99   1-0.67416 0.83407 0.51918-0.28720 0.52529-0.47098
   1   2   2813173.3 8360.78   1 0.59842-0.44085 0.15351 0.06812-0.78633 0.89498
   1   2   2871974.758577.55   1-0.36404 0.52159-0.00444 0.22614 0.93137-0.82267
  -1  -2  -2821857.055205.63   1-0.87748 0.71996 0.22146-0.44317 0.42540-0.53408
   1   2   2773650.2 7926.30   1-0.73784 0.89563 0.66662-0.44478 0.10583 0.00292
   1   2   2835858.156138.31   1-0.75089 0.90861 0.54588-0.32438 0.37170-0.26304
  -1  -2  -2840946.256475.41   1-0.83092 0.67316 0.50841-0.73013-0.22597 0.11728
   1   2   3117643.3 2774.36   1 0.70103-0.54562 0.23009-0.01890-0.67498 0.83781
   1   2   3122616.0 2894.70   1-0.49005 0.64547-0.08353 0.29469 0.86767-0.70463
  -1  -2  -3121240.6 2805.88   1-0.84819 0.69293-0.01048-0.20066 0.52957-0.69251
   1   2   3118790.1 2751.27   1-0.71674 0.87238 0.69284-0.48152 0.07900 0.08411
   1   2   3123986.5 2919.15   1-0.77226 0.92781 0.55135-0.34040 0.31562-0.15261
  -1  -2  -3115249.0 2693.45   1-0.83676 0.68118 0.52090-0.73208-0.16878 0.00573
  -1  -2  -448829.13 1236.27   1 0.58369-0.73699 0.14314-0.34375-0.79925 0.58195
   1   2   444472.39 1126.23   1 0.77449-0.62122 0.29190-0.09124-0.56119 0.77829
   1   2   448200.40 1120.40   1-0.62590 0.77937 0.77957-0.57880-0.02239 0.23989
   1   2   449938.95 1281.29   1-0.77922 0.93258 0.55281-0.35242 0.29530-0.07797
  -1  -2  -443415.99 1082.44   1-0.83812 0.68474 0.52487-0.72551-0.14850-0.06889
  -1  -2  -5  260.16  124.23   1 0.64802-0.79919 0.18950-0.37960-0.73766 0.46603
   1   2   5  138.46   93.77   1 0.82409-0.67301 0.34056-0.15039-0.45263 0.72418
   1   2   5  283.10  195.46   1-0.78030 0.93149 0.55302-0.36319 0.29202-0.02035
  -1  -2  -5  379.50  166.60   1-0.83829 0.68710 0.52541-0.71552-0.14562-0.12612
  -1  -2  -679720.14 2111.28   1 0.69235-0.84139 0.22331-0.40289-0.68612 0.36017
   1   2   681207.08 2042.47   1-0.77826 0.92727 0.55262-0.37334 0.29816 0.02784
  -1  -2  -671368.25 1752.04   1-0.83789 0.68890 0.52413-0.70372-0.15233-0.17376
  -1  -2  -7238250.1 2898.86   1 0.72261-0.86949 0.24746-0.41651-0.64543 0.26550
   1   2   7237391.7 2829.02   1-0.77422 0.92104 0.55178-0.38305 0.31003 0.07030
  -1  -2  -8151589.3 3698.27   1 0.74321-0.88795 0.26459-0.42310-0.61451 0.18030
   1   2   8165859.1 4021.13   1-0.76868 0.91332 0.55053-0.39236 0.32564 0.10902
  -1  -2  -973689.39 2897.68   1 0.75693-0.89954 0.27635-0.42433-0.59217 0.10369
   1   2   967893.92 2522.36   1-0.83097 0.97338-0.07218 0.22039 0.55160-0.06277
  -1  -2  -964598.66 2390.71   1 0.41469-0.55706 0.67344-0.82138-0.61196 0.12248
   1   2   975043.31 2941.15   1-0.76192 0.90438 0.54886-0.40126 0.34382 0.14518
  -1  -2 -1047261.83 2129.36   1 0.76570-0.90618 0.28404-0.42148-0.57707 0.03431
   1   2  1043946.33 1857.44   1-0.84914 0.98941-0.00661 0.14433 0.52811 0.01502
  -1  -2 -1044660.60 1820.56   1 0.25910-0.39930 0.77941-0.91643-0.57041 0.02643
   1   2  1048361.96 2162.61   1-0.75408 0.89436 0.54678-0.40973 0.36383 0.17950
  -1  -2 -1112197.32 1386.56   1 0.77079-0.90913 0.28857-0.41547-0.56798-0.02904
   1   2  1110376.23  775.91   1-0.85143 0.98956 0.00298 0.12424 0.52444 0.07300
  -1  -2 -1110350.46  717.00   1 0.18148-0.31950 0.81954-0.94599-0.54351-0.05486
   1   2  1113228.35 1050.46   1-0.74526 0.88336 0.54425-0.41776 0.38519 0.21248
  -1  -2 -12 3884.67  780.71   1 0.77303-0.90925 0.29058-0.40695-0.56389-0.08741
   1   2  12 2674.27  370.58   1-0.84840 0.98438-0.00964 0.12638 0.52925 0.12251
   1   2  12 1911.38  379.48   1-0.73518 0.87143 0.54132-0.42564 0.40800 0.24379
  -1  -2 -1379546.46 3957.34   1 0.77300-0.90709 0.29055-0.39639-0.56395-0.14163
   1   2  1383634.32 4107.25   1-0.72447 0.85856 0.53782-0.43271 0.43113 0.27497
  -1  -2 -1427989.63 2437.74   1 0.77106-0.90302 0.28881-0.38411-0.56748-0.19237
   1   2  1429813.33 1537.78   1-0.71284 0.84478 0.53381-0.43928 0.45486 0.30556
  -1  -2 -1520270.66 2205.46   1 0.76747-0.89729 0.28561-0.37037-0.57394-0.24018
   1   2  1523375.20 1711.33   1-0.70028 0.83006 0.52925-0.44530 0.47905 0.33569
  -1  -2 -16 6466.76 1391.81   1 0.76237-0.89006 0.28111-0.35533-0.58289-0.28551
   1   2  16 6808.63  745.67   1-0.68677 0.81440 0.52414-0.45075 0.50360 0.36545
   1   3 -1329269.63 1537.79   1 0.88514-0.70322 0.46529 0.03531 0.00387-0.71009
  -1  -3  1324706.97 2820.32   1-0.87602 0.69366 0.17255-0.67322 0.45034 0.25610
  -1  -3  1326583.08 1336.57   1-0.50918 0.32611 0.44333-0.94479 0.73768-0.03166
   1   3 -1216289.10 1099.58   1 0.87841-0.69820 0.47368 0.01672 0.06329-0.71570
  -1  -3  1214988.77 1827.16   1-0.87701 0.69681 0.19476-0.68493 0.43922 0.21289
  -1  -3  1217096.91 1083.61   1-0.51754 0.33666 0.44755-0.93842 0.72927-0.07756
   1   3 -11 4147.40  397.99   1 0.86769-0.68965 0.48083-0.00095 0.12610-0.72414
  -1  -3  11 1174.95  280.73   1-0.87744 0.69939 0.21483-0.69449 0.42887 0.16889
  -1  -3  11 1586.76  234.29   1-0.52267 0.34397 0.45011-0.93040 0.72402-0.12662
   1   3 -1049770.46 2521.09   1 0.85229-0.67641 0.48629-0.01693 0.19265-0.73632
  -1  -3  1056744.64 2843.37   1-0.87745 0.70155 0.23260-0.70176 0.41949 0.12393
  -1  -3  1052806.98 2576.44   1-0.52378 0.34727 0.45066-0.92036 0.72287-0.17978
   1   3  -9120727.5 4673.83   1 0.83114-0.65743 0.48961-0.03079 0.26357-0.75288
  -1  -3   9122266.0 4738.57   1-0.87717 0.70342 0.24784-0.70649 0.41126 0.07782
  -1  -3   9124328.2 4723.06   1-0.51963 0.34531 0.44859-0.90771 0.72714-0.23835
   1   3  -8121846.6 4686.86   1 0.80300-0.63114 0.48969-0.04098 0.33967-0.77458
  -1  -3   8132619.1 5122.02   1-0.87675 0.70515 0.26026-0.70841 0.40443 0.03030
  -1  -3   8126894.4 4799.71   1-0.50819 0.33605 0.44283-0.89136 0.73867-0.30419
   1   3  -7204403.3 5409.22   1 0.76546-0.59578 0.48652-0.04835 0.42114-0.80168
  -1  -3   7225397.3 6007.59   1-0.87632 0.70687 0.26945-0.70708 0.39931-0.01892
  -1  -3   7220830.1 5735.70   1-0.48585 0.31590 0.43144-0.86938 0.76013-0.37996
   1   3  -7205698.7 5368.16   1-0.82291 0.99314 0.49520-0.05728-0.27854-0.10189
   1   3  -664539.30 2500.79   1 0.71643-0.54902 0.47803-0.05039 0.50814-0.83428
  -1  -3   668291.41 2699.76   1-0.87602 0.70872 0.27485-0.70198 0.39628-0.07022
  -1  -3   668379.25 2584.01   1-0.44600 0.27824 0.41063-0.83799 0.79526-0.46941
   1   3  -658265.05 2223.28   1-0.82673 0.99477 0.50119-0.07380-0.25556-0.07052
   1   3  -5 1766.15  274.53   1 0.65195-0.48673 0.46290-0.04584 0.60056-0.87234
  -1  -3   5 2076.49  340.57   1-0.87597 0.71082 0.27571-0.69233 0.39579-0.12407
  -1  -3   5 1911.74  197.43   1-0.37394 0.20811 0.37251-0.78941 0.84934-0.57750
   1   3  -5 1625.90  187.67   1-0.82954 0.99539 0.50594-0.08908-0.23637-0.03537
   1   3  -420385.71  904.27   1 0.56847-0.40545 0.43844-0.03195 0.69613-0.91355
  -1  -3   420656.26 1225.84   1-0.87623 0.71324 0.27101-0.67712 0.39844-0.18107
  -1  -3   422110.13  912.71   1-0.24324 0.07963 0.29768-0.70403 0.92315-0.70568
   1   3  -419461.53  826.46   1-0.83106 0.99471 0.50867-0.10235-0.22490 0.00750
   1   3  -3222298.7 2505.06   1 0.46356-0.30263 0.40140-0.00545 0.78992-0.95309
  -1  -3   3210453.2 2346.05   1-0.05992-0.10096 0.16532-0.56123 0.98441-0.82147
  -1  -3   3215996.6 3020.34   1-0.87679 0.71594 0.25928-0.65489 0.40498-0.24195
  -1  -3   3220491.5 2287.44   1 0.02357-0.18492 0.13401-0.53004 0.99069-0.82756
   1   3  -3188785.7 4340.99   1-0.82984 0.99130 0.50646-0.11068-0.23420 0.07115
   1   3  -2385058.9 4114.08   1 0.33382-0.17518 0.35026 0.03509 0.87514-0.98391
  -1  -3   2349625.2 3724.19   1-0.17123 0.01255 0.10612-0.49142 0.97949-0.87083
  -1  -3   2385293.4 4253.57   1-0.87737 0.71867 0.23847-0.62357 0.41634-0.30765
   1   3  -1354893.1 3799.25   1 0.18295-0.02644 0.28417 0.09057 0.94115-0.99553
  -1  -3   1326958.2 3484.26   1-0.29335 0.13681 0.03704-0.41178 0.95528-0.90095
  -1  -3   1359570.7 3961.41   1-0.87730 0.72075 0.20559-0.58018 0.43367-0.37933
   1   3   0118855.2 2815.57   1 0.02029 0.13424 0.20626 0.15790 0.97828-0.97828
  -1  -3   0111588.6 2633.70   1-0.41801 0.26362-0.03759-0.32656 0.90766-0.90766
  -1  -3   0118601.6 2850.69   1-0.87495 0.72055 0.15625-0.52034 0.45830-0.45830
   1   3   097862.94 2382.23   1-0.80490 0.95963 0.55685-0.19253 0.20501-0.20501
   1   3   0118175.1 2702.85   1-0.38385 0.53854 0.37799-0.01381 0.84248-0.84248
   1   3   0111755.9 2561.56   1-0.80204 0.95683 0.55601-0.19208 0.21809-0.21809
   1   3   1 7617.01  414.30   1-0.14003 0.29230 0.12312 0.23051 0.98246-0.92812
  -1  -3  -1 7315.62  863.51   1-0.86699 0.71489 0.08401-0.43745 0.49117-0.54548
   1   3   1 5995.02  362.78   1-0.81674 0.96905 0.53078-0.17711 0.22627-0.17192
   1   3   1 8115.09  344.54   1 0.32685-0.17435-0.07180 0.42565 0.94234-0.88793
   1   3   1 6885.00  324.88   1-0.82558 0.97831 0.55471-0.20120 0.10340-0.04905
   1   3   2  843.60  122.63   1 0.63617-0.48607 0.18074 0.16221-0.75007 0.85872
   1   3   2 1488.11  171.26   1-0.28399 0.43413 0.04248 0.30059 0.95788-0.84921
  -1  -3  -2 1014.64  147.24   1-0.84563 0.69567-0.02063-0.32231 0.53336-0.64199
   1   3   2  531.88  105.98   1-0.82694 0.97712 0.50574-0.16260 0.24575-0.13705
   1   3   2  910.12  100.05   1 0.59577-0.44547-0.27794 0.62125 0.75352-0.64466
   1   3   2  773.04  118.54   1-0.82678 0.97732 0.55432-0.21135 0.09564 0.01304
   1   3   312792.48  679.06   1 0.71545-0.56744 0.24164 0.09095-0.65554 0.81837
   1   3   315910.11  728.74   1-0.40431 0.55230-0.02908 0.36163 0.91415-0.75111
  -1  -3  -315403.79  679.62   1-0.79434 0.64624-0.17088-0.16174 0.58292-0.74579
   1   3   313409.72  620.52   1-0.83560 0.98365 0.48194-0.14935 0.26361-0.10057
   1   3   313413.53  595.58   1 0.70365-0.55557-0.37115 0.70387 0.60589-0.44260
   1   3   315077.21  684.48   1-0.82499 0.97333 0.55489-0.22246 0.10713 0.05590
  -1  -3  -4291943.4 3116.20   1-0.68402 0.53826-0.37875 0.05659 0.62342-0.84087
   1   3   4284933.5 3032.44   1 0.75215-0.60627-0.41751 0.73965 0.50984-0.29212
   1   3   4301534.6 3337.16   1-0.82182 0.96797 0.55566-0.23377 0.12586 0.09151
  -1  -3  -5319508.7 3539.90   1 0.57169-0.71539 0.13478-0.44620-0.80932 0.53769
   1   3   5312203.9 3230.43   1 0.45761-0.31401 0.63766-0.32627-0.61966 0.89159
   1   3   5278901.6 3123.89   1 0.77620-0.63253-0.44248 0.75403 0.44911-0.17696
  -1  -3  -6145645.7 3490.47   1 0.62400-0.76556 0.17185-0.47277-0.76229 0.43633
   1   3   6121907.2 2827.21   1-0.84735 0.98902 0.44443-0.14345 0.29061 0.03547
   1   3   6134240.9 3084.91   1 0.05895 0.08287 0.86796-0.56732-0.49310 0.81930
   1   3   6144933.2 3504.89   1-0.81285 0.95456 0.55622-0.25563 0.17285 0.15315
  -1  -3  -750638.46 1360.49   1 0.66214-0.80158 0.20008-0.49049-0.72216 0.34188
   1   3   745910.25 1070.05   1-0.83066 0.97033 0.49598-0.20530 0.25296 0.12767
   1   3   748718.96 1126.18   1-0.48728 0.62703 0.86016-0.56972-0.15053 0.53126
   1   3   752784.20 1444.23   1-0.80702 0.94655 0.55625-0.26622 0.19821 0.18212
  -1  -3  -843009.25 1887.15   1 0.68968-0.82699 0.22122-0.50111-0.68948 0.25487
   1   3   845927.79 2023.06   1-0.80039 0.93774 0.55589-0.27641 0.22437 0.21030
  -1  -3  -9 6002.95  982.92   1 0.70924-0.84446 0.23664-0.50602-0.66405 0.17557
   1   3   9 5420.72  537.40   1-0.79299 0.92815 0.55510-0.28618 0.25104 0.23795
  -1  -3 -1041229.91 1874.62   1 0.72301-0.85609 0.24779-0.50663-0.64486 0.10210
   1   3  1038905.39 1804.03   1-0.78480 0.91778 0.55385-0.29548 0.27809 0.26524
  -1  -3 -1181637.16 3274.46   1 0.73224-0.86319 0.25539-0.50370-0.63133 0.03430
   1   3  1185977.85 3424.63   1-0.77581 0.90662 0.55212-0.30431 0.30539 0.29227
  -1  -3 -1230238.84 1799.34   1 0.73793-0.86675 0.26014-0.49791-0.62271-0.02859
   1   3  1232822.58 1625.18   1-0.76603 0.89465 0.54989-0.31264 0.33288 0.31912
  -1  -3 -1314900.59 2437.73   1 0.74078-0.86746 0.26254-0.48977-0.61831-0.08727
   1   3  1316295.70 1044.60   1-0.75542 0.88186 0.54715-0.32046 0.36049 0.34585
  -1  -3 -14 4924.49  584.92   1 0.74128-0.86583 0.26296-0.47966-0.61753-0.14232
   1   3  14 3644.22  514.97   1-0.74398 0.86824 0.54387-0.32773 0.38819 0.37248
  -1  -3 -15 1038.46  345.44   1 0.73977-0.86219 0.26169-0.46785-0.61988-0.19425
   1   3  15 1022.42  361.09   1-0.73137 0.85391 0.54010-0.33486 0.41639 0.39835
  -1  -3 -16 5935.10 1375.51   1 0.73649-0.85678 0.25894-0.45456-0.62491-0.24349
   1   3  16 6693.34  814.21   1-0.71816 0.83855 0.53567-0.34100 0.44417 0.42488
   1   4 -1269176.88 3172.85   1 0.88164-0.70893 0.47034 0.14142 0.03854-0.69094
  -1  -4  1275008.46 3480.60   1-0.86773 0.69522 0.08900-0.70011 0.48898 0.16278
   1   4 -1158853.53 3774.96   1 0.87185-0.70131 0.47855 0.12267 0.10417-0.70221
  -1  -4  1171156.67 4583.74   1-0.86987 0.69950 0.10462-0.70524 0.48204 0.11541
   1   4 -1077242.37 3474.08   1 0.85714-0.68877 0.48495 0.10575 0.17354-0.71721
  -1  -4  1090013.53 4543.16   1-0.87129 0.70282 0.11767-0.70819 0.47643 0.06698
   1   4  -926658.25 1327.00   1 0.83647-0.67027 0.48908 0.09109 0.24720-0.73650
  -1  -4   932436.10 2414.70   1-0.87241 0.70609 0.12788-0.70789 0.47173 0.01735
  -1  -4   926602.62 1235.88   1-0.28572 0.11835 0.32249-0.90296 0.90241-0.41309
   1   4  -8 6133.02  583.97   1 0.80871-0.64431 0.48984 0.08031 0.32561-0.76053
  -1  -4   8 7928.58  879.88   1-0.87312 0.70896 0.13493-0.70444 0.46844-0.03370
  -1  -4   8 6985.88  561.29   1-0.24705 0.08190 0.29992-0.86985 0.92141-0.48646
   1   4  -783582.57 3258.08   1 0.77151-0.60929 0.48725 0.07235 0.40908-0.78963
  -1  -4   788956.36 3533.20   1-0.87345 0.71144 0.13841-0.69741 0.46681-0.08641
  -1  -4   783423.53 3163.79   1-0.18658 0.02355 0.26488-0.82456 0.94605-0.56527
   1   4  -683718.16 3244.89   1 0.72280-0.56276 0.47962 0.06943 0.49751-0.82369
  -1  -4   689313.56 3532.46   1-0.87339 0.71353 0.13778-0.68627 0.46710-0.14105
  -1  -4   687828.33 3317.25   1-0.10027-0.06050 0.21204-0.76117 0.97210-0.64571
   1   4  -5149889.0 3978.71   1 0.66035-0.50263 0.46509 0.07337 0.58959-0.86137
  -1  -4   5156584.2 4343.16   1-0.87287 0.71515 0.13236-0.67035 0.46964-0.19793
  -1  -4   5156753.8 4058.80   1 0.02894-0.18736 0.13053-0.66914 0.99102-0.71912
   1   4  -5144460.0 3764.51   1-0.83640 0.99497 0.51998 0.01826-0.17333-0.09841
   1   4  -4125959.7 3355.87   1 0.58047-0.42494 0.44223 0.08566 0.68372-0.90115
  -1  -4   4134981.7 3710.56   1-0.87170 0.71613 0.12127-0.64875 0.47478-0.25741
  -1  -4   4127434.8 3294.23   1 0.21443-0.37055 0.00730-0.53527 0.97671-0.75906
   1   4  -4122982.5 3199.52   1-0.83928 0.99566 0.52928-0.00157-0.12434-0.09304
   1   4  -380353.47 3053.98   1 0.48259-0.32912 0.40837 0.10900 0.77481-0.93797
  -1  -4   384447.70 3284.37   1-0.86970 0.71648 0.10334-0.62004 0.48262-0.31968
  -1  -4   378481.86 2914.48   1 0.45863-0.61277-0.16864-0.34874 0.87247-0.70913
   1   4  -374408.44 2770.89   1-0.83989 0.99414 0.53971-0.02269-0.05739-0.10564
   1   4  -282232.89 3112.77   1 0.36451-0.21320 0.36290 0.14392 0.85757-0.96634
  -1  -4   283469.66 3585.65   1-0.86594 0.71486 0.07718-0.58339 0.49414-0.38551
   1   4  -279321.62 2939.69   1-0.82949 0.98155 0.55322-0.04674 0.07669-0.18538
   1   4  -1157893.7 4138.39   1 0.23018-0.08114 0.30555 0.19056 0.92393-0.97831
  -1  -4   1159160.3 4238.36   1-0.85955 0.71060 0.04085-0.53657 0.50941-0.45510
   1   4  -1150670.3 3861.70   1-0.73128 0.88096 0.53991-0.04410 0.41678-0.47111
   1   4  -1151308.0 3879.84   1-0.81659 0.96639 0.48612 0.00998-0.31121 0.25686
   1   4   0117556.4 2802.23   1 0.08653 0.06060 0.23885 0.24671 0.96719-0.96719
  -1  -4   0116304.6 3014.17   1-0.84880 0.70200-0.00803-0.47719 0.52865-0.52865
   1   4   0110194.1 2541.39   1-0.39847 0.54579 0.38603 0.09954 0.83198-0.83198
   1   4   0106312.0 2466.66   1-0.83617 0.98378 0.51940-0.03383-0.17614 0.17614
   1   4   1208534.7 2365.81   1-0.05610 0.20112 0.16731 0.30767 0.98430-0.92999
  -1  -4  -1208479.2 2464.56   1-0.83089 0.68623-0.07246-0.40228 0.55169-0.60600
   1   4   1190375.8 4375.54   1-0.00138 0.14648 0.15012 0.32503 0.98866-0.93428
   1   4   1191529.4 4430.29   1-0.83979 0.98520 0.53221-0.05717-0.10721 0.16156
   1   4   2197266.4 2263.55   1-0.18902 0.33172 0.09631 0.36816 0.97723-0.86856
  -1  -4  -2203469.4 2410.60   1-0.80035 0.65758-0.15614-0.30830 0.57883-0.68741
   1   4   2195261.1 2096.47   1 0.29082-0.14787-0.04610 0.51087 0.95566-0.84683
   1   4   2184328.1 4295.81   1-0.83989 0.98317 0.53967-0.07535-0.05768 0.16637
   1   4   3114570.5 2747.59   1-0.30459 0.44517 0.03047 0.42345 0.95199-0.78899
  -1  -4  -3116735.0 2892.67   1-0.75190 0.61125-0.26205-0.19192 0.60494-0.76780
   1   4   394644.57 2324.39   1-0.85009 0.99072 0.43453 0.01945 0.29751-0.13447
   1   4   3110442.1 2598.46   1 0.47166-0.33059-0.17856 0.63282 0.86351-0.70017
   1   4   3111387.3 2666.03   1-0.83836 0.97945 0.54484-0.09106-0.01691 0.17994
   1   4   4  802.24  184.95   1-0.40108 0.53952-0.02708 0.47048 0.91563-0.69825
  -1  -4  -4  998.03  190.17   1-0.67463 0.53636-0.39273-0.05085 0.62500-0.84245
   1   4   4 1237.55  166.99   1-0.85623 0.99474 0.41003 0.03342 0.31420-0.09681
   1   4   4 1012.48  136.53   1 0.57720-0.43871-0.26277 0.70640 0.77316-0.55544
   1   4   4 1459.07  206.34   1-0.83575 0.97464 0.54874-0.10550 0.02005 0.19732
   1   4   5 8665.87  687.21   1-0.47795 0.61426-0.07567 0.50853 0.87511-0.60338
   1   4   5 6726.56  533.81   1-0.86100 0.99737 0.38813 0.04478 0.32867-0.05692
   1   4   5 5530.83  826.64   1 0.64250-0.50622-0.31711 0.75016 0.69759-0.42543
   1   4   5 7987.99  646.64   1-0.83222 0.96892 0.55171-0.11901 0.05488 0.21683
   1   4   627615.14 1198.80   1-0.86432 0.99856 0.37067 0.05170 0.33991-0.01382
   1   4   632423.29 1351.24   1 0.37157-0.23758 0.70627-0.28407-0.60257 0.92889
   1   4   633448.92 1512.91   1-0.82785 0.96236 0.55392-0.13177 0.08838 0.23768
  -1  -4  -714908.94 1102.12   1 0.58664-0.71860 0.14520-0.55693-0.79672 0.41643
   1   4   711352.19  820.85   1-0.86600 0.99811 0.36093 0.05091 0.34607 0.03436
   1   4   715130.97 1044.23   1 0.12144 0.01063 0.84547-0.43409-0.52001 0.90080
   1   4   716801.21  857.55   1-0.82267 0.95498 0.55548-0.14386 0.12099 0.25941
  -1  -4  -8141574.0 3826.83   1 0.62159-0.75143 0.17011-0.57134-0.76464 0.33003
   1   4   8138043.0 3560.26   1-0.18922 0.31954 0.91252-0.51172-0.36260 0.79751
   1   4   8156518.9 4271.53   1-0.81694 0.94699 0.55594-0.15515 0.15338 0.28129
  -1  -4  -9211728.2 5677.76   1 0.64788-0.77558 0.18939-0.58010-0.73781 0.24888
   1   4   9178195.8 4583.47   1-0.85697 0.98482 0.40682-0.01606 0.31635 0.17279
   1   4   9190310.7 4878.80   1-0.52569 0.65380 0.84252-0.45175-0.11750 0.60700
   1   4   9231408.7 6193.32   1-0.81016 0.93803 0.55628-0.16605 0.18485 0.30415
  -1  -4 -10 2193.21  388.55   1 0.66736-0.79293 0.20403-0.58423-0.71623 0.17297
   1   4  10 1381.47  258.28   1-0.80259 0.92828 0.55605-0.17638 0.21596 0.32737
  -1  -4 -11  343.84  243.53   1 0.68148-0.80492 0.21485-0.58454-0.69957 0.10199
   1   4  11   -2.06  308.86   1-0.79422 0.91772 0.55525-0.18614 0.24678 0.35089
  -1  -4 -12 8548.90 1254.86   1 0.69133-0.81263 0.22250-0.58168-0.68742 0.03550
   1   4  12 8518.24  797.73   1-0.78503 0.90635 0.55389-0.19533 0.27736 0.37464
  -1  -4 -13 8227.03  872.24   1 0.69768-0.81696 0.22745-0.57608-0.67934-0.02624
   1   4  13 9240.15  685.68   1-0.77501 0.89415 0.55195-0.20395 0.30774 0.39860
  -1  -4 -1411999.61 1436.42   1 0.70122-0.81837 0.23024-0.56834-0.67474-0.08511
   1   4  1412465.36 1002.04   1-0.76414 0.88111 0.54943-0.21198 0.33794 0.42273
  -1  -4 -1512288.83 1543.00   1 0.70231-0.81733 0.23111-0.55868-0.67330-0.14083
   1   4  1514926.87 1015.54   1-0.75240 0.86719 0.54631-0.21943 0.36799 0.44702
  -1  -5  1032840.07 3171.13   1-0.85302 0.69225 0.00990-0.72133 0.52176 0.02137
   1   5  -964790.49 3038.99   1 0.85023-0.69153 0.48677 0.21475 0.20038-0.68968
  -1  -5   974088.71 3575.77   1-0.85451 0.69588 0.01656-0.71751 0.51916-0.03033
   1   5  -885038.14 5349.44   1 0.82553-0.66859 0.48956 0.20203 0.28074-0.71565
  -1  -5   894511.07 6622.47   1-0.85526 0.69877 0.02001-0.71047 0.51779-0.08328
   1   5  -771789.89 3188.47   1 0.79166-0.63690 0.48911 0.19193 0.36612-0.74666
  -1  -5   781244.96 3698.41   1-0.85524 0.70089 0.01989-0.69985 0.51784-0.13764
   1   5  -632996.20 1529.82   1 0.74689-0.59432 0.48386 0.18663 0.45608-0.78227
  -1  -5   633886.63 3465.37   1-0.85433 0.70212 0.01574-0.68522 0.51948-0.19359
   1   5  -5  223.86  160.74   1 0.68953-0.53931 0.47221 0.18765 0.54914-0.82092
  -1  -5   5 1622.35  404.94   1-0.85237 0.70231 0.00704-0.66603 0.52288-0.25130
   1   5  -457361.10 2248.32   1 0.61642-0.46839 0.45305 0.19624 0.64401-0.86144
  -1  -5   460750.78 2503.20   1-0.84908 0.70116-0.00688-0.64161 0.52821-0.31095
   1   5  -3182322.5 6858.99   1 0.52769-0.38167 0.42427 0.21454 0.73588-0.89905
  -1  -5   3188015.1 7213.78   1-0.84401 0.69824-0.02682-0.61118 0.53564-0.37269
  -1  -5   3165636.7 6166.88   1 0.67544-0.82201-0.34575-0.29345 0.65132-0.48803
   1   5  -231379.88 1392.95   1 0.42168-0.27782 0.38555 0.24271 0.82068-0.92946
  -1  -5   235964.29 2581.44   1-0.83653 0.69290-0.05373-0.57378 0.54526-0.43663
  -1  -5   229611.07 1238.06   1 0.77157-0.91592-0.43752-0.19109 0.46178-0.35292
   1   5  -231687.52 1325.67   1-0.81378 0.95859 0.55663 0.07119 0.16704-0.27573
   1   5  -154042.76 2265.33   1 0.30172-0.16014 0.33675 0.28075 0.89194-0.94632
  -1  -5   151221.73 2430.05   1-0.82568 0.68419-0.08875-0.52827 0.55710-0.50278
   1   5  -151371.19 2091.80   1-0.70677 0.84926 0.53163 0.08533 0.46671-0.52103
   1   5  -151403.12 2096.06   1-0.82004 0.96257 0.49098 0.12651-0.29403 0.23968
   1   5   0193829.2 5066.78   1 0.17318-0.03374 0.27967 0.32722 0.94434-0.94434
  -1  -5   0186147.2 5145.75   1-0.80920 0.66964-0.13328-0.47344 0.57220-0.57220
   1   5   0175246.6 4508.38   1-0.48598 0.62593 0.43150 0.17487 0.76001-0.76001
   1   5   0168253.4 4347.16   1-0.83294 0.97327 0.51228 0.09468-0.20919 0.20919
   1   5   1 5273.56  473.52   1 0.04335 0.09426 0.21773 0.37864 0.97504-0.92073
  -1  -5  -1 4884.74  721.99   1-0.78683 0.64939-0.18858-0.40768 0.58764-0.64193
   1   5   1 4459.32  332.89   1-0.21234 0.34993 0.28032 0.31639 0.93612-0.88172
   1   5   1 4510.00  365.58   1-0.83800 0.97614 0.52449 0.07194-0.15049 0.20484
   1   5   216450.42  789.68   1-0.08037 0.21587 0.15463 0.43116 0.98469-0.87606
  -1  -5  -217992.83  905.95   1-0.75497 0.61965-0.25607-0.32971 0.60368-0.71225
   1   5   216053.14  841.86   1 0.03476 0.10074 0.12675 0.45926 0.99132-0.88256
   1   5   215705.34  864.69   1-0.83993 0.97596 0.53287 0.05280-0.10274 0.21143
   1   5   391327.44 3462.85   1-0.19300 0.32614 0.09411 0.48121 0.97667-0.81367
  -1  -5  -391019.53 3579.33   1-0.70985 0.57665-0.33688-0.23843 0.61855-0.78141
   1   5   387015.21 3292.42   1 0.22872-0.09533-0.00257 0.57827 0.97348-0.81024
   1   5   387389.11 3313.41   1-0.83996 0.97380 0.53914 0.03598-0.06150 0.22453
   1   5   4107326.4 2901.97   1-0.29033 0.42134 0.03880 0.52596 0.95613-0.73880
  -1  -5  -4104916.8 2983.60   1-0.64707 0.51629-0.43159-0.13342 0.62850-0.84595
   1   5   496118.21 3594.64   1 0.36807-0.23687-0.10164 0.66681 0.92422-0.70657
   1   5   4104739.5 2835.50   1-0.83870 0.97034 0.54407 0.02051-0.02347 0.24085
   1   5   558375.51 2280.50   1-0.37255 0.50143-0.00960 0.56385 0.92796-0.65622
  -1  -5  -556813.16 2174.71   1-0.55928 0.43064-0.53813-0.01635 0.63055-0.90237
   1   5   558043.74 2285.99   1-0.83637 0.96581 0.54801 0.00603 0.01257 0.25914
   1   5   650598.98 2214.15   1-0.43939 0.56614-0.05101 0.59473 0.89684-0.57076
   1   5   650276.38 2133.62   1 0.44067-0.31412 0.65217-0.10863-0.61682 0.94314
   1   5   652016.23 2283.22   1-0.83308 0.96033 0.55112-0.00761 0.04731 0.27875
   1   5   7 8660.52  590.38   1-0.49316 0.61777-0.08556 0.61874 0.86571-0.48529
   1   5   7 9147.32  527.46   1 0.28582-0.16108 0.76379-0.23107-0.57872 0.95950
   1   5   710308.97  731.84   1-0.82888 0.95394 0.55350-0.02053 0.08112 0.29928
   1   5   8 3457.68  245.44   1 0.08954 0.03333 0.85755-0.33540-0.50654 0.94148
   1   5   8 3837.18  433.27   1-0.82382 0.94668 0.55520-0.03278 0.11426 0.32048
  -1  -5  -9 5165.65  492.68   1 0.57181-0.69204 0.13486-0.64690-0.80921 0.32028
   1   5   9 4845.98  297.85   1-0.14513 0.26604 0.90993-0.39839-0.38851 0.87778
   1   5   9 5838.68  585.02   1-0.81816 0.93874 0.55580-0.04426 0.14723 0.34176
  -1  -5 -1016429.32  954.09   1 0.59760-0.71570 0.15293-0.65446-0.78706 0.24380
   1   5  1018796.17 1051.35   1-0.81140 0.92979 0.55626-0.05528 0.17943 0.36391
  -1  -5 -1135826.03 1743.23   1 0.61730-0.73327 0.16701-0.65802-0.76879 0.17120
   1   5  1141243.42 2033.18   1-0.80378 0.91999 0.55612-0.06569 0.21130 0.38637
  -1  -5 -1216882.90 1001.23   1 0.63201-0.74584 0.17769-0.65820-0.75431 0.10239
   1   5  1218744.03 1091.97   1-0.79532 0.90935 0.55539-0.07552 0.24290 0.40911
  -1  -5 -1315748.88 1082.93   1 0.64259-0.75430 0.18548-0.65547-0.74341 0.03717
   1   5  1320679.32 1553.93   1-0.78599 0.89784 0.55405-0.08474 0.27427 0.43207
  -1  -5 -14   88.24  234.83   1 0.64973-0.75930 0.19077-0.65026-0.73582-0.02473
   1   5  14  520.78  462.96   1-0.77579 0.88546 0.55211-0.09336 0.30545 0.45522
  -1  -6   710494.15 1531.53   1-0.82573 0.67883-0.08860-0.71267 0.55705-0.17685
  -1  -6   652257.76 3548.92   1-0.82374 0.67898-0.09463-0.69615 0.55901-0.23312
  -1  -6   5119523.9 8907.11   1-0.82028 0.67766-0.10482-0.67547 0.56227-0.29070
   1   6  -443407.46 1971.59   1 0.67222-0.53170 0.46808 0.30262 0.57359-0.79101
  -1  -6   443280.80 4129.29   1-0.81505 0.67458-0.11966-0.65014 0.56689-0.34963
   1   6  -323887.63 1132.85   1 0.59292-0.45458 0.44607 0.31406 0.67042-0.83349
  -1  -6   326041.82 2256.14   1-0.80680 0.66833-0.13962-0.61985 0.57408-0.41122
   1   6  -2  326.70  147.06   1 0.49982-0.36342 0.41455 0.33514 0.76047-0.86925
  -1  -6   2  738.70  204.45   1-0.79657 0.66022-0.16549-0.58351 0.58145-0.47287
   1   6  -116710.32  824.30   1 0.39278-0.25854 0.37424 0.36490 0.84003-0.89442
  -1  -6   116039.10 1669.36   1-0.78276 0.64854-0.19783-0.54071 0.59003-0.53574
   1   6   070444.90 3365.94   1 0.27661-0.14463 0.32597 0.40231 0.90400-0.90400
  -1  -6   069127.28 3738.73   1-0.76433 0.63223-0.23733-0.49074 0.59954-0.59954
   1   6   160005.62 2886.51   1 0.15720-0.02736 0.27226 0.44540 0.94929-0.89490
  -1  -6  -157814.01 2857.37   1-0.73988 0.60990-0.28472-0.43289 0.60951-0.66379
   1   6   260027.41 2884.52   1 0.04056 0.08753 0.21635 0.49083 0.97547-0.86684
  -1  -6  -258614.49 2889.07   1-0.70760 0.57973-0.34057-0.36656 0.61911-0.72768
   1   6   254050.05 2591.73   1-0.84009 0.96887 0.53765 0.16936-0.07187 0.18056
   1   6   311283.20  855.15   1-0.06852 0.19450 0.16084 0.53576 0.98459-0.82165
  -1  -6  -311873.48 1588.83   1-0.66575 0.54031-0.40559-0.29139 0.62631-0.78939
   1   6   311243.22  851.06   1-0.83952 0.96610 0.54158 0.15489-0.04348 0.20652
   1   6   419288.58  949.03   1-0.16717 0.29075 0.10834 0.57781 0.97995-0.76261
  -1  -6  -418529.29  937.31   1-0.61042 0.48712-0.47894-0.20750 0.63087-0.84832
   1   6   421100.20 1020.01   1-0.83820 0.96259 0.54516 0.14077-0.01413 0.23151
   1   6   5  911.45  345.46   1-0.25274 0.37418 0.06048 0.61513 0.96564-0.69396
   1   6   5   96.63  177.23   1-0.83611 0.95830 0.54832 0.12706 0.01578 0.25594
   1   6   653085.90 2599.99   1-0.32607 0.44539 0.01829 0.64680 0.94516-0.61908
   1   6   651789.50 2503.84   1 0.44757-0.32846 0.64632 0.01855-0.61801 0.94433
   1   6   653880.51 2661.71   1-0.83322 0.95321 0.55102 0.11383 0.04603 0.28003
   1   6   727560.66 1340.06   1-0.38677 0.50396-0.01828 0.67284 0.92199-0.54156
   1   6   726957.58 1233.21   1 0.33205-0.21511 0.73383-0.07947-0.59264 0.97334
   1   6   726638.31 1313.51   1-0.82951 0.94732 0.55321 0.10110 0.07650 0.30391
   1   6   824611.74 1222.71   1-0.43671 0.55177-0.04932 0.69335 0.89824-0.46347
   1   6   823643.99 1084.10   1 0.19112-0.07591 0.81497-0.17148-0.54707 0.98225
   1   6   829318.89 1528.76   1-0.82499 0.94060 0.55489 0.08888 0.10710 0.32765
   1   6   9 9799.06  612.20   1-0.47730 0.59023-0.07525 0.70874 0.87550-0.38638
   1   6   9 9043.99  566.23   1-0.81965 0.93306 0.55604 0.07719 0.13778 0.35132
   1   6  1014827.57 1031.46   1-0.50995 0.62075-0.09659 0.71955 0.85476-0.31129
   1   6  1015741.19 1100.61   1-0.81374 0.92483 0.55618 0.06611 0.16877 0.37456
   1   6  11 2132.36  490.42   1-0.80671 0.91562 0.55624 0.05548 0.19949 0.39817
  -1  -6 -12 1870.19  421.17   1 0.55871-0.66508 0.12583-0.72766-0.81975 0.16784
   1   6  12 2666.61  490.95   1-0.79882 0.90556 0.55575 0.04542 0.23023 0.42177
  -1  -7   346230.33 2224.65   1-0.76264 0.63163-0.24078-0.64005 0.60032-0.43746
  -1  -7   259632.44 2899.77   1-0.75047 0.62157-0.26482-0.60554 0.60552-0.49694
  -1  -7   129718.36 2676.50   1-0.73473 0.60796-0.29409-0.56580 0.61128-0.55699
  -1  -7   0 4002.56  603.39   1-0.71462 0.58996-0.32898-0.52043 0.61731-0.61731
  -1  -7  -1 5722.03  765.64   1-0.68957 0.56734-0.37029-0.46918 0.62238-0.67674
   1   7   2 9372.06  647.55   1 0.17547-0.05523 0.28073 0.54771 0.94360-0.83484
  -1  -7  -2 7953.02 1281.74   1-0.65743 0.53734-0.41734-0.41160 0.62737-0.73610
   1   7   319470.24 1420.76   1 0.06922 0.04935 0.23044 0.58755 0.97061-0.80767
  -1  -7  -317513.01 2037.75   1-0.61707 0.49911-0.47068-0.34772 0.63061-0.79370
   1   7   431207.55 2009.07   1-0.02943 0.14589 0.18107 0.62634 0.98302-0.76577
  -1  -7  -431193.59 2021.57   1-0.56663 0.45081-0.53007-0.27780 0.63083-0.84828
   1   7   517969.97 1100.80   1-0.11868 0.23269 0.13461 0.66239 0.98376-0.71209
   1   7   520386.11 1365.89   1 0.50467-0.39085 0.59447 0.20227-0.62602 0.89795
   1   7   613415.52  881.30   1-0.19663 0.30851 0.09209 0.69436 0.97614-0.65013
   1   7   613810.87  853.73   1 0.42755-0.31589 0.66306 0.12316-0.61444 0.94076
   1   7   7  940.94  336.92   1-0.26378 0.37352 0.05415 0.72174 0.96306-0.58272
   1   7   8  757.23  315.68   1-0.82098 0.92933 0.55582 0.20930 0.13057 0.30418
   1   7   9 1853.13  300.63   1-0.36890 0.47441-0.00738 0.76227 0.92943-0.44031
   1   7   9 3439.73  491.71   1-0.81622 0.92220 0.55600 0.19815 0.15693 0.33206
  -2   6   923302.76 1292.63   1-0.09378-0.32297 0.90382-0.27092-0.41749 0.90680
   2  -6  -921616.81 1216.14   1 0.78536-0.36737-0.45253-0.18116 0.42238-0.91225
  -2   6   8 6011.97  678.67   1-0.02631-0.38828 0.89130-0.24786-0.45264 0.88758
   2  -6  -8 5535.48  673.92   1 0.76582-0.35003-0.43148-0.21279 0.47680-0.91224
  -2   6   7 4174.17  427.50   1 0.03911-0.45154 0.87414-0.22016-0.48408 0.86465
   2  -6  -7 3047.53  397.02   1 0.74289-0.32931-0.40832-0.24654 0.53045-0.91146
  -2   6   6  269.45  276.61   1 0.10181-0.51209 0.85306-0.18854-0.51177 0.83797
   2  -6  -6  357.51  270.45   1 0.71656-0.30519-0.38310-0.28233 0.58288-0.90947
  -2   6   5  401.50  297.85   1 0.16075-0.56924 0.82898-0.15379-0.53566 0.80765
   2  -6  -5  714.15  266.58   1 0.68689-0.27774-0.35595-0.32007 0.63361-0.90576
  -2   6   4 3883.09  455.53   1 0.21640-0.62270 0.80243-0.11668-0.55611 0.77370
   2  -6  -4 3917.53  590.96   1 0.65406-0.24711-0.32705-0.35956 0.68208-0.89980
  -2   6   323992.69 1290.32   1 0.26791-0.67202 0.77437-0.07805-0.57320 0.73640
   2  -6  -319890.49 2199.26   1 0.61834-0.21361-0.29668-0.40051 0.72775-0.89104
  -2   6   232755.05 1679.78   1 0.31505-0.71698 0.74559-0.03871-0.58722 0.69601
   2  -6  -234398.76 1656.91   1 0.58019-0.17766-0.26520-0.44257 0.77009-0.87895
  -2   6   116870.42 1171.65   1 0.35674-0.75702 0.71689 0.00062-0.59899 0.65338
   2  -6  -114774.08 2024.65   1 0.54102-0.14125-0.23255-0.48565 0.80821-0.86265
  -2   6   017216.88 1167.88   1 0.39495-0.79307 0.68885 0.03920-0.60786 0.60786
   2  -6   014865.93 1612.80   1 0.49973-0.10215-0.20017-0.52855 0.84272-0.84272
  -2   6  -1 5898.04  503.62   1 0.42879-0.82475 0.66204 0.07653-0.61467 0.56029
   2  -6   1 5901.09  821.18   1 0.45797-0.06256-0.16813-0.57112 0.87292-0.81847
  -2   6  -2 7656.57  792.25   1 0.45842-0.85222 0.63694 0.11215-0.61978 0.51101
   2  -6   2 6196.07  946.27   1 0.41650-0.02327-0.13694-0.61283 0.89876-0.78987
  -2   6  -321457.85 1321.00   1 0.48406-0.87569 0.61392 0.14570-0.62351 0.46035
   2  -6   314470.78 2052.02   1 0.37586 0.01523-0.10734-0.65300 0.92043-0.75719
  -2   6  -432675.90 1755.09   1 0.50593-0.89539 0.59325 0.17690-0.62615 0.40861
   2  -6   430302.09 1553.76   1 0.33724 0.05167-0.07928-0.69160 0.93807-0.72042
  -2   6  -5 6894.25  719.49   1 0.52428-0.91158 0.57513 0.20554-0.62796 0.35603
   2  -6   5 4670.89  830.27   1 0.30097 0.08573-0.05330-0.72810 0.95214-0.68007
   2  -5 -12 7901.24 1598.01   1 0.85226-0.43636 0.37284-0.85351-0.36692-0.28478
  -2   5  12 7596.00  594.51   1-0.35519-0.06078 0.89986-0.41932-0.25312 0.90579
  -2   5  12 8982.60  695.30   1-0.82608 0.40998 0.50014-0.01958-0.25969 0.91188
   2  -5 -11 6513.49 1180.76   1 0.85395-0.44016 0.37500-0.86616-0.36073-0.23666
  -2   5  11 8008.55  690.33   1-0.28634-0.12695 0.90962-0.41916-0.30099 0.89898
  -2   5  11 9944.95  792.28   1-0.81512 0.40121 0.48411 0.00697-0.31811 0.91595
   2  -5 -10 3531.45  655.62   1 0.85453-0.44284 0.37574-0.87741-0.35859-0.18450
  -2   5  10 3273.57  388.65   1-0.21577-0.19535 0.91293-0.41193-0.34639 0.89002
  -2   5  10 3457.35  448.59   1-0.80059 0.38887 0.46566 0.03595-0.37709 0.92058
   2  -5  -9 2661.50  506.05   1 0.85372-0.44413 0.37471-0.88688-0.36157-0.12720
  -2   5   9 3263.15  325.97   1-0.14433-0.26462 0.90987-0.39832-0.38897 0.87824
   2  -5  -9 3197.31  402.87   1 0.78049-0.36988-0.44713-0.06506 0.43692-0.92679
   2  -5  -8 5923.14  918.95   1 0.85105-0.44356 0.37133-0.89400-0.37123-0.06323
  -2   5   8 7408.53  494.34   1-0.07345-0.33383 0.90060-0.37846-0.42838 0.86332
   2  -5  -8 5875.69  506.23   1 0.75798-0.34958-0.42340-0.09938 0.49617-0.93161
   2  -5  -716531.02 1381.21   1 0.84559-0.44020 0.36466-0.89784-0.38985 0.00969
  -2   5   718022.45  983.25   1-0.00293-0.40219 0.88573-0.35305-0.46417 0.84474
   2  -5  -716488.45 2114.95   1 0.73117-0.32498-0.39694-0.13642 0.55481-0.93582
   2  -5  -630605.35 1430.53   1 0.83554-0.43225 0.35303-0.89671-0.42098 0.09512
  -2   5   631846.64 1572.05   1 0.06577-0.46873 0.86574-0.32251-0.49615 0.82235
   2  -5  -631836.47 1563.33   1 0.69995-0.29597-0.36776-0.17619 0.61222-0.93880
   2  -5  -566878.94 3205.07   1 0.81705-0.41586 0.33320-0.88739-0.47053 0.19898
  -2   5   572093.35 3521.26   1 0.13136-0.53251 0.84148-0.28763-0.52406 0.79605
   2  -5  -568228.79 3573.52   1 0.66431-0.26255-0.33597-0.21857 0.66768-0.93983
   2  -5  -4 6424.90  675.64   1 0.78057-0.38184 0.29742-0.86228-0.54976 0.33266
  -2   5   4 8074.87  589.78   1 0.19399-0.59295 0.81358-0.24917-0.54812 0.76571
   2  -5  -4 7012.17 1109.96   1 0.62444-0.22488-0.30179-0.26332 0.72040-0.93812
  -2   5   3 1168.07  423.36   1 0.25253-0.64931 0.78311-0.20812-0.56829 0.73149
   2  -5  -3  699.44  226.59   1 0.58069-0.18334-0.26561-0.31009 0.76956-0.93285
  -2   5   2  441.80  308.05   1 0.30650-0.70109 0.75103-0.16548-0.58480 0.69359
   2  -5  -2  514.02  197.93   1 0.53453-0.13990-0.22741-0.35881 0.81397-0.92286
  -2   5   111656.62  798.99   1 0.35470-0.74755 0.71832-0.12214-0.59849 0.65287
   2  -5  -113330.24 1206.77   1 0.48504-0.09259-0.18882-0.40793 0.85385-0.90830
  -2   5   052513.82 3666.94   1 0.39877-0.78945 0.68592-0.07921-0.60868 0.60868
   2  -5   046985.36 2103.06   1 0.43406-0.04379-0.15008-0.45719 0.88828-0.88828
  -2   5  -158811.46 2930.13   1 0.43782-0.82633 0.65456-0.03732-0.61632 0.56193
   2  -5   156793.01 2845.70   1 0.38246 0.00567-0.11218-0.50564 0.91713-0.86272
  -2   5  -241805.10 2195.13   1 0.47198-0.85834 0.62492 0.00283-0.62184 0.51307
   2  -5   234410.15 1613.30   1 0.33189 0.05404-0.07542-0.55293 0.94029-0.83147
  -2   5  -312491.53 1035.70   1 0.50149-0.88567 0.59753 0.04075-0.62566 0.46250
   2  -5   310250.49 1544.59   1 0.28313 0.10061-0.04066-0.59823 0.95821-0.79497
  -2   5  -4 -909.11  413.54   1 0.52660-0.90863 0.57279 0.07602-0.62816 0.41061
   2  -5   4  674.87  294.22   1 0.23710 0.14444-0.00839-0.64103 0.97144-0.75379
   2  -5   5 9406.75  499.46   1 0.19452 0.18483 0.02099-0.68095 0.98067-0.70861
   2  -5   644273.72 2930.25   1-0.56433 0.94247-0.53261-0.13773 0.63075-0.30458
   2  -5   644311.91 2872.48   1 0.15540 0.22176 0.04673-0.71735 0.98674-0.66046
   2  -5   715629.04 1146.00   1-0.57814 0.95414-0.51714-0.16373 0.63111-0.25057
   2  -5   715666.15 1036.88   1 0.12108 0.25386 0.06981-0.75101 0.99018-0.60952
   2  -5   832261.64 1736.65   1-0.58877 0.96263-0.50489-0.18652 0.63121-0.19631
   2  -5   833338.98 1721.58   1 0.09116 0.28156 0.08973-0.78150 0.99178-0.55674
   2  -4 -13  991.99  420.27   1 0.87710-0.46660 0.40956-0.75838-0.25089-0.45512
  -2   4  13 2196.02  491.16   1-0.83559 0.42457 0.51800-0.16938-0.18286 0.88940
   2  -4 -12  898.17  443.34   1 0.88030-0.47139 0.41508-0.77431-0.22973-0.42216
  -2   4  12  859.35  323.57   1-0.42678 0.01813 0.88207-0.52296-0.19948 0.85216
  -2   4  12 1400.95  434.44   1-0.82849 0.41966 0.50412-0.14495-0.24383 0.89602
   2  -4 -1114059.19  750.24   1 0.88262-0.47584 0.42017-0.78991-0.21077-0.38678
  -2   4  1111659.72  558.85   1-0.36084-0.04566 0.89875-0.52909-0.24905 0.84733
  -2   4  1111167.05  671.83   1-0.81764 0.41101 0.48758-0.11788-0.30613 0.90397
   2  -4 -1014817.74 1237.80   1 0.88440-0.47975 0.42457-0.80482-0.19381-0.34942
  -2   4  1012398.60  567.26   1-0.29182-0.11205 0.90908-0.52938-0.29732 0.84095
  -2   4  1013885.48  628.19   1-0.80264 0.39820 0.46815-0.08792-0.36958 0.91307
   2  -4  -945478.80 2345.13   1 0.88570-0.48318 0.42820-0.81896-0.17935-0.30956
  -2   4   943981.37 2228.73   1-0.22011-0.18160 0.91291-0.52266-0.34370 0.83297
   2  -4  -944378.76 2252.20   1 0.78147-0.37826-0.44822 0.05750 0.43403-0.92391
   2  -4  -838083.05 1764.41   1 0.88657-0.48618 0.43096-0.83222-0.16809-0.26650
  -2   4   839143.87 1770.04   1-0.14657-0.25297 0.91006-0.50926-0.38768 0.82259
   2  -4  -837446.45 1751.66   1 0.75685-0.35584-0.42226 0.02096 0.49886-0.93430
   2  -4  -714100.66 1095.27   1 0.88705-0.48879 0.43264-0.84441-0.16108-0.21918
  -2   4   714846.95  834.00   1-0.07266-0.32515 0.90047-0.48908-0.42879 0.80936
   2  -4  -714479.23 1568.70   1 0.72679-0.32800-0.39276-0.01911 0.56347-0.94448
   2  -4  -6 2416.69  330.89   1 0.88713-0.49099 0.43291-0.85520-0.15994-0.16600
  -2   4   6 2551.96  362.63   1 0.00157-0.39722 0.88459-0.46265-0.46636 0.79256
   2  -4  -6 2962.23  428.52   1 0.69100-0.29441-0.35964-0.06281 0.62702-0.95360
   2  -4  -5 6221.40  529.73   1 0.88663-0.49262 0.43116-0.86395-0.16724-0.10437
  -2   4   5 5897.03  532.45   1 0.07453-0.46803 0.86279-0.43032-0.50002 0.77185
   2  -4  -5 6946.33 1001.14   1 0.64933-0.25495-0.32297-0.11007 0.68851-0.96066
   2  -4  -429279.89 1288.32   1 0.88499-0.49311 0.42615-0.86945-0.18756-0.02973
  -2   4   426649.02 1151.98   1 0.38102-0.77311 0.36956 0.07399 0.84749-0.62994
  -2   4   434351.37 1580.25   1 0.14472-0.53634 0.83593-0.39285-0.52940 0.74699
   2  -4  -434819.83 2499.45   1 0.60189-0.20972-0.28299-0.16063 0.74675-0.96447
   2  -4  -3128546.5 3388.26   1 0.88028-0.49052 0.41504-0.86885-0.22988 0.06691
  -2   4   3108721.8 2845.94   1 0.25908-0.64889 0.31833 0.13537 0.91188-0.74873
  -2   4   3141050.0 3840.86   1 0.21190-0.60133 0.80472-0.35107-0.55453 0.71773
   2  -4  -3129230.7 3757.58   1 0.54992-0.16042-0.23964-0.21461 0.80009-0.96343
   2  -4  -240661.43 1698.64   1 0.86441-0.47702 0.38913-0.85348-0.31838 0.20977
  -2   4   237480.21 1541.65   1 0.05172-0.43911 0.22186 0.24254 0.97370-0.86507
  -2   4   245275.73 1991.22   1 0.27473-0.66197 0.77039-0.30618-0.57533 0.68413
   2  -4  -241171.37 2201.62   1 0.49265-0.10533-0.19469-0.27008 0.84816-0.95705
   2  -4  -136567.16 1501.58   1 0.78444-0.39950 0.30098-0.77604-0.54227 0.48799
  -2   4   162362.20 2469.68   1 0.33250-0.71756 0.73415-0.25937-0.59199 0.64639
   2  -4  -158144.18 2459.95   1 0.43207-0.04693-0.14859-0.32671 0.88951-0.94395
  -2   4   015569.45 1195.23   1 0.38396-0.76719 0.69715-0.21178-0.60543 0.60543
   2  -4   017556.44 1773.75   1 0.36943 0.01353-0.10264-0.38319 0.92356-0.92356
  -2   4  -1 1185.57  349.73   1 0.43045-0.81152 0.66068-0.16478-0.61498 0.56059
   2  -4   1  126.86  127.14   1 0.30698 0.07379-0.05758-0.43878 0.94997-0.89555
  -2   4  -299181.25 3857.13   1 0.47118-0.85009 0.62565-0.11922-0.62172 0.51295
   2  -4   289136.82 3430.63   1 0.24609 0.13249-0.01465-0.49225 0.96913-0.86031
  -2   4  -379049.08 3140.64   1 0.50633-0.88307 0.59287-0.07592-0.62620 0.46304
   2  -4   383018.97 3251.99   1 0.18824 0.18814 0.02529-0.54273 0.98179-0.81855
  -2   4  -440663.73 1886.50   1 0.53619-0.91077 0.56298-0.03550-0.62892 0.41137
   2  -4   442277.15 1924.11   1 0.13413 0.24009 0.06106-0.58910 0.98907-0.77156
   2  -4   562800.25 2562.37   1-0.56061 0.93341-0.53669-0.00169 0.63061-0.35880
   2  -4   563418.39 2546.55   1 0.08557 0.28644 0.09343-0.63204 0.99194-0.72004
   2  -4   614284.34 1164.61   1-0.58105 0.95171-0.51382-0.03509 0.63115-0.30498
   2  -4   615526.54  923.40   1 0.04247 0.32732 0.12173-0.67092 0.99165-0.66537
   2  -4   7 1570.81  300.02   1 0.00499 0.36257 0.14601-0.70578 0.98926-0.60861
   2  -4   811100.07 1508.40   1-0.61004 0.97641-0.47941-0.09057 0.63088-0.19598
   2  -4   810872.51  597.84   1-0.02693 0.39229 0.16647-0.73681 0.98567-0.55064
   2  -4   919705.97 2003.72   1-0.61931 0.98354-0.46787-0.11264 0.63051-0.14125
   2  -4   918404.47 1177.76   1-0.05440 0.41727 0.18331-0.76409 0.98154-0.49197
   2  -4  1037877.66 1965.95   1-0.62550 0.98759-0.46001-0.13103 0.63018-0.08656
   2  -4  1036817.09 1852.73   1-0.07608 0.43669 0.19694-0.78828 0.97745-0.43348
   2  -4  1126992.34 2565.00   1-0.62883 0.98878-0.45572-0.14585 0.62998-0.03199
   2  -4  1126727.54 1432.60   1-0.09310 0.45146 0.20758-0.80947 0.97377-0.37540
   2  -3 -14 8346.85  765.18   1 0.88648-0.48080 0.43065-0.64754-0.16934-0.59119
  -2   3  14 6033.54  600.32   1-0.61559 0.20975 0.78737-0.57043-0.03287 0.79410
  -2   3  14 6239.31  719.84   1-0.84013 0.43427 0.53625-0.31976-0.08128 0.84211
   2  -3 -1315412.90 1118.85   1 0.88829-0.48474 0.43791-0.66530-0.13842-0.56779
  -2   3  1315049.63 1006.10   1-0.56521 0.16151 0.82089-0.59342-0.08165 0.78851
  -2   3  1313883.44  980.89   1-0.83843 0.43468 0.52589-0.29865-0.14307 0.84961
   2  -3 -1246160.17 2236.28   1 0.88920-0.48777 0.44466-0.68256-0.10767-0.54421
  -2   3  1245577.32 2130.53   1-0.51078 0.10946 0.84974-0.61206-0.13052 0.78319
  -2   3  1245738.85 2171.57   1-0.83320 0.43165 0.51279-0.27503-0.20689 0.85908
   2  -3 -1125355.15 1351.62   1 0.88922-0.48993 0.45092-0.69933-0.07708-0.52048
  -2   3  1122378.91 1171.75   1-0.45141 0.05223 0.87397-0.62574-0.17999 0.77827
  -2   3  1122957.77 1228.90   1-0.82391 0.42455 0.49673-0.24842-0.27281 0.87065
   2  -3 -10 6849.02  675.05   1 0.88840-0.49123 0.45669-0.71560-0.04666-0.49658
  -2   3  10 5867.82  558.88   1-0.38764-0.00938 0.89282-0.63404-0.22934 0.77324
  -2   3  10 5445.04  551.41   1-0.80998 0.41281 0.47732-0.21848-0.34073 0.88422
   2  -3  -9  975.62  438.95   1 0.88673-0.49169 0.46198-0.73141-0.01640-0.47251
  -2   3   9  432.88  289.25   1-0.31987-0.07460 0.90570-0.63674-0.27819 0.76745
   2  -3  -9   63.93  196.60   1 0.78930-0.39348-0.45697 0.18775 0.41008-0.89995
   2  -3  -8  543.21  290.70   1 0.88424-0.49133 0.46681-0.74675 0.01367-0.44827
  -2   3   8 1017.47  300.41   1-0.24820-0.14409 0.91222-0.63271-0.32595 0.76085
   2  -3  -8  442.29  193.75   1 0.76406-0.37045-0.42966 0.14985 0.48124-0.91668
   2  -3  -791854.76 3593.78   1 0.88098-0.48985 0.47109-0.76146 0.04394-0.42451
  -2   3   795514.52 3670.64   1-0.17342-0.21671 0.91187-0.62182-0.37203 0.75257
   2  -3  -790581.21 3560.31   1 0.73206-0.34066-0.39780 0.10741 0.55301-0.93403
   2  -3  -6156250.0 4253.81   1 0.87689-0.48793 0.47500-0.77589 0.07368-0.39988
  -2   3   6160357.0 4286.96   1-0.09681-0.29152 0.90426-0.60362-0.41585 0.74205
   2  -3  -6154932.1 4191.19   1 0.69264-0.30344-0.36112 0.06015 0.62436-0.95094
   2  -3  -565072.42 2577.64   1 0.87202-0.48523 0.47845-0.78987 0.10319-0.37502
  -2   3   573528.43 2846.76   1-0.01865-0.36752 0.88954-0.57836-0.45645 0.72829
   2  -3  -571501.20 2842.82   1 0.64532-0.25833-0.31953 0.00797 0.69387-0.96602
   2  -3  -447078.12 2031.73   1 0.86641-0.48177 0.48145-0.80340 0.13243-0.34990
  -2   3   443326.74 1824.81   1 0.39959-0.78421 0.37693-0.05481 0.83561-0.61806
  -2   3   452663.67 2253.26   1 0.05935-0.44337 0.86784-0.54612-0.49328 0.71075
   2  -3  -453297.99 2286.05   1 0.59000-0.20522-0.27321-0.04892 0.75976-0.97749
  -2   3   3 1170.54  171.05   1 0.30309-0.68545 0.33733-0.00501 0.89125-0.72810
  -2   3   3  659.27  266.74   1 0.13546-0.51754 0.83980-0.50749-0.52570 0.68890
   2  -3  -3 1210.71  212.84   1 0.52782-0.14564-0.22212-0.11067 0.81979-0.98312
   2  -3  -2 8613.46  669.33   1 0.85306-0.47276 0.48609-0.82910 0.18971-0.29845
  -2   3   2 9436.03  682.30   1 0.15662-0.53683 0.27199 0.07093 0.94946-0.84069
  -2   3   210247.10  831.20   1 0.20890-0.58880 0.80624-0.46336-0.55347 0.66227
   2  -3  -211701.78 1367.61   1 0.45847-0.07847-0.16852-0.17480 0.87258-0.98147
   2  -3  -153060.58 2207.41   1 0.84551-0.46737 0.48774-0.84128 0.21729-0.27166
  -2   3   153047.15 2170.30   1-0.06407-0.31378 0.16316 0.19043 0.98451-0.93020
  -2   3   157208.45 2243.79   1 0.27796-0.65568 0.76849-0.41504-0.57633 0.63072
   2  -3  -160575.60 2354.99   1 0.38421-0.00640-0.11346-0.24037 0.91624-0.97065
   2  -3   0122424.3 3194.51   1 0.83771-0.46174 0.48893-0.85299 0.24327-0.24327
  -2   3   0127731.4 3292.90   1-0.37521-0.00039-0.01122 0.37538 0.92687-0.92687
  -2   3   0146555.3 3925.27   1 0.34087-0.71667 0.72788-0.36385-0.59496 0.59496
   2  -3   0141792.6 3795.68   1 0.30798 0.06762-0.05830-0.30607 0.94960-0.94960
   2  -3   198904.60 3655.54   1 0.71838-0.34511 0.24401-0.61874-0.65145 0.70572
   2  -3   195507.42 3545.22   1 0.83085-0.45703 0.48921-0.86408 0.26524-0.21088
  -2   3  -1107689.8 2952.97   1 0.39815-0.77178 0.68639-0.31184-0.60855 0.55416
   2  -3   1113547.9 3079.88   1 0.23216 0.14125-0.00496-0.36994 0.97266-0.91825
  -2   3  -277737.08 3017.71   1 0.44874-0.82021 0.64532-0.26024-0.61821 0.50943
   2  -3   279593.23 3071.07   1 0.15884 0.21245 0.04440-0.42985 0.98630-0.87754
  -2   3  -370118.75 2743.24   1 0.49255-0.86185 0.60602-0.21041-0.62460 0.46144
   2  -3   372345.74 2805.83   1 0.09105 0.27803 0.08980-0.48583 0.99178-0.82864
   2  -3   4  828.09   83.50   1 0.77576-0.40849 0.48772-0.89423 0.40040-0.18294
   2  -3   4  103.05   60.84   1 0.37652-0.00912 0.36772-0.77429 0.85029-0.63275
  -2   3  -4 1149.50  288.45   1 0.52977-0.89691 0.56957-0.16343-0.62842 0.41088
   2  -3   4 1425.61  295.24   1 0.02973 0.33713 0.13002-0.53662 0.99106-0.77354
   2  -3   548120.78 1973.01   1 0.76753-0.40244 0.48678-0.90384 0.41704-0.14522
   2  -3   552231.61 2127.31   1 0.04944 0.31572 0.22074-0.63780 0.97407-0.70250
   2  -3   551933.77 2269.85   1-0.56035 0.92566-0.53697 0.12001 0.63060-0.35879
   2  -3   553559.26 2306.99   1-0.02433 0.38897 0.16481-0.58199 0.98602-0.71412
   2  -3   695962.82 3596.66   1-0.17986 0.54275 0.10137-0.52888 0.97845-0.65244
   2  -3   699854.95 3890.16   1-0.58572 0.94889-0.50844 0.08095 0.63120-0.30502
   2  -3   6105850.4 4095.09   1-0.07164 0.43389 0.19416-0.62183 0.97835-0.65196
   2  -3   7112276.2 4212.99   1-0.32888 0.68957 0.01663-0.45454 0.94422-0.56379
   2  -3   7117659.1 4824.51   1-0.60598 0.96701-0.48437 0.04635 0.63100-0.25046
   2  -3   7127014.1 4891.85   1-0.11104 0.47104 0.21873-0.65695 0.96944-0.58866
   2  -3   8 3893.25  297.12   1-0.42569 0.78426-0.04240-0.40604 0.90387-0.46909
   2  -3   8 4760.71  671.59   1-0.62167 0.98056-0.46487 0.01632 0.63039-0.19549
   2  -3   8 2842.52  423.12   1-0.14364 0.50138 0.23880-0.68758 0.96038-0.52520
   2  -3   920834.03 2247.89   1-0.63330 0.99005-0.44992-0.00916 0.62967-0.14041
   2  -3   918104.64  987.70   1-0.17002 0.52550 0.25487-0.71420 0.95190-0.46233
   2  -3  1019514.68 1808.87   1-0.64128 0.99588-0.43938-0.03022 0.62904-0.08541
   2  -3  1018405.94 1025.04   1-0.19079 0.54402 0.26742-0.73730 0.94450-0.40052
   2  -3  11 4824.68  802.33   1-0.64596 0.99842-0.43310-0.04704 0.62861-0.03062
   2  -3  11 4567.72  416.91   1-0.20655 0.55752 0.27687-0.75730 0.93844-0.34007
   2  -3  1218754.91 1793.77   1-0.64760 0.99792-0.43087-0.05980 0.62845 0.02389
   2  -3  1219108.15 1155.38   1-0.21784 0.56655 0.28360-0.77459 0.93386-0.28110
   2  -2 -1527537.39 1541.03   1 0.88895-0.48863 0.44209-0.52714-0.11962-0.69524
  -2   2  1525479.44 1325.13   1-0.72128 0.32062 0.68744-0.60237 0.08464 0.73099
  -2   2  1527704.26 1508.73   1-0.83348 0.43268 0.55081-0.46622 0.04354 0.77163
   2  -2 -1411530.20  914.76   1 0.88927-0.49108 0.45005-0.54560-0.08145-0.67908
  -2   2  1411873.70  936.20   1-0.68465 0.28620 0.72769-0.63219 0.04122 0.72001
  -2   2  14 9228.48  799.99   1-0.83834 0.43973 0.54488-0.44975-0.01657 0.77740
   2  -2 -1319176.24 1145.74   1 0.88822-0.49216 0.45741-0.56347-0.04268-0.66353
  -2   2  1315205.20  901.16   1-0.64413 0.24783 0.76490-0.65886-0.00339 0.71026
  -2   2  1315130.12  948.66   1-0.84013 0.44371 0.53655-0.43087-0.07930 0.78578
   2  -2 -12 4479.76  621.26   1 0.88574-0.49180 0.46417-0.58073-0.00314-0.64874
  -2   2  12 3993.98  480.95   1-0.59931 0.20514 0.79901-0.68245-0.04906 0.70154
  -2   2  12 4314.35  559.11   1-0.83833 0.44405 0.52554-0.40917-0.14492 0.79711
   2  -2 -1128813.43 1535.59   1 0.88176-0.48947 0.47019-0.59709 0.03749-0.63552
  -2   2  1127855.61 1357.96   1-0.54995 0.15793 0.82969-0.70260-0.09571 0.69382
  -2   2  1131176.86 1540.26   1-0.83245 0.44036 0.51130-0.38439-0.21352 0.81136
   2  -2 -1050659.91 2339.98   1 0.87604-0.48591 0.47567-0.61310 0.07921-0.62288
  -2   2  1054256.09 2216.15   1-0.49629 0.10660 0.85630-0.71896-0.14293 0.68682
  -2   2  1053101.70 3697.54   1-0.82169 0.43180 0.49339-0.35594-0.28526 0.82876
   2  -2  -9105601.7 3052.00   1 0.86841-0.48046 0.48047-0.62842 0.12244-0.61174
  -2   2   9108635.3 2991.00   1-0.43731 0.04976 0.87874-0.73084-0.19122 0.68072
  -2   2   9117162.1 3231.58   1-0.80514 0.41744 0.47121-0.32324-0.36012 0.84926
   2  -2  -862551.02 2574.11   1 0.85858-0.47279 0.48449-0.64298 0.16759-0.60252
  -2   2   865277.30 2553.08   1-0.37334-0.01205 0.89612-0.73767-0.23993 0.67504
   2  -2  -867951.00 2659.63   1 0.78046-0.39423-0.44710 0.28878 0.43701-0.87245
   2  -2  -713111.91 1104.50   1 0.84611-0.46248 0.48763-0.65664 0.21518-0.59575
  -2   2   713713.38 1039.22   1-0.30459-0.07829 0.90768-0.73892-0.28868 0.66922
   2  -2  -713489.59 1022.45   1 0.74897-0.36495-0.41433 0.24543 0.51707-0.89809
   2  -2  -6 2017.90  285.01   1 0.83035-0.44889 0.48967-0.66921 0.26594-0.59214
  -2   2   6 2789.29  386.06   1-0.23103-0.14969 0.91276-0.73346-0.33686 0.66304
   2  -2  -6 3163.11  420.35   1 0.70806-0.32625-0.37521 0.19572 0.59821-0.92479
   2  -2  -5 6479.62  474.36   1 0.81040-0.43097 0.48986-0.68000 0.32135-0.59317
  -2   2   5 7112.05  429.26   1-0.15335-0.22520 0.91060-0.72074-0.38377 0.65559
   2  -2  -5 6870.49  778.14   1 0.65659-0.27699-0.32924 0.13918 0.67858-0.95073
   2  -2  -484370.08 2126.09   1 0.78460-0.40734 0.48856-0.68925 0.38170-0.59916
  -2   2   486123.93 2158.29   1-0.07282-0.30388 0.90050-0.70007-0.42871 0.64618
   2  -2  -482995.37 2078.52   1 0.59383-0.21645-0.27636 0.07571 0.75563-0.97335
   2  -2  -3174407.2 4146.78   1 0.75065-0.37558 0.48445-0.69568 0.44924-0.61233
  -2   2   3151708.2 3567.70   1 0.29520-0.67009 0.33397-0.12303 0.89516-0.73200
  -2   2   3169228.3 4016.83   1 0.00997-0.38452 0.88239-0.67143-0.47039 0.63350
   2  -2  -3173706.1 4253.37   1 0.52050-0.14563-0.21636 0.00502 0.82599-0.98932
   2  -2  -2729098.0 7635.33   1 0.70445-0.33154 0.47554-0.69721 0.52687-0.63558
  -2   2   2725893.5 7654.53   1 0.09304-0.46543 0.85628-0.63478-0.50804 0.61678
   2  -2  -2680301.7 7213.92   1 0.43677-0.06408-0.15212-0.06974 0.88661-0.99550
   2  -2  -1 9013.91  447.06   1 0.64033-0.26961 0.45979-0.69203 0.61527-0.66962
  -2   2   1 7549.10  366.30   1 0.00668-0.37714 0.19943 0.03276 0.97988-0.92557
  -2   2   1 7942.21  449.69   1 0.17433-0.54470 0.82286-0.59075-0.54083 0.59523
   2  -2  -1 8711.16  658.84   1 0.34576 0.02468-0.08543-0.14694 0.93442-0.98883
   2  -2   0 8869.82  442.89   1 0.54853-0.18001 0.43129-0.67416 0.71630-0.71630
  -2   2   0 7853.56  365.15   1-0.20741-0.16085 0.08609 0.15670 0.97445-0.97445
  -2   2   0 7998.23  480.81   1 0.25220-0.62039 0.78329-0.54062-0.56818 0.56818
   2  -2   0 9420.35  813.74   1 0.25190 0.11635-0.01871-0.22420 0.96757-0.96757
   2  -2   1  700.27  121.15   1 0.41857-0.05221 0.38435-0.63776 0.82284-0.76845
  -2   2  -1  377.43   75.46   1-0.44527 0.07922-0.05473 0.30804 0.89372-0.94806
  -2   2  -1  461.20  225.56   1 0.32460-0.69060 0.73938-0.48614-0.58986 0.53546
   2  -2   1  267.60  164.64   1 0.15900 0.20714 0.04429-0.29773 0.98628-0.93190
   2  -2   251159.63 1239.98   1 0.65184-0.28762 0.19235-0.45603-0.73354 0.84220
   2  -2   255010.97 1326.06   1 0.24701 0.11719 0.31302-0.57699 0.91706-0.80829
  -2   2  -257600.08 1497.53   1 0.38953-0.75355 0.69296-0.42922-0.60667 0.49790
   2  -2   257111.47 1494.12   1 0.07184 0.29208 0.10249-0.36651 0.99213-0.88337
   2  -2   3125417.8 2946.50   1 0.79257-0.43097 0.30859-0.58300-0.52592 0.68874
   2  -2   3137394.2 3196.45   1 0.05172 0.31027 0.22186-0.49638 0.97370-0.81076
  -2   2  -3141281.8 3413.75   1 0.44712-0.80898 0.64670-0.37243-0.61793 0.45477
   2  -2   3134883.0 3256.95   1-0.00704 0.36875 0.15375-0.42835 0.98808-0.82494
   2  -2   4186935.0 4343.45   1 0.86197-0.50219 0.38568-0.67038-0.32901 0.54625
   2  -2   4201225.5 2194.16   1-0.13607 0.49580 0.12526-0.41027 0.98274-0.76541
  -2   2  -4209347.9 2527.16   1 0.49652-0.85622 0.60227-0.31747-0.62508 0.40754
   2  -2   4207377.3 2527.70   1-0.07659 0.43596 0.19726-0.48238 0.97735-0.75976
   2  -2   576800.65 2887.06   1 0.88662-0.52887 0.43113-0.72634-0.16737 0.43899
   2  -2   583544.79 3130.15   1-0.29012 0.64771 0.03892-0.33448 0.95619-0.68452
  -2   2  -589175.34 3416.41   1 0.53787-0.89540 0.56124-0.26592-0.62904 0.35711
   2  -2   588094.37 3382.80   1-0.13531 0.49242 0.23369-0.52936 0.96284-0.69086
   2  -2   627058.79 1171.10   1 0.88805-0.53242 0.45809-0.76381-0.03890 0.36484
   2  -2   630492.17 1299.19   1-0.40482 0.76022-0.02939-0.27659 0.91392-0.58784
   2  -2   627966.07 1268.85   1-0.57123 0.92692-0.52494 0.21888 0.63096-0.30479
   2  -2   630112.09 1367.17   1-0.18406 0.53892 0.26336-0.56958 0.94697-0.62058
   2  -2   7 2458.03  271.03   1 0.87825-0.52495 0.47383-0.79024 0.06444 0.31612
   2  -2   7 2595.48  277.81   1-0.48628 0.83955-0.08107-0.23545 0.87003-0.48960
   2  -2   7 4271.04  616.52   1-0.59818 0.95173-0.49377 0.17718 0.63115-0.25061
   2  -2   7 3006.70  404.36   1-0.22372 0.57632 0.28710-0.60387 0.93140-0.55062
   2  -2   815397.94 1130.66   1-0.61908 0.97048-0.46816 0.14103 0.63052-0.19562
   2  -2   813350.32  844.00   1-0.25578 0.60632 0.30505-0.63219 0.91734-0.48239
  -2   2  -9198205.013413.02   1 0.57948-0.92877 0.14019 0.19706-0.80283 0.31390
   2  -2   9191886.8 7286.26   1-0.63466 0.98392-0.44814 0.11049 0.62957-0.14031
   2  -2   9190131.2 7227.21   1-0.28041 0.62872 0.31941-0.65709 0.90517-0.41585
  -2   2 -1019633.72  956.92   1 0.60602-0.95318 0.15892 0.18885-0.77941 0.23614
   2  -2  1021274.22 1466.01   1-0.64559 0.99271-0.43360 0.08541 0.62864-0.08502
   2  -2  1019498.23 1091.89   1-0.29901 0.64509 0.33016-0.67838 0.89531-0.35162
  -2   2 -1124871.54 1199.36   1 0.62332-0.96835 0.17136 0.18691-0.76295 0.16536
   2  -2  1123474.55 1845.72   1-0.65242 0.99739-0.42429 0.06557 0.62795-0.02996
   2  -2  1126704.61 1412.90   1-0.31245 0.65630 0.33786-0.69663 0.88781-0.28976
  -2   2 -1213083.58  853.30   1 0.63374-0.97664 0.17896 0.18983-0.75255 0.10064
   2  -2  1214934.90 1285.94   1-0.65557 0.99840-0.41993 0.05068 0.62759 0.02475
   2  -2  1215133.71 1058.91   1-0.32142 0.66304 0.34298-0.71229 0.88263-0.23021
  -2   2 -13 1457.97  348.35   1 0.63885-0.97962 0.18271 0.19658-0.74731 0.04107
   2  -2  13 1281.12  371.30   1-0.65535 0.99604-0.42024 0.04045 0.62762 0.07909
   2  -2  13 1901.21  483.29   1-0.32651 0.66590 0.34587-0.72573 0.87963-0.17284
  -2   2 -14  896.21  297.03   1 0.63971-0.97835 0.18335 0.20646-0.74642-0.01414
   2  -2  14  655.26  214.45   1-0.65195 0.99050-0.42494 0.03462 0.62800 0.13307
   2  -2  14  794.05  323.85   1-0.32818 0.66535 0.34682-0.73722 0.87863-0.11747
   2  -1 -15 3962.15  555.32   1 0.88868-0.49584 0.45529-0.41900-0.05422-0.76063
  -2   1  15 4429.99  449.52   1-0.77476 0.38147 0.61240-0.64876 0.15717 0.65847
  -2   1  15 3741.75  435.06   1-0.82067 0.42712 0.55587-0.59263 0.13227 0.68289
   2  -1 -1424462.12 1762.94   1 0.88627-0.49556 0.46304-0.43725-0.01006-0.75047
  -2   1  1421675.16 1513.26   1-0.74802 0.35688 0.65284-0.67868 0.11937 0.64188
  -2   1  1423567.84 1669.69   1-0.82989 0.43853 0.55303-0.57924 0.07369 0.68713
   2  -1 -1325630.84 1475.46   1 0.88202-0.49290 0.46987-0.45436 0.03525-0.74202
  -2   1  1324225.19 1265.60   1-0.71797 0.32898 0.69139-0.70671 0.08053 0.62635
  -2   1  1323931.08 1246.63   1-0.83641 0.44725 0.54795-0.56363 0.01202 0.69446
   2  -1 -12 9870.81  961.30   1 0.87560-0.48865 0.47601-0.47103 0.08200-0.73440
  -2   1  12 8143.03  743.27   1-0.68423 0.29746 0.72811-0.73299 0.04074 0.61174
  -2   1  12 8131.34  779.50   1-0.83979 0.45283 0.54029-0.54542-0.05316 0.70530
   2  -1 -11167297.4 6479.90   1 0.86682-0.48203 0.48125-0.48680 0.13043-0.72847
  -2   1  11173770.9 6635.51   1-0.64691 0.26228 0.76256-0.75691-0.00045 0.59856
  -2   1  11176326.6 6713.68   1-0.83935 0.45454 0.52963-0.52411-0.12235 0.72020
   2  -1 -1025643.08 1381.33   1 0.85532-0.47270 0.48548-0.50156 0.18089-0.72456
  -2   1  1026201.06 1296.64   1-0.60551 0.22302 0.79467-0.77850-0.04294 0.58668
  -2   1  1025981.16 1263.49   1-0.83436 0.45174 0.51521-0.49916-0.19593 0.73943
   2  -1  -9 7387.81  712.75   1 0.84063-0.46018 0.48853-0.51513 0.23378-0.72309
  -2   1   9 8007.16  693.39   1-0.55970 0.17936 0.82413-0.79743-0.08676 0.57612
  -2   1   9 8846.51  761.71   1-0.82365 0.44322 0.49632-0.46974-0.27432 0.76347
   2  -1  -861795.15 2480.80   1 0.82219-0.44368 0.48971-0.52676 0.29011-0.72502
  -2   1   869272.75 2694.35   1-0.50948 0.13141 0.85034-0.81333-0.13164 0.56675
  -2   1   871338.75 2772.73   1-0.80576 0.42753 0.47198-0.43486-0.35773 0.79253
   2  -1  -7117462.1 3269.59   1 0.79888-0.42255 0.48952-0.53712 0.34948-0.73002
  -2   1   7114719.0 3106.87   1-0.45370 0.07778 0.87316-0.82559-0.17814 0.55887
   2  -1  -7119029.6 3195.64   1 0.77783-0.40120-0.44423 0.39683 0.44455-0.82556
   2  -1  -6166510.7 4024.37   1 0.76954-0.39539 0.48702-0.54516 0.41303-0.73922
  -2   1   6165806.8 3964.43   1-0.39237 0.01860 0.89165-0.83353-0.22581 0.55214
   2  -1  -6173999.3 4127.39   1 0.73980-0.36538-0.40529 0.34730 0.53705-0.86364
   2  -1  -5161250.5 3887.39   1 0.73240-0.36042 0.48140-0.55010 0.48148-0.75330
  -2   1   5167482.2 3986.76   1-0.32529-0.04602 0.90491-0.83636-0.27442 0.54623
   2  -1  -5162112.6 3898.04   1 0.68806-0.31586-0.35700 0.28843 0.63174-0.90390
   2  -1  -481688.35 2047.13   1 0.68489-0.31510 0.47113-0.55026 0.55582-0.77325
  -2   1   485158.53 2108.83   1-0.25216-0.11698 0.91204-0.83293-0.32340 0.54086
   2  -1  -483565.28 2058.16   1 0.62044-0.25044-0.29843 0.21928 0.72524-0.94297
   2  -1  -3 3828.82  332.03   1 0.62381-0.25621 0.45518-0.54487 0.63534-0.79841
  -2   1   3 3224.53  239.01   1 0.25225-0.61966 0.31533-0.22577 0.91484-0.75168
  -2   1   3 3627.87  330.80   1-0.17329-0.19369 0.91186-0.82221-0.37211 0.53520
   2  -1  -3 3616.92  472.24   1 0.53619-0.16863-0.22872 0.13883 0.81251-0.97585
   2  -1  -2 3648.41  281.09   1 0.54503-0.17964 0.43012-0.53047 0.71967-0.82844
  -2   1   2 3060.02  237.01   1 0.14421-0.50949 0.26619-0.16602 0.95306-0.84430
  -2   1   2 4496.52  340.29   1-0.08958-0.27549 0.90320-0.80298-0.41976 0.52850
   2  -1  -2 4040.41  539.02   1 0.43559-0.07021-0.15123 0.05082 0.88734-0.99623
   2  -1  -112180.53  584.09   1 0.44341-0.08018 0.39386-0.50474 0.80514-0.85953
  -2   1   111879.70  546.42   1 0.00469-0.36774 0.19842-0.08761 0.98010-0.92578
  -2   1   111828.41  570.08   1-0.00182-0.36109 0.88545-0.77470-0.46471 0.51907
   2  -1  -112327.87  778.42   1 0.32294 0.04015-0.06899-0.04192 0.94390-0.99831
   2  -1   0706481.3 7331.35   1 0.31619 0.04481 0.34288-0.46426 0.88456-0.88456
  -2   1   0677247.7 7063.46   1 0.08776-0.44852 0.85818-0.73689-0.50577 0.50577
   2  -1   0719434.6 7676.13   1 0.20543 0.15546 0.01350-0.13496 0.97857-0.97857
   2  -1   1284353.3 3054.80   1 0.16602 0.19285 0.27636-0.40835 0.94660-0.89221
  -2   1  -1251972.7 2694.96   1-0.34780-0.01081 0.00533 0.12658 0.93755-0.99189
  -2   1  -1282619.0 3108.38   1 0.17667-0.53533 0.82178-0.68987-0.54171 0.48732
   2  -1   1287899.0 3204.64   1 0.09061 0.26815 0.09009-0.22210 0.99180-0.93742
   2  -1   2178274.3 4151.85   1 0.00404 0.35265 0.19810-0.34065 0.98017-0.87154
  -2   1  -2161719.8 3757.95   1-0.52324 0.16674-0.10542 0.24788 0.84563-0.95433
  -2   1  -2159626.0 3734.16   1-0.60811 0.25134-0.48177 0.62427 0.63094-0.73966
  -2   1  -2176142.7 4138.31   1 0.26192-0.61839 0.77781-0.63534-0.57131 0.46251
   2  -1   2170939.9 4034.03   1-0.01439 0.37095 0.15846-0.30105 0.98725-0.87850
   2  -1   3 4055.38  528.03   1 0.66525-0.31063 0.20243-0.35530-0.71864 0.88162
   2  -1   3 5349.33  295.70   1-0.15356 0.50799 0.11578-0.26884 0.98133-0.81832
  -2   1  -3 3860.22  628.12   1-0.69200 0.33738-0.36654 0.51957 0.62190-0.78499
  -2   1  -3 5823.03  359.34   1 0.34030-0.69472 0.72827-0.57535-0.59481 0.43165
   2  -1   3 4882.76  330.84   1-0.10615 0.46038 0.21569-0.36880 0.97067-0.80748
   2  -1   451232.42 1259.88   1 0.76751-0.41544 0.28565-0.44919-0.57386 0.79096
   2  -1   455184.65 1371.71   1-0.29068 0.64298 0.03860-0.20221 0.95604-0.73870
  -2   1  -448602.94 1239.82   1-0.76239 0.40976-0.24129 0.40451 0.60044-0.81759
  -2   1  -457975.93 1465.69   1 0.41027-0.76253 0.67695-0.51350-0.61107 0.39352
   2  -1   455203.34 1443.15   1-0.18246 0.53444 0.26239-0.42606 0.94755-0.72996
   2  -1   524260.39 1031.94   1 0.83169-0.48151 0.34876-0.52262-0.43202 0.70356
   2  -1   525345.00 1081.11   1-0.40039 0.75050-0.02666-0.14740 0.91595-0.64421
  -2   1  -526649.50 1172.25   1 0.47026-0.82035 0.62647-0.45249-0.62159 0.34966
   2  -1   525619.49 1167.23   1-0.24426 0.59398 0.29925-0.47346 0.92237-0.65039
   2  -1   661836.26 1544.75   1 0.86772-0.51964 0.39401-0.57837-0.30298 0.62884
   2  -1   671986.22 1787.65   1-0.48327 0.83124-0.07911-0.10548 0.87188-0.54580
  -2   1  -672570.37 1821.54   1 0.51997-0.86790 0.57946-0.39495-0.62757 0.30125
   2  -1   668130.00 1770.34   1-0.29342 0.64104 0.32693-0.51159 0.89833-0.57212
   2  -1   7177071.7 4672.05   1-0.55947 0.90553-0.53793 0.34277 0.63056-0.25002
   2  -1   7178952.8 4759.68   1-0.33142 0.67681 0.34866-0.54386 0.87669-0.49611
  -2   1  -8101316.8 2760.97   1 0.58597-0.92993 0.14473 0.06068-0.79729 0.36269
   2  -1   895592.09 3763.51   1-0.59050 0.93442-0.50286 0.29717 0.63120-0.19630
   2  -1   8102088.4 2853.18   1-0.36036 0.70352 0.36494-0.57069 0.85845-0.42351
  -2   1  -932257.76 1442.99   1 0.61681-0.95863 0.16665 0.04927-0.76926 0.28033
   2  -1   933115.50 1474.29   1-0.61381 0.95558-0.47474 0.25852 0.63075-0.14148
   2  -1   933615.12 1586.10   1-0.38185 0.72278 0.37688-0.59317 0.84388-0.35456
  -2   1 -10  950.95  203.66   1 0.63810-0.97779 0.18216 0.04428-0.74809 0.20483
   2  -1  10  267.34  253.12   1-0.63046 0.97010-0.45361 0.22685 0.62987-0.08625
   2  -1  10 1061.36  366.89   1-0.39722 0.73593 0.38534-0.61217 0.83290-0.28921
  -2   1 -1120716.71 1648.29   1 0.65221-0.98977 0.19262 0.04432-0.73315 0.13556
   2  -1  1120413.37 1050.94   1-0.64142 0.97891-0.43920 0.20191 0.62903-0.03104
   2  -1  1121260.68 1188.37   1-0.40753 0.74401 0.39097-0.62834 0.82526-0.22720
  -2   1 -1217349.54 2255.33   1 0.66081-0.99624 0.19908 0.04838-0.72366 0.07174
   2  -1  1216961.70 1366.53   1-0.64741 0.98276-0.43113 0.18330 0.62847 0.02387
   2  -1  1217498.18 1044.92   1-0.41360 0.74785 0.39427-0.64219 0.82065-0.16823
  -2   1 -1353475.96 2556.81   1 0.66506-0.99836 0.20229 0.05568-0.71885 0.01262
   2  -1  1348571.14 2235.93   1-0.64900 0.98221-0.42896 0.17061 0.62831 0.07840
   2  -1  1350869.60 2403.40   1-0.41607 0.74809 0.39561-0.65407 0.81876-0.11197
  -2   1 -1420669.44 1845.93   1 0.66576-0.99693 0.20282 0.06566-0.71806-0.04250
   2  -1  1421247.02 1144.62   1-0.64655 0.97761-0.43230 0.16341 0.62855 0.13251
   2  -1  1420113.34 1192.77   1-0.41543 0.74522 0.39526-0.66427 0.81925-0.05809
  -2   1 -15  966.96  273.35   1 0.66346-0.99249 0.20108 0.07791-0.72068-0.09420
   2  -1  15 1283.17  342.99   1-0.41206 0.73962 0.39343-0.67298 0.82183-0.00630
   2   0 -1530537.27 1646.11   1 0.88589-0.50054 0.46385-0.30622-0.00512-0.80974
  -2   0  1529415.86 1532.28   1-0.81839 0.43301 0.52691-0.68498 0.22932 0.58590
  -2   0  1531782.27 1608.82   1-0.79447 0.40840 0.55528-0.71364 0.24588 0.56913
   2   0 -1421036.59 1579.58   1 0.88099-0.49721 0.47108-0.32368 0.04384-0.80498
  -2   0  1420652.77 1468.69   1-0.80048 0.41671 0.56586-0.71314 0.19754 0.56371
  -2   0  1420826.52 1466.72   1-0.80860 0.42471 0.55628-0.70408 0.19157 0.56910
   2   0 -13 5052.98  505.30   1 0.87355-0.49193 0.47747-0.34060 0.09446-0.80124
  -2   0  13 6668.62  636.68   1-0.78014 0.39852 0.60337-0.74013 0.16524 0.54164
  -2   0  13 6101.03  424.98   1-0.82033 0.43842 0.55593-0.69296 0.13413 0.57235
   2   0 -1218460.74 1147.49   1 0.86334-0.48389 0.48277-0.35643 0.14684-0.79924
  -2   0  1219798.98 1134.58   1-0.75732 0.37785 0.63953-0.76577 0.13211 0.52039
  -2   0  1218343.15 1003.99   1-0.83000 0.45029 0.55297-0.67946 0.07285 0.57927
   2   0 -1150806.82 2384.29   1 0.84999-0.47270 0.48683-0.37102 0.20126-0.79930
  -2   0  1148208.40 2157.65   1-0.73185 0.35454 0.67436-0.79008 0.09806 0.50007
  -2   0  1149150.80 2190.28   1-0.83680 0.45928 0.54746-0.66340 0.00707 0.59072
   2   0 -1030924.50 1521.99   1 0.83296-0.45785 0.48945-0.38416 0.25806-0.80173
  -2   0  1030550.91 1432.33   1-0.70357 0.32840 0.70782-0.81302 0.06298 0.48077
  -2   0  1033031.79 1535.08   1-0.84000 0.46468 0.53877-0.64418-0.06408 0.60753
   2   0  -9138495.0 3841.59   1 0.81170-0.43847 0.48987-0.39493 0.31804-0.80732
  -2   0   9138337.3 3757.45   1-0.67209 0.29914 0.73996-0.83470 0.02700 0.46235
  -2   0   9143298.5 3836.19   1-0.83850 0.46536 0.52616-0.62097-0.14159 0.63073
   2   0  -8118947.9 3302.01   1 0.78507-0.41402 0.48860-0.40421 0.38068-0.81559
  -2   0   8123718.5 3364.69   1-0.63739 0.26658 0.77046-0.85467-0.01049 0.44548
  -2   0   8119014.1 3198.11   1-0.83085 0.45990 0.50828-0.59256-0.22653 0.66133
   2   0  -774644.24 2918.77   1 0.75200-0.38313 0.48465-0.41081 0.44676-0.82731
  -2   0   775333.67 2919.80   1-0.59894 0.23027 0.79926-0.87294-0.04941 0.43003
  -2   0   781006.99 3094.95   1-0.81474 0.44597 0.48359-0.55733-0.31990 0.70034
   2   0  -613856.11  781.94   1 0.71099-0.34432 0.47692-0.41350 0.51674-0.84288
  -2   0   613279.53  730.48   1-0.55628 0.18976 0.82610-0.88926-0.08991 0.41615
   2   0  -613879.08  677.46   1 0.78623-0.41920-0.45350 0.51700 0.41971-0.74630
   2   0  -5229129.6 2707.67   1 0.65998-0.29549 0.46500-0.41215 0.59008-0.86186
  -2   0   5217219.4 2553.35   1-0.50914 0.14485 0.85050-0.90326-0.13193 0.40388
   2   0  -5243006.4 2712.07   1 0.74281-0.37799-0.40824 0.46116 0.53062-0.80277
   2   0  -4234770.5 2714.15   1 0.59660-0.23430 0.44718-0.40490 0.66639-0.88382
  -2   0   4224422.2 2586.33   1-0.45630 0.09416 0.87223-0.91444-0.17604 0.39360
   2   0  -4243539.0 2700.06   1 0.67828-0.31567-0.34827 0.39060 0.64701-0.86473
  -2   0   4212613.0 2484.61   1 0.32563-0.68795-0.07093 0.02880 0.94283-0.72518
   2   0  -3222123.2 2542.20   1 0.51857-0.15847 0.42112-0.38949 0.74413-0.90729
  -2   0   3217226.5 2488.42   1-0.39732 0.03733 0.89039-0.92205-0.22208 0.38525
   2   0  -3223017.2 2468.88   1 0.58780-0.22740-0.27141 0.30316 0.76211-0.92540
  -2   0   3209370.8 2327.70   1 0.22328-0.58341 0.00119-0.03278 0.97475-0.81151
   2   0  -2175286.0 4129.71   1 0.42258-0.06465 0.38590-0.36481 0.82005-0.92883
  -2   0   2180137.0 4234.34   1-0.33141-0.02616 0.90398-0.92508-0.27014 0.37886
   2   0  -2172540.1 4043.84   1 0.46964-0.11157-0.17702 0.19806 0.86492-0.97381
  -2   0   2165688.6 3867.27   1 0.10001-0.45808 0.08386-0.10501 0.99144-0.88268
   2   0  -1160639.6 3785.25   1 0.30793 0.04774 0.33939-0.32878 0.88881-0.94319
  -2   0   1145808.0 3422.03   1-0.03719-0.31844 0.17708-0.18766 0.98349-0.92917
  -2   0   1171976.4 4049.18   1-0.25797-0.09743 0.91173-0.92228-0.31965 0.37402
   2   0  -1139950.8 3277.99   1 0.07979 0.27580 0.86098-0.85044-0.50232 0.44795
   2   0  -1161154.9 3768.31   1 0.32838 0.02734-0.07290 0.08344 0.94172-0.99613
  -2   0   1142638.4 3336.92   1-0.03688-0.31898 0.17221-0.18276 0.98436-0.92997
   2   0   022069.62  964.92   1 0.17677 0.17677 0.28133-0.28133 0.94318-0.94318
  -2   0   019302.12  827.81   1-0.17670-0.17670 0.10311-0.10311 0.97884-0.97884
  -2   0   021230.86  919.54   1-0.17662-0.17662 0.91203-0.91203-0.37013 0.37013
   2   0   019500.30  829.38   1 0.17674 0.17675 0.82174-0.82174-0.54174 0.54174
   2   0   020790.77  903.95   1 0.17681 0.17681 0.03220-0.03220 0.98371-0.98371
  -2   0   019552.69  842.08   1-0.17680-0.17680 0.25898-0.25898 0.94956-0.94956
   2   0   141824.03 1089.90   1 0.03562 0.31579 0.21390-0.22448 0.97620-0.92189
  -2   0  -137251.14 2534.69   1-0.32568-0.02550 0.01853-0.00799 0.94529-0.99964
  -2   0  -142691.76 1087.35   1-0.08780-0.26348 0.90293-0.89239-0.42072 0.36635
   2   0   138008.61 2583.59   1 0.29280 0.05850 0.75955-0.77012-0.58080 0.63520
   2   0   141082.94 1055.42   1 0.03059 0.32081 0.12946-0.14003 0.99111-0.93673
  -2   0  -137398.83 2549.17   1-0.30777-0.04361 0.33519-0.32464 0.89046-0.94482
   2   0   2170823.7 4000.33   1-0.10567 0.45481 0.14155-0.16265 0.98427-0.87560
  -2   0  -2159000.6 3709.98   1-0.47027 0.12121-0.07071 0.09178 0.87968-0.98837
  -2   0  -2163946.4 3825.58   1 0.00729-0.35642 0.88310-0.86202-0.46911 0.36038
   2   0   2162366.7 3774.92   1 0.42352-0.07437 0.66634-0.68740-0.61368 0.72245
   2   0   2165942.0 3896.48   1-0.09821 0.44731 0.21076-0.23187 0.97258-0.86379
  -2   0  -2151435.2 3552.58   1-0.42169 0.07253 0.39865-0.37756 0.81439-0.92313
   2   0   3164532.5 3837.15   1 0.59691-0.24976 0.15244-0.18398-0.78768 0.95066
   2   0   3178083.9 4172.04   1-0.23568 0.58268 0.07018-0.10184 0.96929-0.80628
  -2   0  -3166376.8 3864.85   1-0.55859 0.21145-0.53889 0.57048 0.63052-0.79361
  -2   0  -3172751.7 4022.09   1 0.10568-0.45265 0.85161-0.81999-0.51340 0.35030
   2   0   3178968.3 4210.83   1-0.20370 0.55054 0.27516-0.30682 0.93956-0.77637
   2   0   4239037.9 2618.95   1 0.69845-0.35377 0.22805-0.27019-0.67834 0.89545
   2   0   4257956.3 2856.40   1-0.34705 0.69185 0.00579-0.04793 0.93782-0.72044
  -2   0  -4239943.1 2659.05   1-0.68307 0.33807-0.38018 0.42231 0.62359-0.84104
  -2   0  -4261160.0 2820.09   1 0.20366-0.54842 0.80885-0.76659-0.55161 0.33401
   2   0   4259926.5 2929.18   1-0.28616 0.63087 0.32274-0.36492 0.90218-0.68471
   2   0   5264917.0 2964.39   1-0.43673 0.77941-0.04933-0.00334 0.89823-0.62650
  -2   0  -5268419.1 2900.28   1 0.29528-0.63785 0.75803-0.70520-0.58154 0.30955
   2   0   5275966.1 3148.54   1-0.34890 0.69138 0.35853-0.41125 0.86586-0.59401
   2   0   6  834.92  294.27   1-0.50611 0.84665-0.09406 0.03084 0.85732-0.53124
  -2   0  -6  593.14  126.62   1 0.37649-0.71697 0.70268-0.63951-0.60372 0.27741
   2   0   6 1010.93  211.19   1-0.39571 0.73596 0.38451-0.44778 0.83399-0.50778
  -2   0  -7  257.75  156.42   1 0.55779-0.89641 0.12520-0.05162-0.82048 0.44019
  -2   0  -7  168.79   84.25   1-0.87471 0.53638 0.15311-0.07956 0.45981-0.84021
  -2   0  -7  231.58  137.25   1 0.44481-0.78313 0.64867-0.57498-0.61754 0.23683
   2   0   7   44.59  207.89   1-0.43009 0.76812 0.40318-0.47698 0.80774-0.42716
  -2   0  -843798.78 1897.05   1 0.59648-0.93296 0.15213-0.06804-0.78807 0.35346
  -2   0  -837002.33 1572.05   1-0.87374 0.53756 0.30471-0.22065 0.37909-0.81383
  -2   0  -843784.93 1838.38   1 0.49948-0.83564 0.59945-0.51523-0.62543 0.19034
   2   0   844642.38 1991.28   1-0.45477 0.79066 0.41526-0.49995 0.78786-0.35339
  -2   0  -957189.30 2276.93   1 0.62457-0.95893 0.17227-0.07767-0.76172 0.27278
  -2   0  -950737.13 2113.64   1-0.84996 0.51572 0.43501-0.34017 0.29718-0.78632
   2   0   959235.53 2375.61   1-0.47214 0.80585 0.42435-0.51962 0.77266-0.28387
  -2   0 -10102036.5 3962.75   1 0.64453-0.97675 0.18691-0.08180-0.74137 0.19811
   2   0  1099501.13 3778.95   1-0.57145 0.90360-0.52469 0.41936 0.63097-0.08735
   2   0  10107034.5 4189.52   1-0.48365 0.81517 0.43031-0.53617 0.76217-0.21908
  -2   0 -1135886.08 2577.56   1 0.65819-0.98829 0.19711-0.08148-0.72658 0.12899
   2   0  1134909.76 1540.92   1-0.59241 0.92241-0.50063 0.38477 0.63120-0.03321
   2   0  1136047.31 1717.55   1-0.49048 0.81982 0.43382-0.55027 0.75579-0.15839
  -2   0 -1217078.95 1517.40   1 0.66691-0.99487 0.20369-0.07756-0.71674 0.06483
   2   0  1216697.25 1392.00   1-0.60530 0.93316-0.48520 0.35880 0.63101 0.02133
   2   0  1217979.57 1091.88   1-0.49349 0.82064 0.43536-0.56240 0.75294-0.10123
  -2   0 -13 4061.73  627.47   1 0.67165-0.99748 0.20730-0.07065-0.71126 0.00502
   2   0  13 1908.77  327.29   1-0.61130 0.93702-0.47785 0.34093 0.63084 0.07586
   2   0  13 2602.59  442.64   1-0.49331 0.81827 0.43526-0.57289 0.75311-0.04709
  -2   0 -14 3312.58  646.37   1 0.67312-0.99681 0.20842-0.06126-0.70955-0.05101
   2   0  14 2492.34  443.80   1-0.49040 0.81318 0.43378-0.58199 0.75586 0.00445
  -2   0 -15 8250.53 1507.28   1 0.67179-0.99335 0.20740-0.04973-0.71111-0.10378
   2   0  1511002.66  872.49   1-0.48511 0.80570 0.43106-0.58986 0.76081 0.05381
   2   1 -1433655.94 1870.12   1 0.87592-0.49964 0.47577-0.20702 0.07999-0.84112
  -2  -1  1435111.04 1836.64   1-0.83954 0.46372 0.47012-0.73906 0.27227 0.48860
  -2  -1  1433044.87 1649.14   1-0.76446 0.38786 0.54950-0.81862 0.33710 0.42357
   2   1 -1361706.71 4008.64   1 0.86592-0.49181 0.48167-0.22344 0.13476-0.84153
  -2  -1  1366903.20 4275.98   1-0.82728 0.45358 0.50485-0.76325 0.24642 0.46011
  -2  -1  1364277.41 4079.56   1-0.78165 0.40723 0.55328-0.81184 0.28792 0.41842
   2   1 -1292106.17 4161.20   1 0.85261-0.48066 0.48621-0.23851 0.19143-0.84384
  -2  -1  1294643.35 4211.06   1-0.81341 0.44185 0.53837-0.78623 0.22022 0.43196
  -2  -1  1296827.10 4255.74   1-0.79737 0.42514 0.55561-0.80361 0.23553 0.41647
   2   1 -1127213.24 1481.50   1 0.83550-0.46572 0.48919-0.25202 0.25024-0.84828
  -2  -1  1126503.22 1325.05   1-0.79793 0.42798 0.57089-0.80805 0.19332 0.40481
  -2  -1  1126799.63 1282.03   1-0.81146 0.44141 0.55626-0.79370 0.17913 0.41854
   2   1 -1017960.63  998.72   1 0.81412-0.44616 0.48987-0.26294 0.31180-0.85544
  -2  -1  1020470.62 1111.47   1-0.78085 0.41305 0.60216-0.82880 0.16631 0.37744
  -2  -1  1018151.91  917.65   1-0.82322 0.45515 0.55535-0.78211 0.11784 0.42560
   2   1  -9 5724.48  503.53   1 0.78739-0.42162 0.48879-0.27241 0.37560-0.86488
  -2  -1   9 5045.60  419.39   1-0.76211 0.39647 0.63237-0.84849 0.13885 0.35053
  -2  -1   9 6619.78  488.31   1-0.83279 0.46691 0.55133-0.76754 0.04994 0.43916
   2   1  -849982.82 2191.56   1 0.75448-0.39089 0.48502-0.27918 0.44215-0.87707
  -2  -1   853473.12 2316.86   1-0.74167 0.37817 0.66153-0.86713 0.11087 0.32413
  -2  -1   853822.67 2277.03   1-0.83884 0.47516 0.54373-0.74940-0.02633 0.46109
   2   1  -7196749.2 5228.16   1 0.71426-0.35290 0.47759-0.28220 0.51159-0.89208
  -2  -1   7196987.9 5227.47   1-0.71942 0.35807 0.68967-0.88475 0.08232 0.29830
  -2  -1   7200093.0 5224.55   1-0.83968 0.47820 0.53108-0.72621-0.11348 0.49389
   2   1  -6151200.6 4048.87   1 0.66500-0.30583 0.46628-0.28145 0.58339-0.90953
  -2  -1   6149504.9 4000.75   1-0.69515 0.33601 0.71687-0.90147 0.05340 0.27283
  -2  -1   6137772.3 3618.16   1 0.49461-0.85408-0.19621 0.01162 0.84667-0.52000
  -2  -1   6159328.6 4171.99   1-0.83233 0.47304 0.51107-0.69567-0.21452 0.54062
   2   1  -5152834.2 3689.34   1 0.60510-0.24812 0.44973-0.27548 0.65694-0.92873
  -2  -1   5148622.7 3570.89   1-0.66889 0.31190 0.74298-0.91705 0.02343 0.24843
  -2  -1   5139465.1 3282.01   1 0.42595-0.78324-0.14400-0.03005 0.89320-0.62098
  -2  -1   5165135.7 3864.98   1-0.81174 0.45463 0.47960-0.65367-0.33324 0.60499
   2   1  -4182997.5 4338.81   1 0.53332-0.17851 0.42618-0.26256 0.73070-0.94825
  -2  -1   4186548.5 4431.04   1-0.64031 0.28547 0.76807-0.93161-0.00743 0.22492
   2   1  -4187564.8 4356.18   1 0.76940-0.41418-0.43523 0.59906 0.46753-0.68525
  -2  -1   4173418.5 4047.50   1 0.32919-0.68415-0.07348-0.09010 0.94139-0.72374
   2   1  -3 4598.90  383.00   1 0.44702-0.09438 0.39522-0.24215 0.80247-0.96563
  -2  -1   3 4620.91  325.21   1-0.60911 0.25641 0.79210-0.94511-0.03936 0.20248
   2   1  -3 5361.00  542.10   1 0.69298-0.33997-0.36143 0.51467 0.62380-0.78709
  -2  -1   3 4635.20  351.29   1 0.19807-0.55084 0.01856-0.17161 0.98001-0.81677
   2   1  -242958.40 1134.99   1 0.34604 0.00431 0.35531-0.21272 0.86833-0.97710
  -2  -1   241845.63 1123.41   1-0.57489 0.22433 0.81500-0.95749-0.07257 0.18131
   2   1  -242874.52 1078.80   1 0.56748-0.21673-0.25373 0.39623 0.78331-0.89220
  -2  -1   239602.16  978.27   1 0.03468-0.38537 0.12680-0.26938 0.99132-0.88256
   2   1  -1291788.2 3216.48   1 0.23153 0.11667 0.30615-0.17417 0.92339-0.97777
  -2  -1   1290701.4 3193.92   1-0.53708 0.18867 0.83666-0.96863-0.10734 0.16171
   2   1  -1261610.2 2852.58   1-0.19813 0.54629 0.91276-0.78091-0.35721 0.30285
   2   1  -1295602.3 3119.42   1 0.39085-0.04247-0.11835 0.25034 0.91281-0.96722
  -2  -1   1265526.7 2813.12   1-0.14418-0.20429 0.23913-0.37113 0.96022-0.90582
   2   1   0213147.8 2417.46   1 0.10710 0.23901 0.24875-0.12736 0.96262-0.96262
  -2  -1   0204244.0 2280.44   1-0.49496 0.14874 0.85688-0.97832-0.14407 0.14407
   2   1   0191331.8 4443.42   1-0.12400 0.47000 0.90786-0.78657-0.40049 0.40049
   2   1   0207138.4 2258.17   1 0.18511 0.16113 0.02653 0.09489 0.98235-0.98235
  -2  -1   0192445.012944.77   1-0.31296-0.03328 0.33815-0.45955 0.88752-0.88752
   2   1   1518956.9 5480.56   1-0.02073 0.36474 0.18552-0.07471 0.98242-0.92810
  -2  -1  -1512266.1 5359.35   1-0.44734 0.10327 0.87538-0.98626-0.18325 0.12886
   2   1   1490247.5 5093.72   1-0.02042 0.36440 0.88996-0.77920-0.45557 0.50994
   2   1   1505609.0 5258.01   1-0.01260 0.35663 0.15731-0.04646 0.98746-0.93308
  -2  -1  -1487351.0 5069.73   1-0.45205 0.10820 0.41383-0.52452 0.79018-0.84449
   2   1   264084.43 1597.72   1-0.14484 0.48654 0.12052-0.02023 0.98208-0.87341
  -2  -1  -263721.82 1537.94   1-0.39286 0.05094 0.89153-0.99186-0.22544 0.11666
   2   1   259271.32 1415.80   1 0.12025 0.22152 0.84594-0.74574-0.51953 0.62832
   2   1   262205.53 1515.81   1-0.17537 0.51708 0.25811-0.15776 0.95006-0.84126
  -2  -1  -259161.07 1440.83   1-0.55775 0.21609 0.46735-0.56745 0.68592-0.79454
   2   1   313613.87  669.62   1-0.25750 0.59707 0.05775 0.03197 0.96454-0.80154
  -2  -1  -315120.44  666.15   1-0.32898-0.01052 0.90436-0.99401-0.27184 0.10875
   2   1   312722.01  553.58   1 0.30236 0.03723 0.75364-0.66400-0.58360 0.74680
   2   1   314923.92  720.79   1-0.29676 0.63632 0.32886-0.23909 0.89653-0.73343
  -2  -1  -316159.50  715.29   1-0.63492 0.29552 0.50280-0.59236 0.58656-0.74951
   2   1   4 7116.82  427.87   1-0.35469 0.69207 0.00120 0.07804 0.93498-0.71759
  -2  -1  -4 8853.19  415.52   1-0.25427-0.08306 0.91193-0.99103-0.32205 0.10460
   2   1   4 7459.77  342.06   1 0.51535-0.17798 0.58404-0.50481-0.62713 0.84467
   2   1   4 7291.14  405.49   1-0.38383 0.72117 0.37798-0.29876 0.84249-0.62501
  -2  -1  -4 6990.77  382.78   1-0.69079 0.35354 0.52569-0.60467 0.49643-0.71370
   2   1   595089.62 2320.28   1-0.43442 0.76967-0.04788 0.11658 0.89943-0.62770
  -2  -1  -589228.42 2080.37   1-0.71656 0.38096-0.32573 0.25672 0.61679-0.88823
  -2  -1  -5107605.2 2512.32   1-0.16597-0.16920 0.91145-0.98001-0.37642 0.10461
   2   1   597347.27 2385.63   1-0.44486 0.77996 0.41107-0.34240 0.79568-0.52384
   2   1   6207646.3 2466.34   1-0.49781 0.83093-0.08860 0.14677 0.86274-0.53666
  -2  -1  -6191700.012890.51   1-0.84790 0.51502-0.01165-0.04671 0.53001-0.85590
  -2  -1  -6218873.2 2321.76   1-0.06331-0.26986 0.89882-0.95687-0.43371 0.10750
   2   1   6201666.4 2416.43   1-0.48698 0.81990 0.43202-0.37426 0.75907-0.43322
  -2  -1  -7142565.9 3481.86   1 0.54720-0.87835 0.11797-0.16572-0.82864 0.44835
  -2  -1  -7135149.1 3140.35   1-0.87498 0.54408 0.29020-0.33801 0.38752-0.76792
  -2  -1  -7140492.2 3247.27   1 0.04905-0.38007 0.87110-0.91862-0.48863 0.10806
   2   1   7145887.5 3540.75   1-0.51627 0.84700 0.44691-0.39974 0.73056-0.35040
  -2  -1  -841330.58 1811.16   1 0.58469-0.91371 0.14383-0.18107-0.79840 0.36379
  -2  -1  -838742.34 1592.49   1-0.82000 0.49105 0.52306-0.56016 0.23234-0.66714
  -2  -1  -840000.75 1641.69   1 0.16336-0.49203 0.82783-0.86464-0.53666 0.10148
   2   1   842844.94 1891.32   1-0.53607 0.86462 0.45677-0.42018 0.70991-0.27544
  -2  -1  -937792.18 1696.56   1 0.61277-0.93966 0.16375-0.19048-0.77310 0.28416
  -2  -1  -933719.97 1393.13   1-0.73066 0.40373 0.67587-0.70263 0.09653-0.58591
  -2  -1  -934963.14 1442.34   1 0.26378-0.59027 0.77674-0.80299-0.57190 0.08232
   2   1   938187.29 1773.68   1-0.54889 0.87525 0.46305-0.43705 0.69590-0.20712
  -2  -1 -10 2752.40  395.89   1 0.63339-0.95815 0.17871-0.19492-0.75290 0.20964
  -2  -1 -10 1834.75  172.00   1-0.63554 0.31072 0.77196-0.78813-0.01242-0.53131
  -2  -1 -10 1783.36  165.19   1 0.34477-0.66916 0.72522-0.74128-0.59597 0.05211
   2   1  10 2147.17  414.45   1-0.55644 0.88061 0.46672-0.45130 0.68741-0.14432
  -2  -1 -11 9606.19  702.12   1 0.64808-0.97070 0.18955-0.19525-0.73760 0.14001
  -2  -1 -11 8640.29  482.36   1 0.40382-0.72604 0.68201-0.68754-0.60974 0.01149
   2   1  11 9317.38  703.36   1-0.55988 0.88187 0.46838-0.46355 0.68347-0.08607
  -2  -1 -1294849.28 4642.76   1 0.65801-0.97850 0.19697-0.19216-0.72678 0.07487
   2   1  1296806.51 4719.56   1-0.56003 0.87984 0.46845-0.47421 0.68330-0.03159
  -2  -1 -1323675.22 1934.59   1 0.66405-0.98241 0.20153-0.18620-0.72001 0.01377
   2   1  1325046.32 1353.08   1-0.55746 0.87508 0.46721-0.48356 0.68624 0.01977
  -2  -1 -1415432.97 1506.31   1 0.66686-0.98308 0.20365-0.17782-0.71681-0.04375
   2   1  1418133.38 1250.71   1-0.55258 0.86801 0.46485-0.49178 0.69178 0.06854
  -2  -1 -15 5579.17  807.97   1 0.66690-0.98100 0.20369-0.16734-0.71675-0.09813
   2   1  15 7138.75  835.58   1-0.54567 0.85891 0.46148-0.49900 0.69948 0.11515
   2   2 -13 5366.17  697.70   1 0.86128-0.49467 0.48356-0.10398 0.15606-0.86283
  -2  -2  13 6367.04  764.99   1-0.85839 0.49212 0.40047-0.78028 0.32057 0.38596
  -2  -2  13 6176.24  569.96   1-0.70493 0.33834 0.53096-0.91098 0.47025 0.23585
   2   2 -12 5749.97  549.20   1 0.84588-0.48144 0.48767-0.11862 0.21601-0.86841
  -2  -2  12 6241.02  448.66   1-0.85125 0.48711 0.43015-0.79941 0.30054 0.35164
  -2  -2  12 5734.85  379.62   1-0.72383 0.35940 0.53760-0.90704 0.43248 0.21931
   2   2 -1152133.92 2451.39   1 0.82638-0.46371 0.48951-0.13059 0.27829-0.87630
  -2  -2  1150299.68 2343.39   1-0.84321 0.48120 0.45849-0.81721 0.28066 0.31717
  -2  -2  1150248.60 2260.92   1-0.74224 0.37948 0.54334-0.90210 0.39223 0.20543
   2   2 -10108714.2 5260.54   1 0.80182-0.44133 0.48965-0.14128 0.34250-0.88615
  -2  -2  10111628.9 5377.98   1-0.83436 0.47448 0.48551-0.83369 0.26098 0.28250
  -2  -2  10111847.8 5311.93   1-0.75946 0.39889 0.54823-0.89643 0.35021 0.19313
   2   2  -982431.94 3286.63   1 0.77155-0.41324 0.48725-0.14943 0.40899-0.89827
  -2  -2   985464.64 3381.22   1-0.82481 0.46706 0.51120-0.84885 0.24156 0.24758
  -2  -2   983741.87 3219.89   1-0.77598 0.41758 0.55215-0.88979 0.30492 0.18408
   2   2  -8140754.2 5409.01   1 0.73461-0.37848 0.48180-0.15453 0.47770-0.91261
  -2  -2   8141774.9 5432.38   1-0.81466 0.45904 0.53555-0.86266 0.22247 0.21231
  -2  -2   8141028.9 5321.94   1-0.79182 0.43561 0.55494-0.88202 0.25503 0.17963
   2   2  -723301.57 1149.62   1 0.69007-0.33620 0.47234-0.15554 0.54835-0.92885
  -2  -2   723056.84 1157.54   1-0.80399 0.45001 0.55875-0.87526 0.20345 0.17717
  -2  -2   717607.27 1222.22   1 0.55086-0.90519-0.24038-0.07618 0.79922-0.41811
  -2  -2   723805.04 1048.52   1-0.80697 0.45294 0.55625-0.87278 0.19841 0.18192
   2   2  -610091.19  819.12   1 0.63626-0.28459 0.45867-0.15244 0.62030-0.94645
  -2  -2   610380.75  878.86   1-0.79304 0.44121 0.58027-0.88627 0.18536 0.14088
  -2  -2   6 8034.87  794.52   1 0.49531-0.84747-0.19675-0.10929 0.84613-0.51946
  -2  -2   6 8982.39  662.73   1-0.82070 0.46867 0.55587-0.86181 0.13209 0.19397
   2   2  -550920.45 2186.66   1 0.57208-0.22260 0.43959-0.14393 0.69244-0.96422
  -2  -2   551347.04 2212.79   1-0.78196 0.43228 0.60025-0.89573 0.16800 0.10387
  -2  -2   545195.93 1873.44   1 0.40740-0.75737-0.13018-0.16534 0.90392-0.63169
  -2  -2   547728.05 1973.85   1-0.83295 0.48311 0.55121-0.84661 0.04847 0.22324
   2   2  -4189274.3 4489.72   1 0.49710-0.14975 0.41358-0.12853 0.76278-0.98033
  -2  -2   4187256.9 4467.04   1-0.77097 0.42345 0.61855-0.90351 0.15159 0.06591
  -2  -2   4185659.8 4303.14   1 0.26918-0.61678-0.03082-0.25422 0.96259-0.74494
  -2  -2   4181901.9 4206.33   1-0.84000 0.49236 0.53878-0.82364-0.06402 0.28139
   2   2  -3336766.2 3755.86   1 0.40938-0.06420 0.38078-0.10627 0.82909-0.99226
  -2  -2   3325239.4 3688.11   1-0.76038 0.41501 0.63498-0.90942 0.13640 0.02672
  -2  -2   3324666.7 3371.57   1 0.06079-0.40632 0.10975-0.38434 0.99209-0.82895
  -2  -2   3325935.0 3385.80   1-0.83085 0.48541 0.50828-0.78266-0.22657 0.38961
   2   2  -2250104.6 2849.23   1 0.30997 0.03291 0.34025-0.07628 0.88777-0.99654
  -2  -2   2241084.7 2784.24   1-0.75060 0.40737 0.64923-0.91315 0.12286-0.01411
   2   2  -2233219.2 2424.99   1 0.77341-0.43000-0.43948 0.70363 0.45681-0.56567
  -2  -2   2230014.8 2399.67   1-0.20509-0.13824 0.27600-0.54001 0.93901-0.83022
   2   2  -151891.83 1364.75   1 0.20078 0.13996 0.29231-0.03895 0.93500-0.98938
  -2  -2   148642.31 1280.89   1-0.74218 0.40111 0.66084-0.91424 0.11155-0.05718
   2   2  -150555.82 1198.10   1 0.59605-0.25485-0.27818 0.53175 0.75321-0.80764
  -2  -2   149125.44 1161.65   1-0.44811 0.10724 0.41175-0.66489 0.79350-0.73919
   2   2   011805.66  610.11   1 0.08551 0.25320 0.23836 0.00441 0.96740-0.96740
  -2  -2   011684.51  616.10   1-0.73596 0.39704 0.66908-0.91195 0.10338-0.10338
   2   2   011791.16  552.47   1-0.38400 0.72289 0.89369-0.65082-0.23205 0.23205
   2   2   012270.53  521.47   1 0.28822 0.05059-0.04425 0.28717 0.95653-0.95653
  -2  -2   011208.06  481.38   1-0.60767 0.26899 0.49078-0.73333 0.62438-0.62438
   2   2   1 6476.89  384.73   1-0.03042 0.36702 0.18056 0.05163 0.98309-0.92877
  -2  -2  -1 5350.53  326.38   1-0.73317 0.39640 0.67268-0.90504 0.09975-0.15413
   2   2   1 5332.46  284.93   1-0.32686 0.66345 0.90468-0.67263-0.27332 0.32768
   2   2   1 5768.14  287.21   1-0.01708 0.35374 0.16018 0.07210 0.98693-0.93255
  -2  -2  -1 5271.04  262.31   1-0.69505 0.35859 0.52730-0.75929 0.48871-0.54303
   2   2   234559.46 1475.84   1-0.14198 0.47625 0.12207 0.09961 0.98231-0.87364
  -2  -2  -233608.45 1400.33   1-0.73577 0.40115 0.66932-0.89116 0.10313-0.21188
   2   2   231634.32 1302.01   1-0.23812 0.57254 0.91258-0.69109-0.33238 0.44111
   2   2   233871.66 1393.25   1-0.23897 0.57328 0.29613-0.07432 0.92476-0.81597
  -2  -2  -232875.41 1356.97   1-0.74439 0.40998 0.54399-0.76550 0.38722-0.49589
   2   2   3386371.8 4202.72   1-0.24351 0.57565 0.06574 0.14539 0.96766-0.80466
  -2  -2  -3369131.4 3895.28   1-0.74713 0.41466 0.65408-0.86540 0.11816-0.28129
   2   2   3351653.0 3660.23   1-0.09674 0.42909 0.90425-0.69328-0.41588 0.57898
   2   2   3395402.1 4188.19   1-0.38066 0.71285 0.37623-0.16507 0.84471-0.68161
  -2  -2  -3366466.5 3890.08   1-0.77480 0.44257 0.55190-0.76285 0.30835-0.47135
   2   2   4279087.5 3155.37   1-0.33250 0.66245 0.01448 0.18614 0.94299-0.72560
  -2  -2  -4267809.2 2830.58   1-0.77359 0.44328 0.61431-0.81511 0.15544-0.37294
   2   2   4257573.9 2679.67   1 0.13296 0.19710 0.84083-0.64042-0.52470 0.74229
   2   2   4283982.1 3130.81   1-0.46966 0.79961 0.42306-0.22285 0.77487-0.55763
  -2  -2  -4263007.9 2900.13   1-0.79509 0.46505 0.55536-0.75575 0.24370-0.46103
   2   2   582363.28 2055.45   1-0.40713 0.73496-0.03083 0.22092 0.91284-0.64111
  -2  -2  -580306.46 1865.77   1-0.82876 0.50084 0.50094-0.69105 0.24940-0.52114
   2   2   582310.93 1900.34   1 0.50983-0.18206 0.58946-0.39942-0.62657 0.89850
   2   2   583636.78 2061.70   1-0.52672 0.85448 0.45213-0.26251 0.71981-0.44826
  -2  -2  -577256.53 1898.78   1-0.80941 0.48155 0.55628-0.74612 0.18811-0.45978
   2   2   621214.12  989.05   1-0.46815 0.79385-0.06935 0.24890 0.88091-0.55483
   2   2   620346.63  958.09   1-0.56341 0.88898 0.47007-0.29104 0.67940-0.35354
   2   2   740141.04 1778.08   1-0.51694 0.84050-0.10123 0.27025 0.85001-0.46958
   2   2   741990.61 1838.22   1-0.58699 0.91037 0.48124-0.31279 0.65102-0.27086
  -2  -2  -816989.68  850.25   1 0.55606-0.87761 0.12401-0.28258-0.82183 0.38722
   2   2   816660.13  884.43   1-0.60176 0.92296 0.48808-0.33021 0.63217-0.19770
  -2  -2  -952880.83 2312.28   1 0.58565-0.90506 0.14451-0.29256-0.79757 0.30864
   2   2   956202.47 2297.23   1-0.61036 0.92937 0.49199-0.34472 0.62080-0.13202
  -2  -2 -1090557.03 3545.47   1 0.60811-0.92540 0.16041-0.29795-0.77746 0.23420
   2   2  1088114.83 3466.23   1-0.61442 0.93125 0.49383-0.35714 0.61531-0.07222
  -2  -2 -1127261.69 1413.33   1 0.62477-0.93992 0.17241-0.29944-0.76153 0.16394
   2   2  1125946.78 1361.08   1-0.61502 0.92966 0.49410-0.36799 0.61449-0.01709
  -2  -2 -1214837.00 1187.50   1 0.63665-0.94967 0.18110-0.29762-0.74958 0.09766
   2   2  1213918.67 1136.15   1-0.61287 0.92532 0.49313-0.37761 0.61742 0.03428
  -2  -2 -13 3006.08  453.70   1 0.64459-0.95547 0.18695-0.29296-0.74131 0.03507
   2   2  13 3185.96  470.40   1-0.60843 0.91870 0.49112-0.38619 0.62337 0.08264
  -2  -2 -14  362.83  333.64   1 0.64920-0.95796 0.19038-0.28588-0.73640-0.02416
   2   2  14 1402.35  403.93   1-0.60205 0.91013 0.48821-0.39386 0.63180 0.12852
  -2  -2 -1512822.31 1050.11   1 0.65096-0.95759 0.19169-0.27668-0.73449-0.08039
   2   2  1515988.01 1125.86   1-0.59394 0.89984 0.48447-0.40072 0.64227 0.17236
   2   3 -1245995.65 2296.21   1 0.84454-0.48760 0.48791 0.00249 0.22065-0.87306
  -2  -3  1247396.48 4201.28   1-0.87225 0.51535 0.31921-0.80938 0.37050 0.28160
   2   3 -1151237.23 3342.68   1 0.82392-0.46871 0.48964-0.00928 0.28529-0.88330
  -2  -3  1157497.20 3708.04   1-0.86874 0.51415 0.34310-0.82323 0.35715 0.24068
   2   3 -10 8277.50  537.84   1 0.79793-0.44490 0.48948-0.01966 0.35172-0.89536
  -2  -3  10 8835.36  557.19   1-0.86527 0.51281 0.36525-0.83484 0.34335 0.20013
   2   3  -919646.63 1101.72   1 0.76601-0.41516 0.48659-0.02732 0.42005-0.90933
  -2  -3   920945.59 1179.20   1-0.86150 0.51117 0.38561-0.84467 0.33030 0.15883
  -2  -3   920378.56  953.23   1-0.62081 0.27007 0.49661-0.95561 0.60660-0.11775
   2   3  -886675.90 3411.88   1 0.72729-0.37862 0.48047-0.03175 0.49009-0.92500
  -2  -3   888202.66 3512.22   1-0.85760 0.50940 0.40407-0.85259 0.31818 0.11660
  -2  -3   882037.26 3115.68   1-0.62430 0.27572 0.49815-0.94658 0.60173-0.16719
   2   3  -777496.03 3054.05   1 0.68106-0.33469 0.47023-0.03202 0.56128-0.94178
  -2  -3   775956.56 3011.80   1-0.85373 0.50766 0.42045-0.85843 0.30717 0.07326
  -2  -3   774216.61 2814.32   1-0.62113 0.27470 0.49675-0.93460 0.60615-0.22594
   2   3  -6144668.5 3917.71   1 0.62581-0.28164 0.45575-0.02811 0.63296-0.95910
  -2  -3   6145364.2 3951.11   1-0.85009 0.50615 0.43452-0.86196 0.29752 0.02857
  -2  -3   6126455.8 3279.48   1 0.43611-0.78096-0.15162-0.27587 0.88702-0.56035
  -2  -3   6141374.0 3666.91   1-0.60523 0.26077 0.48966-0.91702 0.62762-0.30177
   2   3  -5129597.2 3511.33   1 0.56088-0.21890 0.43601-0.01894 0.70377-0.97556
  -2  -3   5131037.9 3599.34   1-0.84692 0.50511 0.44596-0.86286 0.28954-0.01779
  -2  -3   5122563.3 3171.58   1 0.26887-0.61131-0.03060-0.38643 0.96268-0.69062
  -2  -3   5128099.2 3305.34   1-0.55831 0.21604 0.46762-0.88438 0.68528-0.41373
   2   3  -439675.38 1744.66   1 0.48646-0.14657 0.40977-0.00328 0.77164-0.98919
  -2  -3   438149.69 1701.26   1-0.84447 0.50479 0.45433-0.86069 0.28363-0.06623
   2   3  -329363.56 1320.37   1 0.40103-0.06330 0.37750 0.01843 0.83466-0.99782
  -2  -3   327973.96 1284.68   1-0.84306 0.50551 0.45898-0.85481 0.28031-0.11726
   2   3  -2208907.4 5485.55   1 0.30616 0.02925 0.33863 0.04671 0.88971-0.99847
  -2  -3   2196351.9 5189.09   1-0.84305 0.50763 0.45902-0.84431 0.28028-0.17158
   2   3  -1142152.2 3412.96   1 0.20388 0.12939 0.29372 0.08102 0.93389-0.98827
  -2  -3   1136919.2 3305.33   1-0.84483 0.51155 0.45310-0.82785 0.28450-0.23015
   2   3   0236125.5 2741.54   1 0.09746 0.23384 0.24412 0.12004 0.96483-0.96483
  -2  -3   0221320.0 2586.94   1-0.84883 0.51768 0.43914-0.80335 0.29431-0.29431
   2   3   1209156.0 2457.97   1-0.00876 0.33796 0.19161 0.16197 0.98143-0.92711
  -2  -3  -1203134.0 2345.83   1-0.85535 0.52632 0.41379-0.76746 0.31168-0.36603
   2   3   1184554.6 4334.91   1-0.52608 0.85549 0.84232-0.48857-0.11716 0.17155
   2   3   1198379.5 2050.65   1 0.11928 0.21000 0.07102 0.28270 0.99031-0.93593
   2   3   268181.77 1733.95   1-0.11115 0.43800 0.13863 0.20445 0.98408-0.87541
  -2  -3  -264164.99 1594.17   1-0.86421 0.53732 0.37126-0.71439 0.33953-0.44823
   2   3   262214.78 1531.45   1-0.48992 0.81718 0.85905-0.51585-0.14832 0.25710
   2   3   263337.47 1500.69   1-0.26978 0.59682 0.31323 0.02985 0.91055-0.80181
  -2  -3  -260903.80 1440.91   1-0.83382 0.50662 0.51408-0.85719-0.20111 0.09241
   2   3   3 1728.59  267.11   1-0.20522 0.52993 0.08730 0.24522 0.97481-0.81180
  -2  -3  -3 1523.62  209.45   1-0.87401 0.54937 0.30181-0.63438 0.38079-0.54381
   2   3   3 1448.26  132.49   1-0.42888 0.75399 0.88142-0.54877-0.19785 0.36101
   2   3   3 1722.65  146.40   1-0.44575 0.77053 0.41050-0.07843 0.79547-0.63255
  -2  -3  -3 1748.23  149.38   1-0.83830 0.51329 0.52545-0.85802-0.14542-0.01762
   2   3   414686.40  752.40   1-0.28887 0.61144 0.03965 0.28232 0.95654-0.73920
  -2  -3  -414833.91  907.97   1-0.87643 0.55394 0.18043-0.50249 0.44643-0.66380
   2   3   414059.94  600.01   1-0.32030 0.64315 0.90563-0.58394-0.27789 0.49534
   2   3   414524.13  676.83   1-0.53814 0.86074 0.45779-0.13630 0.70769-0.49045
  -2  -3  -414212.88  639.33   1-0.83927 0.51645 0.52923-0.85127-0.12465-0.09274
   2   3   541592.95 1803.94   1-0.36129 0.68168-0.00277 0.31425 0.93244-0.66071
  -2  -3  -540260.23 1668.07   1-0.83613 0.51601-0.05509-0.25637 0.54574-0.81731
   2   3   541128.74 1677.58   1-0.10071 0.42142 0.90481-0.59363-0.41372 0.68556
   2   3   543995.67 1875.54   1-0.59047 0.91088 0.48286-0.17196 0.64666-0.37511
  -2  -3  -537088.31 1567.79   1-0.83941 0.51879 0.52993-0.84144-0.12065-0.15109
   2   3   641024.66 1826.75   1-0.42180 0.74006-0.03996 0.34090 0.90580-0.57972
   2   3   637512.65 1630.92   1-0.62118 0.93964 0.49677-0.19637 0.60609-0.28019
   2   3   7183939.3 4916.48   1-0.47158 0.78771-0.07155 0.36196 0.87891-0.49848
   2   3   7180046.8 4796.19   1-0.63974 0.95605 0.50488-0.21506 0.57949-0.19928
   2   3   8230752.2 6140.97   1-0.51183 0.82583-0.09784 0.37771 0.85349-0.41872
   2   3   8218182.1 5816.11   1-0.65041 0.96457 0.50943-0.23018 0.56341-0.12888
  -2  -3  -916182.05  985.86   1 0.54513-0.85707 0.11656-0.38594-0.83020 0.34127
   2   3   915663.74 1030.06   1-0.65575 0.96776 0.51166-0.24299 0.55513-0.06629
  -2  -3 -10 1570.23  351.11   1 0.57019-0.88000 0.13374-0.39261-0.81054 0.26728
   2   3  10 1995.21  509.70   1-0.65725 0.96710 0.51229-0.25418 0.55278-0.00962
  -2  -3 -1110389.32  802.44   1 0.58945-0.89713 0.14718-0.39554-0.79427 0.19668
   2   3  1111220.71  826.47   1-0.65583 0.96354 0.51170-0.26417 0.55501 0.04247
  -2  -3 -1213536.81 1117.58   1 0.60386-0.90941 0.15738-0.39522-0.78139 0.12948
   2   3  1213176.79 1139.31   1-0.65210 0.95765 0.51013-0.27318 0.56082 0.09097
  -2  -3 -1321316.93 1237.11   1 0.61417-0.91758 0.16475-0.39209-0.77178 0.06554
   2   3  1322874.45 1296.46   1-0.64642 0.94982 0.50774-0.28135 0.56949 0.13661
  -2  -3 -1417058.44 1201.33   1 0.62099-0.92227 0.16967-0.38650-0.76523 0.00466
   2   3  1419131.19 1560.54   1-0.63908 0.94032 0.50460-0.28879 0.58047 0.17995
  -2  -3 -15 5498.96  767.86   1 0.62480-0.92395 0.17244-0.37875-0.76150-0.05338
   2   3  15 5319.80  657.10   1-0.63023 0.92932 0.50075-0.29552 0.59333 0.22140
   2   4 -1147501.66 2298.19   1 0.82874-0.48099 0.48937 0.11243 0.27147-0.86948
  -2  -4  1148774.62 2415.23   1-0.87748 0.53016 0.22839-0.82941 0.42173 0.17603
   2   4 -1067897.60 3219.96   1 0.80294-0.45738 0.48969 0.10155 0.33981-0.88345
  -2  -4  1073528.51 3496.30   1-0.87722 0.53206 0.24597-0.83648 0.41228 0.13114
   2   4  -980043.20 5068.40   1 0.77118-0.42780 0.48721 0.09349 0.40974-0.89902
  -2  -4   991071.77 6381.46   1-0.87670 0.53369 0.26135-0.84137 0.40383 0.08525
   2   4  -855797.67 2555.09   1 0.73269-0.39149 0.48146 0.08869 0.48098-0.91589
  -2  -4   863070.09 2999.03   1-0.87605 0.53519 0.27436-0.84386 0.39655 0.03818
   2   4  -718010.08  953.24   1 0.68699-0.34813 0.47163 0.08797 0.55280-0.93330
  -2  -4   720500.15 2463.18   1-0.87538 0.53667 0.28472-0.84372 0.39067-0.01027
   2   4  -611248.14  724.40   1 0.63271-0.29604 0.45768 0.09135 0.62465-0.95079
  -2  -4   611348.95 1747.65   1-0.87483 0.53827 0.29211-0.84060 0.38642-0.06037
   2   4  -586421.84 3378.73   1 0.56951-0.23502 0.43877 0.09969 0.69507-0.96686
  -2  -4   585678.28 3485.55   1-0.87451 0.54010 0.29606-0.83405 0.38413-0.11242
   2   4  -4196187.813298.84   1 0.49798-0.16554 0.41389 0.11402 0.76203-0.97958
  -2  -4   4181097.1 6889.56   1-0.87452 0.54226 0.29600-0.82348 0.38417-0.16680
   2   4  -335180.65 1577.85   1 0.41678-0.08650 0.38365 0.13371 0.82407-0.98723
  -2  -4   334125.96 1558.47   1-0.87491 0.54480 0.29112-0.80809 0.38699-0.22396
   2   4  -264269.01 2511.89   1 0.32764 0.00031 0.34768 0.15904 0.87850-0.98727
  -2  -4   255914.57 2717.00   1-0.87568 0.54772 0.28034-0.78680 0.39317-0.28448
   2   4  -1210137.5 5528.65   1 0.23244 0.09337 0.30656 0.18956 0.92303-0.97741
  -2  -4   1203195.0 5390.64   1-0.87667 0.55086 0.26213-0.75809 0.40339-0.34905
   2   4   0  216.49  210.86   1 0.13391 0.18999 0.26148 0.22407 0.95587-0.95587
  -2  -4   0  284.05  103.26   1-0.87743 0.55377 0.23438-0.71982 0.41854-0.41854
   2   4   154836.99 2163.17   1 0.03556 0.28622 0.21387 0.26111 0.97621-0.92189
  -2  -4  -150421.18 2187.09   1-0.87698 0.55548 0.19396-0.66890 0.43962-0.49397
   2   4   2136533.6 3665.78   1-0.05943 0.37910 0.16558 0.29882 0.98440-0.87577
  -2  -4  -2133680.1 3572.09   1-0.87325 0.55389 0.13625-0.60069 0.46782-0.57651
   2   4   2134001.2 3434.83   1 0.44169-0.12158-0.15582 0.62060 0.88353-0.77464
   2   4   2127948.2 3283.36   1-0.20434 0.52387 0.27554 0.18916 0.93931-0.83052
   2   4   3117224.9 3174.36   1-0.14864 0.46591 0.11845 0.33546 0.98176-0.81876
  -2  -4  -3113339.0 3126.41   1-0.86210 0.54513 0.05444-0.50821 0.50379-0.66674
   2   4   3100436.9 5081.74   1-0.59418 0.91186 0.80250-0.34833-0.05406 0.21719
   2   4   3104853.9 2758.16   1 0.66585-0.34827-0.33731 0.79153 0.66547-0.50218
   2   4   3115918.9 3020.19   1-0.48071 0.79815 0.42879 0.02455 0.76488-0.60195
   2   4   483748.64 3220.28   1-0.22901 0.54416 0.07395 0.36941 0.97060-0.75327
  -2  -4  -480801.00 3104.99   1-0.83363 0.51881-0.06351-0.37975 0.54865-0.76590
   2   4   473227.17 2763.07   1-0.55513 0.87066 0.82676-0.38312-0.09097 0.30847
   2   4   475761.40 2834.16   1 0.73736-0.42199-0.40292 0.84655 0.54215-0.32443
   2   4   482259.82 3102.22   1-0.58208 0.89733 0.47894-0.03618 0.65710-0.43986
   2   4   551519.52 2225.64   1-0.29983 0.61284 0.03325 0.39956 0.95340-0.68173
  -2  -4  -547699.18 2027.57   1-0.76388 0.45064-0.23827-0.19477 0.59976-0.87119
   2   4   546309.74 1910.38   1-0.48310 0.79658 0.86190-0.42892-0.15404 0.42599
   2   4   541901.96 1741.34   1 0.76926-0.45609-0.43508 0.86813 0.46790-0.19575
   2   4   548736.89 2058.23   1-0.63159 0.94496 0.50135-0.06910 0.59137-0.31979
   2   4   6 4204.12  498.27   1-0.36117 0.67201-0.00270 0.42503 0.93249-0.60641
  -2  -4  -6 3467.24  404.47   1-0.58696 0.27619-0.50699 0.08447 0.63120-0.95738
   2   4   6 4363.10  321.29   1-0.32784 0.63911 0.90453-0.48263-0.27264 0.59882
   2   4   6 4281.81  419.79   1-0.65907 0.97029 0.51304-0.09137 0.54990-0.22400
   2   4   719813.80  995.74   1-0.41263 0.72134-0.03424 0.44603 0.91025-0.52982
   2   4   716738.50  837.12   1-0.67450 0.98356 0.51932-0.10821 0.52474-0.14452
   2   4   8 5376.47  466.17   1-0.45537 0.76195-0.06116 0.46242 0.88819-0.45342
   2   4   8 5879.84  526.25   1-0.68268 0.98959 0.52255-0.12202 0.51076-0.07623
   2   4   932411.12 1592.22   1-0.49036 0.79481-0.08373 0.47445 0.86748-0.37836
   2   4   930458.75 1497.61   1-0.68610 0.99086 0.52388-0.13392 0.50478-0.01593
   2   4  1070403.62 3489.24   1-0.51860 0.82091-0.10233 0.48251 0.84887-0.30540
   2   4  1062809.76 3124.82   1-0.68614 0.98875 0.52390-0.14451 0.50470 0.03845
   2   4  1121466.35 1209.77   1-0.68363 0.98409 0.52292-0.15411 0.50910 0.08837
  -2  -4 -1215247.63 1026.53   1 0.55989-0.85797 0.12664-0.48581-0.81882 0.16691
   2   4  1214525.90  746.59   1-0.67908 0.97738 0.52113-0.16290 0.51697 0.13482
  -2  -4 -13 1693.75  421.05   1 0.57297-0.86891 0.13566-0.48433-0.80826 0.10203
   2   4  13 2826.24  493.26   1-0.67280 0.96896 0.51864-0.17098 0.52757 0.17853
  -2  -4 -14 9712.07  838.68   1 0.58235-0.87616 0.14220-0.48035-0.80039 0.03983
   2   4  1410513.44  849.34   1-0.66503 0.95903 0.51549-0.17840 0.54036 0.22006
   2   5  -9 2384.41  368.01   1 0.78650-0.45057 0.48872 0.21342 0.37757-0.86685
  -2  -5   9 2482.43  531.48   1-0.87371 0.53813 0.14115-0.84253 0.46551 0.02356
   2   5  -824634.75 1290.33   1 0.75003-0.41629 0.48435 0.20724 0.45038-0.88529
  -2  -5   826664.38 1595.03   1-0.87444 0.54101 0.14972-0.84058 0.46144-0.02670
   2   5  -771301.50 4514.12   1 0.70669-0.37533 0.47601 0.20499 0.52343-0.90393
  -2  -5   775345.02 4841.13   1-0.87488 0.54360 0.15531-0.83567 0.45875-0.07835
   2   5  -6123217.3 1275.28   1 0.65520-0.32603 0.46376 0.20668 0.59634-0.92248
  -2  -5   6121978.0 5398.78   1-0.87505 0.54592 0.15758-0.82743 0.45766-0.13160
   2   5  -538187.32 1790.05   1 0.59546-0.26848 0.44684 0.21303 0.66764-0.93943
  -2  -5   541868.80 2313.49   1-0.87493 0.54796 0.15606-0.81540 0.45839-0.18668
   2   5  -419568.92 1019.29   1 0.52823-0.20325 0.42445 0.22490 0.73539-0.95294
  -2  -5   420866.00 1930.40   1-0.87448 0.54965 0.15016-0.79900 0.46122-0.24385
   2   5  -3 4316.91  509.09   1 0.45229-0.12947 0.39720 0.24160 0.79853-0.96169
  -2  -5   3 4909.58  683.14   1-0.87352 0.55085 0.13915-0.77749 0.46646-0.30343
   2   5  -256025.72 2237.08   1 0.36933-0.04867 0.36485 0.26341 0.85467-0.96345
  -2  -5   256657.05 2351.80   1-0.87179 0.55126 0.12206-0.74989 0.47442-0.36573
   2   5  -196687.85 3734.97   1 0.28091 0.03744 0.32782 0.28967 0.90200-0.95639
  -2  -5   195248.64 3724.21   1-0.86896 0.55088 0.09777-0.71480 0.48511-0.43079
   2   5   069731.50 2742.51   1 0.18941 0.12679 0.28713 0.31976 0.93897-0.93897
  -2  -5   068683.94 2840.56   1-0.86385 0.54791 0.06442-0.67096 0.49960-0.49960
   2   5   180930.47 3156.52   1 0.09761 0.21676 0.24420 0.35217 0.96479-0.91048
  -2  -5  -176778.26 3058.24   1-0.85525 0.54145 0.01997-0.61602 0.51781-0.57212
   2   5   215301.58  835.43   1 0.00815 0.30411 0.20017 0.38562 0.97972-0.87109
  -2  -5  -214969.73 1716.10   1-0.84089 0.52923-0.03838-0.54717 0.53983-0.64846
   2   5   315160.44  831.88   1-0.07654 0.38669 0.15664 0.41857 0.98468-0.82174
  -2  -5  -314709.24 1412.32   1-0.81693 0.50742-0.11438-0.46068 0.56526-0.72821
   2   5   314112.41  973.85   1-0.45149 0.76157 0.41353 0.16109 0.79066-0.62773
   2   5   4 6529.32  550.74   1-0.15509 0.46280 0.11494 0.44982 0.98118-0.76385
  -2  -5  -4 5482.35  695.43   1-0.77559 0.46769-0.21365-0.35120 0.59397-0.81112
   2   5   4 5494.11  346.53   1-0.59346 0.90136 0.48425 0.07978 0.64287-0.42563
   2   5   5102308.5 3958.61   1-0.22531 0.53089 0.07604 0.47817 0.97131-0.69964
  -2  -5  -599382.03 3788.57   1-0.70736 0.40157-0.34097-0.21341 0.61917-0.89061
   2   5   5100557.9 3826.39   1-0.64828 0.95440 0.50852 0.04500 0.56668-0.29509
   2   5   642905.94 1951.87   1-0.28715 0.59059 0.04065 0.50300 0.95702-0.63101
  -2  -5  -636251.50 1564.11   1-0.58934 0.28606-0.50422-0.03973 0.63121-0.95738
   2   5   640909.01 1798.99   1-0.67645 0.98042 0.52010 0.02285 0.52144-0.19554
   2   5   735320.96 1656.29   1-0.34100 0.64228 0.00941 0.52376 0.94001-0.55958
   2   5   738409.68 1732.01   1-0.69153 0.99335 0.52597 0.00640 0.49510-0.11488
   2   5   811202.78  949.47   1-0.38647 0.68562-0.01810 0.54074 0.92212-0.48734
   2   5   811140.57  916.83   1-0.69922 0.99889 0.52886-0.00705 0.48102-0.04649
   2   5   915270.74  914.31   1-0.42464 0.72166-0.04173 0.55384 0.90439-0.41527
   2   5   915103.23  753.58   1-0.70221 0.99973 0.52997-0.01873 0.47541 0.01343
   2   5  10 3708.75  473.75   1-0.45624 0.75113-0.06171 0.56328 0.88771-0.34424
   2   5  10 3928.94  419.78   1-0.70194 0.99730 0.52987-0.02921 0.47592 0.06723
   2   5  11 5998.10  587.84   1-0.48203 0.77479-0.07831 0.56935 0.87264-0.27483
   2   5  11 5584.36  548.09   1-0.69922 0.99243 0.52886-0.03877 0.48102 0.11645
   2   5  1211425.06  946.86   1-0.50273 0.79336-0.09183 0.57233 0.85955-0.20738
   2   5  1210366.53  870.65   1-0.69455 0.98561 0.52711-0.04760 0.48963 0.16216
   2   5  13 7589.44  764.02   1-0.51896 0.80746-0.10257 0.57254 0.84861-0.14210
   2   5  13 6159.31  701.48   1-0.68823 0.97714 0.52470-0.05576 0.50100 0.20510
   2   6  -6 1001.14  265.50   1 0.69137-0.36970 0.47264 0.31921 0.54645-0.87259
  -2  -6   6 1224.97  458.77   1-0.85781 0.53646 0.03214-0.82292 0.51295-0.18706
   2   6  -510432.23  671.69   1 0.63641-0.31693 0.45871 0.32256 0.62012-0.89190
  -2  -6   5 8709.35 1597.06   1-0.85675 0.53755 0.02703-0.80732 0.51500-0.24343
   2   6  -479224.08 4994.02   1 0.57362-0.25633 0.44008 0.33062 0.69085-0.90828
  -2  -6   481352.75 5214.82   1-0.85474 0.53767 0.01759-0.78740 0.51875-0.30149
   2   6  -381586.43 5130.61   1 0.50440-0.18904 0.41617 0.34407 0.75655-0.91971
  -2  -6   385213.10 5415.51   1-0.85149 0.53657 0.00322-0.76254 0.52435-0.36141
   2   6  -240797.91 1877.30   1 0.42778-0.11458 0.38790 0.36179 0.81641-0.92518
  -2  -6   237719.96 3663.08   1-0.84660 0.53382-0.01682-0.73200 0.53195-0.42332
   2   6  -1 1615.27  250.03   1 0.34586-0.03497 0.35524 0.38364 0.86843-0.92281
  -2  -6   1 1670.40  237.93   1-0.83947 0.52883-0.04347-0.69485 0.54165-0.48733
   2   6   0 3081.91  309.36   1 0.26072 0.04802 0.31905 0.40922 0.91116-0.91116
  -2  -6   0 2969.16  446.09   1-0.82920 0.52070-0.07784-0.64999 0.55350-0.55350
   2   6   125093.16 1251.09   1 0.17453 0.13208 0.28030 0.43737 0.94391-0.88952
  -2  -6  -124226.36 1473.02   1-0.81446 0.50811-0.12129-0.59606 0.56739-0.62171
   2   6   239318.61 1841.74   1 0.08984 0.21501 0.24045 0.46673 0.96649-0.85786
  -2  -6  -239867.23 2167.72   1-0.79225 0.48756-0.17589-0.53124 0.58428-0.69286
   2   6   362088.81 3031.76   1 0.00844 0.29429 0.20031 0.49629 0.97969-0.81675
  -2  -6  -359486.43 2959.05   1-0.76169 0.45912-0.24270-0.45396 0.60075-0.76361
   2   6   422177.95 1114.29   1-0.06782 0.36845 0.16120 0.52482 0.98458-0.76732
  -2  -6  -423083.90 1131.42   1-0.71746 0.41701-0.32420-0.36200 0.61654-0.83369
   2   6   518615.36  992.95   1-0.13822 0.43637 0.12410 0.55151 0.98259-0.71092
  -2  -6  -519070.66  913.59   1-0.65362 0.35568-0.42263-0.25328 0.62781-0.89963
   2   6   6  610.95  248.81   1-0.20105 0.49707 0.08963 0.57542 0.97546-0.64946
   2   6   7 4373.75  427.43   1-0.25655 0.55043 0.05830 0.59620 0.96476-0.58442
   2   6   7 4505.40  358.46   1-0.69021 0.98479 0.52546 0.12819 0.49747-0.11726
   2   6   8 7817.97  653.49   1-0.30484 0.59658 0.03032 0.61362 0.95191-0.51724
   2   6   8 9592.93  725.76   1-0.70004 0.99247 0.52917 0.11391 0.47948-0.04495
   2   6   911126.41  867.84   1-0.34666 0.63625 0.00602 0.62746 0.93797-0.44885
   2   6   911782.50  917.81   1-0.70438 0.99465 0.53076 0.10174 0.47130 0.01754
   2   6  1014432.29  959.31   1-0.38174 0.66920-0.01520 0.63816 0.92414-0.38067
   2   6  1016366.76 1060.87   1-0.70504 0.99316 0.53101 0.09093 0.47003 0.07312
   2   6  1116476.41 1035.56   1-0.41107 0.69641-0.03327 0.64570 0.91099-0.31317
   2   6  1119545.14 1138.89   1-0.70304 0.98901 0.53027 0.08109 0.47385 0.12362
   2   7  -137589.58 1766.55   1 0.42566-0.12208 0.38709 0.47349 0.81790-0.87229
  -2  -7   136635.30 2140.87   1-0.79572 0.49211-0.16756-0.69232 0.58202-0.52773
   2   7   021432.45 1160.37   1 0.34633-0.04505 0.35543 0.49422 0.86816-0.86816
  -2  -7   018714.19 1705.89   1-0.78140 0.47992-0.20087-0.64855 0.59080-0.59080
   2   7   112768.55  789.55   1 0.26536 0.03378 0.32108 0.51797 0.90911-0.85472
  -2  -7  -111256.85 1820.81   1-0.76229 0.46293-0.24149-0.59746 0.60048-0.65477
   2   7   218539.30 1007.29   1 0.18460 0.11241 0.28493 0.54351 0.94060-0.83183
  -2  -7  -214745.93 2087.35   1-0.73680 0.43956-0.29035-0.53813 0.61058-0.71916
   2   7   3 1124.46  373.01   1 0.10631 0.18902 0.24837 0.56962 0.96281-0.79986
  -2  -7  -3  171.61  101.00   1-0.70276 0.40764-0.34841-0.46960 0.62026-0.78313
   2   7   4 5280.82  511.84   1 0.03157 0.26165 0.21189 0.59553 0.97678-0.75952
   2   7   5 6501.32  598.63   1-0.03813 0.32924 0.17660 0.62023 0.98354-0.71197
   2   7   633455.26 1684.95   1-0.10242 0.39100 0.14328 0.64317 0.98436-0.65836
   2   7   710077.23  706.92   1-0.15989 0.44633 0.11233 0.66356 0.98072-0.60038
  -3   6   3  -92.06  343.87   1 0.13100-0.71187 0.84163-0.14531-0.52391 0.68710
   3  -6  -3  342.27  261.37   1 0.60195-0.02032-0.28304-0.41415 0.74668-0.90997
  -3   6   2 3242.05  422.18   1 0.17300-0.75168 0.82347-0.11658-0.54033 0.64913
   3  -6  -2 2829.33  508.14   1 0.56837 0.01042-0.25444-0.45324 0.78243-0.89132
  -3   6   112854.40  830.60   1 0.21190-0.78840 0.80472-0.08727-0.55453 0.60893
   3  -6  -1 9767.92 1325.28   1 0.53319 0.04342-0.22635-0.49185 0.81514-0.86959
  -3   5   9 5445.67  496.44   1-0.21363-0.37195 0.91293-0.40138-0.34771 0.83698
   3  -5  -9 5573.85  639.63   1 0.75999-0.17250-0.42546-0.08673 0.49130-0.98118
  -3   5   8 1824.45  351.30   1-0.15686-0.42655 0.91085-0.38876-0.38174 0.81664
   3  -5  -8 1743.67  352.55   1 0.73566-0.15038-0.40127-0.12151 0.54568-0.98113
  -3   5   7  -70.38  329.35   1-0.10122-0.48062 0.90488-0.37219-0.41344 0.79402
   3  -5  -7  863.31  238.54   1 0.70793-0.12485-0.37508-0.15828 0.59845-0.97946
  -3   5   6 3571.94  378.95   1-0.04605-0.53363 0.89551-0.35228-0.44264 0.76884
   3  -5  -6 2704.46  374.98   1 0.67690-0.09604-0.34704-0.19691 0.64912-0.97570
  -3   5   510917.37  856.36   1 0.00758-0.58511 0.88302-0.32926-0.46925 0.74109
   3  -5  -5 7983.80 1101.56   1 0.64280-0.06414-0.31737-0.23716 0.69719-0.96934
  -3   5   433691.39 2242.72   1 0.05924-0.63461 0.86787-0.30356-0.49323 0.71070
   3  -5  -436453.25 3233.58   1 0.60594-0.02950-0.28635-0.27877 0.74218-0.95990
  -3   5   3 8765.50  826.96   1 0.10850-0.68171 0.85054-0.27570-0.51458 0.67768
   3  -5  -3 7611.74  890.11   1 0.56742 0.00623-0.25368-0.32203 0.78337-0.94670
  -3   5   2 9238.16  853.09   1 0.15469-0.72603 0.83165-0.24610-0.53331 0.64211
   3  -5  -2 7023.42 1005.18   1 0.52646 0.04502-0.22105-0.36518 0.82095-0.92984
  -3   5   1 2258.92  523.39   1 0.19813-0.76729 0.81157-0.21545-0.54962 0.60402
   3  -5  -1 1535.98  350.96   1 0.48435 0.08495-0.18829-0.40846 0.85436-0.90881
  -3   5   0  151.01  376.79   1 0.23827-0.80523 0.79094-0.18426-0.56359 0.56359
   3  -5   0  310.35  181.72   1 0.44177 0.12535-0.15588-0.45139 0.88347-0.88347
  -3   5  -127017.45 1898.86   1 0.27494-0.83972 0.77027-0.15302-0.57540 0.52100
   3  -5   126972.83 2429.64   1 0.39944 0.16550-0.12429-0.49351 0.90829-0.85384
  -3   5  -221852.48 1607.38   1 0.30806-0.87066 0.75005-0.12224-0.58524 0.47645
   3  -5   219725.94 1503.27   1 0.35785 0.20485-0.09420-0.53415 0.92901-0.82018
  -3   5  -3 7559.70  744.03   1 0.33681-0.89773 0.73063-0.09234-0.59390 0.43074
   3  -5   3 6688.74 1218.18   1 0.31804 0.24246-0.06549-0.57340 0.94580-0.78257
  -3   5  -411482.54  820.30   1 0.36281-0.92157 0.71259-0.06377-0.60048 0.38293
   3  -5   410532.15 1562.85   1 0.28037 0.27795-0.03870-0.61071 0.95911-0.74146
  -3   5  -5 2112.11  475.30   1 0.38532-0.94192 0.69613-0.03678-0.60574 0.33381
   3  -5   5 1656.82  313.07   1 0.24527 0.31085-0.01408-0.64587 0.96935-0.69728
   3  -4 -11  171.38  277.50   1 0.88923-0.30574 0.44518-0.81492-0.10521-0.49235
  -3   4  11  160.41  282.67   1-0.38601-0.19725 0.89321-0.52355-0.23056 0.82884
  -3   4  11 1479.90  430.42   1-0.80167 0.21833 0.46696-0.09727-0.37317 0.97101
  -3   4  10  624.42  318.43   1-0.33094-0.24956 0.90405-0.52435-0.27047 0.81410
   3  -4 -10 1037.74  359.87   1 0.78175-0.19944-0.44852 0.06839 0.43321-0.97751
   3  -4  -9 1329.13  474.60   1 0.88870-0.30946 0.45521-0.84597-0.05468-0.43423
  -3   4   9  381.30  389.93   1-0.27456-0.30377 0.91063-0.52037-0.30881 0.79807
   3  -4  -9  426.52  336.21   1 0.75914-0.17903-0.42459 0.03387 0.49338-0.98325
   3  -4  -829675.18 2012.30   1 0.88765-0.31054 0.45945-0.86072-0.03120-0.40338
  -3   4   826959.71 1866.29   1-0.21731-0.35886 0.91293-0.51213-0.34544 0.78034
   3  -4  -827147.21 2801.63   1 0.73229-0.15440-0.39802-0.00327 0.55255-0.98800
   3  -4  -739024.60 1905.26   1 0.88622-0.31124 0.46316-0.87494-0.00931-0.37095
  -3   4   739375.09 1926.39   1-0.15965-0.41435 0.91105-0.49970-0.38012 0.76066
   3  -4  -738726.51 2815.60   1 0.70117-0.12549-0.36887-0.04300 0.61014-0.99116
   3  -4  -613324.21  611.70   1 0.88454-0.31169 0.46633-0.88861 0.01051-0.33646
  -3   4   613254.68  679.27   1-0.10265-0.46972 0.90507-0.48314-0.41266 0.73887
   3  -4  -612087.68 1408.71   1 0.66584-0.09236-0.33730-0.08516 0.66549-0.99207
   3  -4  -5 9135.75  765.57   1 0.88284-0.31182 0.46882-0.90160 0.02796-0.29979
  -3   4   5 8803.38  852.59   1-0.04582-0.52439 0.89546-0.46299-0.44276 0.71459
   3  -4  -5 7871.44  860.68   1 0.62650-0.05523-0.30353-0.12951 0.71788-0.99003
   3  -4  -4  102.38  162.21   1 0.88131-0.31245 0.47071-0.91402 0.04122-0.25869
  -3   4   4  986.94  430.01   1 0.00975-0.57781 0.88245-0.43944-0.47029 0.68776
   3  -4  -4  232.52  158.34   1 0.58353-0.01448-0.26792-0.17570 0.76661-0.98433
   3  -4  -3 4513.57  429.72   1 0.88038-0.31368 0.47175-0.92559 0.04874-0.21184
  -3   4   3 6859.58  717.82   1 0.06353-0.62943 0.86647-0.41292-0.49515 0.65825
   3  -4  -3 5384.58  611.85   1 0.53808 0.02826-0.23022-0.22403 0.81083-0.97417
   3  -4  -222623.31 1070.44   1 0.88061-0.31608 0.47150-0.93587 0.04692-0.15566
  -3   4   228837.99 1481.57   1 0.11474-0.67873 0.84810-0.38388-0.51725 0.62605
   3  -4  -224951.53 1246.63   1 0.48967 0.07449-0.19239-0.27238 0.85041-0.95930
  -3   4   136444.50  970.41   1 0.16344-0.72525 0.82779-0.35301-0.53669 0.59109
   3  -4  -133802.59 2166.25   1 0.43977 0.12222-0.15437-0.32092 0.88474-0.93918
  -3   4   028162.10 1458.88   1 0.20893-0.76856 0.80622-0.32087-0.55348 0.55348
   3  -4   027476.84 2668.92   1 0.38910 0.17063-0.11706-0.36877 0.91372-0.91372
  -3   4  -117711.87 1049.89   1 0.25092-0.80836 0.78401-0.28810-0.56777 0.51337
   3  -4   116595.43 1534.41   1 0.33912 0.21842-0.08063-0.41573 0.93728-0.88286
  -3   4  -215454.67  961.87   1 0.28917-0.84442 0.76177-0.25529-0.57972 0.47092
   3  -4   217144.90 1617.42   1 0.29051 0.26484-0.04588-0.46102 0.95577-0.84694
  -3   4  -3 4797.77  634.99   1 0.32354-0.87661 0.74007-0.22303-0.58957 0.42637
   3  -4   3 4987.28  619.63   1 0.24411 0.30904-0.01327-0.50416 0.96965-0.80641
  -3   4  -425780.60 1383.03   1 0.35330-0.90462 0.71930-0.19182-0.59814 0.38059
   3  -4   426227.66 2458.38   1 0.20061 0.35035 0.01682-0.54479 0.97952-0.76187
  -3   4  -530762.93 1594.70   1 0.37987-0.92902 0.70019-0.16218-0.60450 0.33257
   3  -4   532441.83 1623.01   1 0.16019 0.38863 0.04348-0.58210 0.98612-0.71422
  -3   4  -634085.46 2298.45   1 0.40261-0.94960 0.68295-0.13441-0.60949 0.28317
   3  -4   633798.82 2268.07   1 0.12390 0.42270 0.06793-0.61712 0.98996-0.66368
  -3   4  -7 1587.01  528.22   1 0.42163-0.96646 0.66787-0.10881-0.61332 0.23261
   3  -4   7 1645.16  353.14   1 0.09157 0.45281 0.08946-0.64922 0.99177-0.61111
  -3   4  -8 5910.67  646.71   1 0.43706-0.97973 0.65519-0.08560-0.61618 0.18109
   3  -4   8 5696.61  620.69   1 0.06327 0.47889 0.10812-0.67846 0.99212-0.55708
   3  -3 -12 8644.95  717.28   1 0.88618-0.30805 0.46324-0.70114-0.00884-0.64304
  -3   3  1210387.84  836.59   1-0.50717-0.07092 0.85141-0.61374-0.13364 0.78631
  -3   3  12 9993.92  850.53   1-0.82207 0.24382 0.49395-0.25619-0.28318 0.93537
   3  -3 -1117017.30 1247.41   1 0.88284-0.30632 0.46883-0.71708 0.02802-0.62606
  -3   3  1116565.99 1151.04   1-0.45800-0.11794 0.87161-0.62339-0.17468 0.77296
  -3   3  1116192.23 1186.66   1-0.80820 0.23213 0.47504-0.22674-0.34804 0.94588
   3  -3 -1028228.07 1999.81   1 0.87813-0.30377 0.47394-0.73272 0.06529-0.60896
  -3   3  1029841.37 1996.16   1-0.40648-0.16731 0.88796-0.62918-0.21514 0.75903
   3  -3 -1025503.20 1750.84   1 0.78856-0.21364-0.45613 0.19749 0.41243-0.95673
   3  -3  -910997.53  693.41   1 0.87204-0.29985 0.47844-0.74775 0.10310-0.59241
  -3   3   910998.38  619.72   1-0.35285-0.21878 0.90031-0.63098-0.25480 0.74430
   3  -3  -910206.78  526.68   1 0.76536-0.19265-0.43100 0.16178 0.47796-0.96783
   3  -3  -8 1625.82  444.17   1 0.86447-0.29445 0.48230-0.76214 0.14162-0.57656
  -3   3   8  674.25  202.63   1-0.29741-0.27151 0.90849-0.62899-0.29355 0.72845
   3  -3  -8  579.04  231.44   1 0.73700-0.16649-0.40256 0.12276 0.54292-0.97836
   3  -3  -7  590.04  413.07   1 0.85528-0.28742 0.48549-0.77586 0.18104-0.56161
  -3   3   7 1128.55  406.46   1-0.24051-0.32625 0.91251-0.62246-0.33086 0.71140
   3  -3  -7  438.56  172.60   1 0.70326-0.13497-0.37079 0.08040 0.60656-0.98758
   3  -3  -6 5847.20  565.65   1 0.84426-0.27857 0.48796-0.78886 0.22160-0.54780
  -3   3   6 6088.63  538.45   1-0.18260-0.38199 0.91229-0.61169-0.36657 0.69275
   3  -3  -6 6716.58  740.10   1 0.66410-0.09802-0.33578 0.03480 0.66799-0.99457
   3  -3  -538701.71 1823.36   1 0.83113-0.26760 0.48961-0.80104 0.26362-0.53546
  -3   3   539734.03 1831.42   1-0.12420-0.43823 0.90788-0.59674-0.40038 0.67220
   3  -3  -538815.01 1803.91   1 0.61965-0.05577-0.29777-0.01378 0.72619-0.99834
   3  -3  -459122.85 2383.75   1 0.81556-0.25404 0.48987-0.81199 0.30801-0.52547
  -3   3   460563.01 2458.56   1-0.06640-0.49434 0.89938-0.57766-0.43209 0.64956
   3  -3  -459829.87 3735.71   1 0.57030-0.00864-0.25719-0.06494 0.78012-0.99785
   3  -3  -3164230.1 6247.88   1 0.79679-0.23745 0.48942-0.82209 0.35437-0.51746
  -3   3   3156355.5 5997.38   1-0.00887-0.54970 0.88721-0.55495-0.46127 0.62437
   3  -3  -3150065.6 5890.11   1 0.51726 0.04177-0.21382-0.11897 0.82868-0.99201
   3  -3  -2  365.89  172.19   1 0.77406-0.21690 0.48753-0.83076 0.40389-0.51262
  -3   3   2  369.54  265.27   1 0.04725-0.60367 0.87166-0.52886-0.48781 0.59654
   3  -3  -2  607.38  254.73   1 0.46045 0.09640-0.17002-0.17330 0.87124-0.98013
   3  -3  -1 5805.37  448.41   1 0.74609-0.19111 0.48373-0.83751 0.45754-0.51190
  -3   3   1 6161.70  576.99   1 0.10133-0.65559 0.85324-0.49990-0.51156 0.56593
   3  -3  -1 5924.23  714.77   1 0.40160 0.15307-0.12588-0.22795 0.90711-0.96156
   3  -3   0 1796.42  230.86   1 0.71054-0.15774 0.47682-0.84104 0.51745-0.51745
  -3   3   0  881.98  122.40   1-0.42306-0.12920-0.04075 0.40491 0.90518-0.90518
  -3   3   0 1795.53  461.76   1 0.15263-0.70491 0.83254-0.46853-0.53251 0.53251
   3  -3   0 1945.39  301.72   1 0.34187 0.21051-0.08262-0.28175 0.93610-0.93610
   3  -3   129657.74 1297.04   1 0.66547-0.11486 0.46640-0.84118 0.58276-0.52840
  -3   3  -129131.70 1390.33   1 0.20088-0.75098 0.81022-0.43565-0.55061 0.49621
   3  -3   128306.65 1344.35   1 0.28307 0.26711-0.04061-0.33429 0.95823-0.90382
   3  -3   249961.75 2125.29   1 0.60696-0.05854 0.45028-0.83564 0.65485-0.54614
  -3   3  -248664.53 2193.53   1 0.24548-0.79339 0.78701-0.40187-0.56598 0.45719
   3  -3   255185.56 2264.18   1 0.22629 0.32170-0.00089-0.38455 0.97405-0.86523
   3  -3   354418.21 2081.50   1 0.52982 0.01646 0.42499-0.82093 0.73394-0.57077
  -3   3  -361720.82 2505.70   1 0.28607-0.83180 0.76364-0.36793-0.57879 0.41560
   3  -3   357149.57 2306.54   1 0.17235 0.37354 0.03523-0.43126 0.98440-0.82126
   3  -3   422702.49  991.01   1 0.43471 0.10941 0.39055-0.79704 0.81147-0.59392
  -3   3  -426520.82 1330.97   1 0.32245-0.86599 0.74079-0.33452-0.58927 0.37168
   3  -3   429033.29 1439.51   1 0.12269 0.42097 0.06874-0.47534 0.99006-0.77254
  -3   3  -5 6011.96  635.74   1 0.35391-0.89563 0.71887-0.30221-0.59829 0.32636
   3  -3   5 5306.22  559.71   1 0.07758 0.46387 0.09871-0.51589 0.99208-0.72018
  -3   3  -6  369.42  457.32   1 0.38162-0.92117 0.69888-0.27169-0.60490 0.27858
   3  -3   6  555.44  411.59   1 0.03732 0.50191 0.12508-0.55284 0.99144-0.66516
  -3   3  -714232.88  708.64   1 0.40506-0.94245 0.68103-0.24331-0.61000 0.22930
   3  -3   714294.60  750.67   1 0.00202 0.53499 0.14793-0.58626 0.98899-0.60833
  -3   3  -894292.11 4232.33   1 0.42434-0.95956 0.66567-0.21743-0.61384 0.17875
   3  -3   895351.37 4265.79   1-0.02838 0.56318 0.16739-0.61630 0.98548-0.55044
  -3   3  -9 2020.92  291.69   1 0.43960-0.97266 0.65306-0.19429-0.61664 0.12716
   3  -3   9 1792.54  334.27   1-0.05483 0.58711 0.18357-0.64290 0.98147-0.49189
  -3   3 -10 5739.49  622.97   1 0.45099-0.98189 0.64339-0.17408-0.61858 0.07472
   3  -3  10 5643.54  597.78   1-0.07611 0.60614 0.19696-0.66684 0.97745-0.43347
   3  -2 -13 2813.23  511.16   1 0.88027-0.30692 0.47186-0.57770 0.04956-0.75633
  -3   2  13 1707.64  451.62   1-0.62107 0.04793 0.78327-0.67724-0.02732 0.73419
  -3   2  13 2995.93  398.24   1-0.83714 0.26396 0.52193-0.41609-0.16362 0.87016
   3  -2 -1251940.33 2614.86   1 0.87376-0.30257 0.47733-0.59370 0.09322-0.74562
  -3   2  1251483.70 2527.74   1-0.58095 0.00996 0.81118-0.69462-0.06681 0.71929
  -3   2  1252786.60 2565.58   1-0.83027 0.25929 0.50723-0.39085-0.23098 0.88317
   3  -2 -11 1364.61  305.04   1 0.86528-0.29626 0.48195-0.60885 0.13784-0.73587
  -3   2  11 2189.73  439.04   1-0.81888 0.25009 0.48931-0.36240-0.29999 0.89783
   3  -2 -10 9268.98  692.62   1 0.85463-0.28778 0.48567-0.62310 0.18359-0.72726
  -3   2  1010379.76  627.20   1-0.49297-0.07349 0.85774-0.72040-0.14575 0.68964
  -3   2  10 9342.48  568.73   1-0.80242 0.23583 0.46788-0.33043-0.37039 0.91388
   3  -2  -924028.03 1321.12   1 0.84157-0.27689 0.48839-0.63635 0.23068-0.71998
  -3   2   924591.83 1289.36   1-0.44487-0.11944 0.87623-0.72833-0.18522 0.67473
   3  -2  -924462.20 1226.41   1 0.77930-0.21397-0.44583 0.29810 0.44036-0.93024
   3  -2  -842830.19 2239.53   1 0.82586-0.26307 0.48954-0.64803 0.27981-0.71472
  -3   2   845395.29 2311.47   1-0.39428-0.16788 0.89117-0.73272-0.22437 0.65949
   3  -2  -843056.78 2168.69   1 0.75113-0.18802-0.41649 0.25818 0.51217-0.94762
   3  -2  -752496.23 3687.93   1 0.80684-0.24624 0.48980-0.65884 0.33028-0.71083
  -3   2   754375.56 2240.78   1-0.34139-0.21862 0.90238-0.73337-0.26298 0.64370
   3  -2  -750142.76 2228.29   1 0.71629-0.15539-0.38285 0.21395 0.58339-0.96440
   3  -2  -638560.58 1812.22   1 0.78408-0.22566 0.48852-0.66811 0.38283-0.70901
  -3   2   641292.30 1888.48   1-0.28644-0.27090 0.90961-0.73030-0.30092 0.62710
   3  -2  -637896.35 2014.97   1 0.67444-0.11575-0.34486 0.16538 0.65282-0.97941
   3  -2  -512242.80  799.34   1 0.75684-0.20060 0.48536-0.67550 0.43772-0.70954
  -3   2   510962.53  721.66   1-0.22977-0.32541 0.91279-0.72294-0.33766 0.60947
   3  -2  -512465.64 1463.00   1 0.62552-0.06904-0.30271 0.11264 0.71908-0.99123
   3  -2  -4 3335.27  384.83   1 0.72422-0.17016 0.47989-0.68057 0.49518-0.71264
  -3   2   4 3483.07  473.80   1-0.17182-0.38120 0.91179-0.71139-0.37298 0.59043
   3  -2  -4 3785.18  441.11   1 0.56985-0.01558-0.25682 0.05617 0.78057-0.99829
   3  -2  -3 4533.27  426.55   1 0.68487-0.13299 0.47113-0.68223 0.55586-0.71893
  -3   2   3 5755.64  564.00   1-0.11354-0.43772 0.90649-0.69552-0.40667 0.56977
   3  -2  -3 5676.51  720.05   1 0.50861 0.04311-0.20707-0.00427 0.83572-0.99906
   3  -2  -212858.92  979.28   1 0.63774-0.08806 0.45908-0.68075 0.61848-0.72720
  -3   2   212319.47  953.11   1-0.05482-0.49429 0.89723-0.67573-0.43813 0.54686
   3  -2  -212493.23 1617.96   1 0.44226 0.10728-0.15625-0.06561 0.88316-0.99206
   3  -2  -1296080.9 7708.18   1 0.58119-0.03370 0.44245-0.67469 0.68296-0.73732
  -3   2   1276667.5 7254.02   1 0.00326-0.55022 0.88415-0.65211-0.46717 0.52154
   3  -2  -1283666.0 7434.69   1 0.37272 0.17449-0.10504-0.12733 0.92197-0.97638
   3  -2   074604.90 2844.45   1 0.51352 0.03180 0.41937-0.66224 0.74861-0.74861
  -3   2   077876.21 3027.50   1 0.05993-0.60473 0.86765-0.62506-0.49354 0.49354
   3  -2   077236.56 3025.92   1 0.30242 0.24259-0.05434-0.18857 0.95162-0.95162
   3  -2   121733.16  976.00   1 0.43427 0.10888 0.39038-0.64380 0.81178-0.75740
  -3   2  -122675.95 1098.51   1 0.11441-0.65716 0.84822-0.59499-0.51712 0.46272
   3  -2   125436.85 2368.55   1 0.23318 0.30964-0.00567-0.24777 0.97241-0.91800
   3  -2   2  300.27   82.24   1 0.57436-0.03336 0.13663-0.40031-0.80711 0.91577
   3  -2   2  172.30  123.55   1 0.34397 0.19701 0.35446-0.61843 0.86950-0.76073
  -3   2  -2  441.20  268.59   1 0.16602-0.70659 0.82663-0.56283-0.53768 0.42888
   3  -2   2 -120.58  247.53   1 0.16668 0.37405 0.03908-0.30310 0.98523-0.87647
   3  -2   319707.94  861.50   1 0.68483-0.14597 0.21744-0.49163-0.69549 0.85847
   3  -2   322513.86  998.26   1 0.24533 0.29351 0.31228-0.58686 0.91776-0.75461
  -3   2  -323013.86 1102.73   1 0.21403-0.75241 0.80364-0.52927-0.55528 0.39209
   3  -2   324565.60 1209.80   1 0.10483 0.43368 0.08066-0.35525 0.99121-0.82807
   3  -2   413819.87  996.25   1 0.14287 0.39383 0.26556-0.55075 0.95344-0.73591
  -3   2  -415125.76 1148.96   1 0.25791-0.79410 0.78009-0.49515-0.57003 0.35243
   3  -2   415729.08  959.51   1 0.04845 0.48785 0.11783-0.40300 0.99185-0.77433
   3  -2   539507.80 1709.27   1 0.04294 0.49158 0.21753-0.51321 0.97510-0.70353
  -3   2  -539746.85 1810.18   1 0.29726-0.83126 0.75681-0.46131-0.58212 0.31013
   3  -2   535578.08 1637.96   1-0.00186 0.53594 0.15042-0.44617 0.98861-0.71672
   3  -2   665359.64 2520.39   1-0.05039 0.58280 0.17027-0.47652 0.98410-0.65822
  -3   2  -669437.96 2762.49   1 0.33183-0.86365 0.73460-0.42853-0.59181 0.26542
   3  -2   667873.29 2743.12   1-0.04648 0.57814 0.17830-0.48452 0.98287-0.65649
   3  -2   728787.58 1284.04   1-0.13361 0.66364 0.12659-0.44326 0.98291-0.60257
  -3   2  -730935.18 1463.51   1 0.36107-0.89101 0.71382-0.39745-0.60006 0.21935
   3  -2   730426.41 1472.95   1-0.08441 0.61381 0.20215-0.51893 0.97570-0.59492
   3  -2   8 7799.56  627.36   1-0.20395 0.73184 0.08802-0.41524 0.97501-0.54034
  -3   2  -8 8849.82  788.63   1 0.38590-0.91368 0.69569-0.36878-0.60587 0.17078
   3  -2   8 9425.96  906.91   1-0.11644 0.64359 0.22207-0.54939 0.96805-0.53287
   3  -2   9  174.53  128.34   1-0.26186 0.78763 0.05525-0.39303 0.96352-0.47451
  -3   2  -9  892.96  385.31   1 0.40596-0.93158 0.68033-0.34290-0.61019 0.12071
   3  -2   9  472.48  324.15   1-0.14298 0.66787 0.23839-0.57627 0.96058-0.47100
   3  -2  1020426.91 1356.24   1-0.30826 0.83189 0.02831-0.37664 0.95087-0.40753
  -3   2 -1020069.89 1410.59   1 0.42137-0.94482 0.66808-0.32012-0.61327 0.06940
   3  -2  1021997.37 1549.74   1-0.16448 0.68712 0.25151-0.59993 0.95377-0.40980
  -3   2 -11 9633.49  672.04   1 0.43228-0.95357 0.65917-0.30068-0.61532 0.01707
   3  -2  1110265.34  804.75   1-0.18139 0.70177 0.26175-0.62073 0.94793-0.34956
  -3   2 -1220603.88 1129.99   1 0.43880-0.95792 0.65374-0.28472-0.61649-0.03613
   3  -2  1223743.08 1356.83   1-0.19415 0.71227 0.26943-0.63897 0.94324-0.29047
   3  -1 -1313013.52 1028.25   1 0.86785-0.30200 0.48075-0.46524 0.12529-0.83206
  -3   1  1312262.26  853.15   1-0.68803 0.12228 0.72427-0.73968 0.04511 0.66175
  -3   1  1312952.82  835.17   1-0.84013 0.27428 0.53629-0.55197-0.08097 0.78745
   3  -1 -1219052.32 1351.87   1 0.85694-0.29326 0.48501-0.48002 0.17437-0.82678
  -3   1  1221411.85 1550.49   1-0.65568 0.09208 0.75498-0.75986 0.00895 0.64352
  -3   1  1219660.83 1516.31   1-0.83800 0.27429 0.52448-0.52949-0.15054 0.80273
   3  -1 -11 4608.80  599.85   1 0.84336-0.28185 0.48811-0.49365 0.22467-0.82271
  -3   1  11 6331.18  494.84   1-0.62083 0.05937 0.78345-0.77781-0.02757 0.62568
  -3   1  11 5439.35  489.63   1-0.83132 0.26980 0.50914-0.50363-0.22286 0.82070
   3  -1 -1060092.27 2847.88   1 0.82691-0.26723 0.48948-0.50543 0.27679-0.82043
  -3   1  1062535.50 2865.90   1-0.58343 0.02411 0.80959-0.79342-0.06444 0.60818
  -3   1  1061293.95 2781.82   1-0.81930 0.25998 0.48992-0.47387-0.29784 0.84134
   3  -1  -941788.36 2212.38   1 0.80696-0.24946 0.48981-0.51631 0.32998-0.81926
  -3   1   943151.94 2208.80   1-0.54345-0.01371 0.83326-0.80656-0.10161 0.59098
  -3   1   944045.71 2220.75   1-0.80111 0.24398 0.46628-0.43970-0.37522 0.86436
   3  -1  -812267.37  842.76   1 0.78316-0.22784 0.48844-0.52549 0.38481-0.81972
  -3   1   814593.66  888.45   1-0.50114-0.05370 0.85415-0.81714-0.13881 0.57392
   3  -1  -813609.47  871.47   1 0.77499-0.21927-0.44117 0.40435 0.45248-0.88792
   3  -1  -7  551.32  266.88   1 0.75491-0.20177 0.48508-0.53268 0.44136-0.82191
  -3   1   7  662.86  418.49   1-0.45593-0.09676 0.87236-0.82480-0.17635 0.55708
   3  -1  -7  784.70  248.58   1 0.74180-0.18828-0.40724 0.35984 0.53280-0.91381
   3  -1  -692492.95 3598.58   1 0.72149-0.17054 0.47936-0.53751 0.49964-0.82582
  -3   1   697473.64 3781.44   1-0.40814-0.14240 0.88751-0.82939-0.21387 0.54021
   3  -1  -695255.42 3777.80   1 0.69969-0.14839-0.36753 0.30954 0.61265-0.93923
   3  -1  -588930.82 3457.15   1 0.68204-0.13328 0.47046-0.53901 0.55989-0.83168
  -3   1   594671.36 3663.89   1-0.35787-0.19052 0.89934-0.83067-0.25119 0.52314
   3  -1  -591645.85 3536.45   1 0.64812-0.09903-0.32193 0.25336 0.69013-0.96228
   3  -1  -473570.47 2869.84   1 0.63568-0.08912 0.45851-0.53763 0.62102-0.83845
  -3   1   477462.42 3007.24   1-0.30523-0.24053 0.90760-0.82850-0.28824 0.50569
   3  -1  -475166.23 3014.37   1 0.58704-0.04015-0.27079 0.19163 0.76292-0.98064
   3  -1  -363407.64 2478.54   1 0.58142-0.03705 0.44252-0.53222 0.68272-0.84579
  -3   1   365432.35 2570.24   1-0.25057-0.29304 0.91211-0.82246-0.32443 0.48752
   3  -1  -362476.17 2481.88   1 0.51739 0.02701-0.21393 0.12404 0.82857-0.99190
   3  -1  -226391.90 1217.15   1 0.51852 0.02366 0.42111-0.52145 0.74417-0.85295
  -3   1   227296.98 1281.91   1-0.19422-0.34722 0.91267-0.81247-0.35959 0.46831
   3  -1  -227362.00 1625.19   1 0.44029 0.10194-0.15476 0.05435 0.88441-0.99330
   3  -1  -1 1952.30  291.32   1 0.44610 0.09391 0.39487-0.50576 0.80315-0.85754
  -3   1   1  432.96  228.18   1-0.13669-0.40258 0.90917-0.79842-0.39333 0.44769
   3  -1  -1  604.99  180.28   1 0.35826 0.18159-0.09450-0.01642 0.92882-0.98323
   3  -1   018173.52  866.80   1 0.36458 0.17328 0.36292-0.48436 0.85753-0.85753
  -3   1   016718.62  825.35   1-0.07898-0.45850 0.90153-0.78023-0.42544 0.42544
   3  -1   020481.58 1804.45   1 0.27471 0.26295-0.03471-0.08674 0.96089-0.96089
   3  -1   195335.75 3615.05   1 0.27516 0.26048 0.32534-0.45732 0.90467-0.85029
  -3   1  -196069.14 3666.35   1-0.02121-0.51411 0.89014-0.75830-0.45518 0.40081
   3  -1   199114.00 3801.19   1 0.19258 0.34288 0.02232-0.15431 0.98102-0.92661
   3  -1   281751.09 3119.60   1 0.18051 0.35300 0.28305-0.42564 0.94196-0.83319
  -3   1  -282588.70 3166.00   1 0.03541-0.56858 0.87524-0.73287-0.48237 0.37364
   3  -1   286743.38 3341.16   1 0.11464 0.41872 0.07412-0.21670 0.99063-0.88187
   3  -1   3114372.4 3063.38   1 0.08456 0.44679 0.23790-0.39102 0.96760-0.80465
  -3   1  -3114066.7 3096.68   1 0.08997-0.62098 0.85739-0.70448-0.50673 0.34362
   3  -1   3112283.3 3066.80   1 0.04310 0.48804 0.12131-0.27447 0.99167-0.82853
   3  -1   480002.42 3053.15   1-0.00915 0.53839 0.19142-0.35512 0.98146-0.76420
  -3   1  -483626.64 3204.03   1 0.14182-0.67067 0.83715-0.67356-0.52825 0.31065
   3  -1   481763.16 3173.75   1-0.02081 0.54974 0.16257-0.32630 0.98647-0.76895
   3  -1   5 4863.05  482.31   1-0.09707 0.62394 0.14612-0.32028 0.98449-0.71282
  -3   1  -5 3861.43  366.63   1 0.18962-0.71629 0.81569-0.64152-0.54652 0.27453
   3  -1   5 4035.57  427.46   1-0.07710 0.60363 0.19758-0.37179 0.97724-0.70526
   3  -1   6 1232.37  175.45   1-0.17555 0.70028 0.10375-0.28847 0.97898-0.65298
  -3   1  -6 1535.42  257.20   1 0.23287-0.75735 0.79383-0.60910-0.56177 0.23538
   3  -1   6 1946.38  337.16   1-0.12486 0.64913 0.22727-0.41203 0.96579-0.63940
   3  -1   720574.38  969.60   1-0.24350 0.76610 0.06574-0.26101 0.96766-0.58733
  -3   1  -722530.00 1068.78   1 0.27102-0.79332 0.77256-0.57727-0.57418 0.19339
   3  -1   722239.45 1142.08   1-0.16496 0.68698 0.25180-0.44712 0.95361-0.57283
   3  -1   831857.81 1445.30   1-0.30064 0.82111 0.03278-0.23861 0.95317-0.51849
  -3   1  -834450.80 1554.09   1 0.30374-0.82385 0.75277-0.54691-0.58400 0.14882
   3  -1   834600.86 1634.96   1-0.19803 0.71779 0.27177-0.47763 0.94176-0.50658
   3  -1   949060.86 2410.65   1-0.34761 0.86585 0.00545-0.22166 0.93762-0.44850
  -3   1  -949122.55 2416.98   1 0.33085-0.84877 0.73525-0.51882-0.59155 0.10196
   3  -1   951973.27 2620.01   1-0.22479 0.74229 0.28774-0.50416 0.93095-0.44137
   3  -1  1015493.72  867.65   1-0.38517 0.90129-0.01730-0.20944 0.92267-0.37921
  -3   1 -1013140.47  489.64   1 0.35200-0.86801 0.72021-0.49359-0.59781 0.05394
   3  -1  1017134.36 1044.26   1-0.24595 0.76120 0.30025-0.52722 0.92160-0.37763
   3  -1  11 4682.92  387.35   1-0.41457 0.92856-0.03545-0.20183 0.90932-0.31150
  -3   1 -11 4660.28  371.70   1 0.36782-0.88167 0.70899-0.47184-0.60169 0.00344
   3  -1  11 5309.57  455.89   1-0.26236 0.77565 0.30890-0.54627 0.91419-0.31613
   3  -1  12 1032.01  310.89   1-0.43689 0.94875-0.04944-0.19837 0.89815-0.24598
   3  -1  12 1501.72  438.56   1-0.27424 0.78530 0.31583-0.56374 0.90831-0.25589
   3  -1  13 2857.46  394.18   1-0.45312 0.96285-0.05972-0.19862 0.88944-0.18293
   3  -1  13 2629.97  440.11   1-0.28226 0.79109 0.32048-0.57895 0.90421-0.19742
   3   0 -1330053.42 1715.26   1 0.85497-0.29663 0.48558-0.34871 0.18227-0.88904
  -3   0  1331024.89 1642.60   1-0.74937 0.19092 0.65096-0.78772 0.12119 0.58569
  -3   0  1329919.56 1489.41   1-0.83443 0.27584 0.55003-0.68706 0.03428 0.67220
   3   0 -12 6966.17  759.98   1 0.84016-0.28398 0.48860-0.36226 0.23535-0.88775
  -3   0  12 7468.11  725.11   1-0.72513 0.16883 0.68276-0.80901 0.08948 0.56302
  -3   0  12 5826.19  455.60   1-0.83922 0.28282 0.54265-0.66914-0.03507 0.68721
   3   0 -11 1326.33  381.36   1 0.82222-0.26782 0.48971-0.37367 0.29004-0.88805
  -3   0  11 1262.75  250.99   1-0.83981 0.28561 0.53194-0.64788-0.10837 0.70616
   3   0 -10 8565.28  589.00   1 0.80051-0.24829 0.48960-0.38411 0.34563-0.88927
  -3   0  10 8169.58  558.58   1-0.67046 0.11853 0.74151-0.84678 0.02517 0.51856
  -3   0  10 8539.23  420.29   1-0.83532 0.28328 0.51737-0.62271-0.18587 0.72936
   3   0  -928715.65 1495.14   1 0.77472-0.22469 0.48760-0.39266 0.40253-0.89181
  -3   0   929461.54 1495.48   1-0.64007 0.09029 0.76827-0.86301-0.00768 0.49704
  -3   0   931839.14 1497.45   1-0.82476 0.27491 0.49804-0.59285-0.26778 0.75693
   3   0  -883365.03 3314.11   1 0.74432-0.19646 0.48345-0.39905 0.46071-0.89563
  -3   0   887006.28 3428.79   1-0.60754 0.05990 0.79323-0.87744-0.04092 0.47592
  -3   0   891935.19 3551.97   1-0.80672 0.25906 0.47318-0.55746-0.35395 0.78874
   3   0  -760567.17 2466.35   1 0.70872-0.16309 0.47644-0.40245 0.52029-0.90079
  -3   0   760165.04 2421.16   1-0.57279 0.02730 0.81630-0.88998-0.07454 0.45516
   3   0  -760085.00 2367.08   1 0.77909-0.23296-0.44560 0.51969 0.44096-0.82197
   3   0  -653732.89 2345.83   1 0.66717-0.12373 0.46682-0.40340 0.58047-0.90661
  -3   0   657275.95 2325.35   1-0.53577-0.00757 0.83735-0.90051-0.10851 0.43475
   3   0  -655038.66 2184.82   1 0.74150-0.19759-0.40696 0.47046 0.53342-0.86001
   3   0  -561158.89 2433.69   1 0.61900-0.07775 0.45380-0.40095 0.64100-0.91279
  -3   0   564796.04 2576.01   1-0.49663-0.04442 0.85615-0.90892-0.14264 0.41459
   3   0  -562136.78 2396.28   1 0.69155-0.14985-0.36014 0.41306 0.62613-0.89828
   3   0  -414196.90 1079.83   1 0.56355-0.02449 0.43687-0.39459 0.70110-0.91852
  -3   0   415113.36 1174.06   1-0.45490-0.08400 0.87273-0.91494-0.17717 0.39473
   3   0  -415137.34 1326.99   1 0.62815-0.08866-0.30493 0.34726 0.71584-0.93356
   3   0  -347015.67 2056.01   1 0.50062 0.03627 0.41483-0.38319 0.75979-0.92295
  -3   0   346321.76 2015.77   1-0.41081-0.12595 0.88676-0.91842-0.21183 0.37500
   3   0  -344687.39 1948.54   1 0.55137-0.01426-0.24079 0.27236 0.79875-0.96208
   3   0  -2145840.3 3905.02   1 0.42936 0.10536 0.38851-0.36742 0.81529-0.92406
  -3   0   2150798.0 4046.66   1-0.36439-0.17022 0.89803-0.91914-0.24647 0.35525
   3   0  -2143126.1 3797.98   1 0.46275 0.07217-0.17176 0.19281 0.86968-0.97857
   3   0  -191390.08 3489.17   1 0.35043 0.18202 0.35712-0.34651 0.86582-0.92021
  -3   0   195993.46 3666.95   1-0.31559-0.21644 0.90628-0.91683-0.28114 0.33550
   3   0  -188923.04 3445.34   1 0.36566 0.16683-0.09989 0.11042 0.92536-0.97978
   3   0   0180233.5 4769.99   1 0.26516 0.26516 0.32099-0.32099 0.90920-0.90920
  -3   0   0183434.0 4851.29   1-0.26493-0.26493 0.91131-0.91131-0.31513 0.31513
   3   0   0182791.1 4813.40   1 0.26515 0.26515-0.02799 0.02799 0.96379-0.96379
   3   0   120383.35  955.52   1 0.17547 0.35270 0.28073-0.29134 0.94360-0.88922
  -3   0  -120520.94  974.61   1-0.21262-0.31508 0.91293-0.90238-0.34834 0.29397
   3   0   120512.15  954.27   1 0.16636 0.36184 0.03930-0.04988 0.98528-0.93090
   3   0   2   30.23  219.86   1 0.08442 0.44163 0.23783-0.25899 0.96762-0.85899
  -3   0  -2  590.53  228.78   1-0.15917-0.36637 0.91102-0.88992-0.38040 0.27167
   3   0   2  731.68  283.37   1 0.07360 0.45239 0.10133-0.12248 0.99212-0.88336
   3   0   314883.33 1102.16   1-0.00512 0.52906 0.19346-0.22520 0.98109-0.81814
  -3   0  -312432.81  912.55   1-0.10549-0.41820 0.90545-0.87383-0.41111 0.24801
   3   0   312972.15  966.22   1-0.00997 0.53374 0.15563-0.18736 0.98776-0.82462
   3   0   465473.91 2552.95   1-0.08995 0.61178 0.14958-0.19190 0.98464-0.76739
  -3   0  -462361.29 2407.05   1-0.05203-0.46950 0.89669-0.85453-0.43957 0.22210
   3   0   461736.04 2417.88   1-0.08318 0.60457 0.20139-0.24360 0.97597-0.75838
   3   0   5106247.6 2901.20   1-0.16807 0.68751 0.10785-0.16062 0.97985-0.70818
  -3   0  -5105659.6 2834.20   1-0.00001-0.51936 0.88499-0.83229-0.46559 0.19375
   3   0   5106638.7 2948.35   1-0.14507 0.66421 0.23968-0.29244 0.95995-0.68796
   3   0   681963.52 3155.72   1-0.23693 0.75423 0.06947-0.13279 0.96903-0.64303
  -3   0  -679879.80 3040.14   1 0.04944-0.56665 0.87098-0.80774-0.48881 0.16260
   3   0   687084.25 3375.04   1-0.19650 0.71338 0.27085-0.33416 0.94235-0.61596
   3   0   710521.29  820.40   1-0.29630 0.81146 0.03532-0.10919 0.95444-0.57410
  -3   0  -711835.72  878.65   1 0.09520-0.61026 0.85550-0.78172-0.50896 0.12839
   3   0   712278.19  990.85   1-0.23847 0.75309 0.29583-0.36970 0.92499-0.54421
   3   0   813279.68  815.95   1-0.34642 0.85937 0.00616-0.09045 0.93805-0.50328
  -3   0  -813393.61  768.68   1 0.13700-0.64977 0.83917-0.75464-0.52632 0.09114
   3   0   815584.60  931.87   1-0.27209 0.78469 0.31458-0.39893 0.90939-0.47444
   3   0   9  -52.19  228.80   1-0.38759 0.89841-0.01878-0.07604 0.92163-0.43251
  -3   0  -9   84.41  133.44   1 0.17246-0.68304 0.82372-0.72862-0.54013 0.05054
   3   0   9  675.78  279.25   1-0.29864 0.80902 0.32994-0.42484 0.89551-0.40619
   3   0  1010006.08  861.31   1-0.42083 0.92951-0.03935-0.06600 0.90628-0.36281
  -3   0 -10 9283.25  709.58   1 0.20151-0.70990 0.80991-0.70426-0.55084 0.00685
   3   0  1012573.75 1075.81   1-0.31907 0.82722 0.34164-0.44708 0.88400-0.34031
   3   0  1164346.02 2953.97   1-0.44707 0.95362-0.05587-0.06001 0.89275-0.29493
   3   0  1162346.87 2894.64   1-0.33427 0.84019 0.35028-0.46626 0.87496-0.27691
   3   0  1210775.24  823.41   1-0.46721 0.97164-0.06874-0.05768 0.88146-0.22930
   3   0  1210683.31  844.05   1-0.34497 0.84866 0.35632-0.48284 0.86834-0.21592
   3   0  13 6353.70  685.30   1-0.48206 0.98436-0.07833-0.05863 0.87262-0.16612
   3   0  13 8569.16  733.01   1-0.35179 0.85325 0.36015-0.49722 0.86401-0.15722
   3   0  14 3531.77  497.29   1-0.49229 0.99246-0.08499-0.06251 0.86626-0.10541
   3   0  14 4803.44  688.51   1-0.35521 0.85445 0.36207-0.50968 0.86181-0.10065
   3   1 -1229110.67 1626.26   1 0.82666-0.27754 0.48950-0.24147 0.27750-0.92986
  -3  -1  1230504.43 1660.21   1-0.78399 0.23506 0.59671-0.84439 0.17112 0.48139
  -3  -1  1230071.54 1530.77   1-0.82232 0.27317 0.55555-0.80339 0.12305 0.52908
   3   1 -1157100.67 3726.92   1 0.80510-0.25816 0.48976-0.25228 0.33457-0.93257
  -3  -1  1159513.13 3830.75   1-0.76591 0.21914 0.62654-0.86370 0.14426 0.45386
  -3  -1  1157840.42 3671.40   1-0.83237 0.28542 0.55161-0.78890 0.05359 0.54420
   3   1 -1032584.34 1663.28   1 0.77946-0.23470 0.48809-0.26116 0.39268-0.93632
  -3  -1  1029921.24 1540.41   1-0.74644 0.20181 0.65503-0.88167 0.11724 0.42651
  -3  -1  1030179.22 1445.85   1-0.83860 0.29384 0.54431-0.77107-0.02143 0.56488
   3   1  -953720.50 2750.25   1 0.74929-0.20671 0.48424-0.26785 0.45174-0.94102
  -3  -1   953065.43 2670.05   1-0.72558 0.18310 0.68221-0.89833 0.09005 0.39932
  -3  -1   948870.87 2382.74   1-0.83993 0.29737 0.53284-0.74905-0.10291 0.59201
   3   1  -8 4252.71  539.50   1 0.71418-0.17386 0.47757-0.27161 0.51171-0.94657
  -3  -1   8 1595.36  256.40   1-0.70333 0.16301 0.70808-0.91368 0.06270 0.37230
  -3  -1   8 3342.45  334.20   1-0.83479 0.29441 0.51617-0.72184-0.19151 0.62631
   3   1  -711960.15  808.85   1 0.67341-0.13527 0.46837-0.27298 0.57196-0.95245
  -3  -1   711809.72  850.35   1-0.67962 0.14151 0.73269-0.92782 0.03548 0.34513
  -3  -1   711792.79  714.02   1-0.82117 0.28298 0.49263-0.68776-0.28806 0.66850
   3   1  -644207.56 2008.60   1 0.62651-0.09057 0.45594-0.27112 0.63213-0.95827
  -3  -1   646125.92 2092.94   1-0.65464 0.11868 0.75589-0.94049 0.00783 0.31840
   3   1  -5105338.3 2939.55   1 0.57301-0.03925 0.43988-0.26563 0.69149-0.96327
  -3  -1   5101200.5 2829.42   1-0.62828 0.09446 0.77772-0.95179-0.01994 0.29181
   3   1  -5105176.6 2800.54   1 0.75685-0.22254-0.42226 0.59667 0.49885-0.77100
   3   1  -4159660.2 4309.91   1 0.51301 0.01859 0.41919-0.25557 0.74905-0.96660
  -3  -1   4149278.8 4016.81   1-0.60055 0.06888 0.79814-0.96169-0.04783 0.26533
   3   1  -4157561.3 4226.00   1 0.69966-0.16755-0.36749 0.53132 0.61270-0.83043
   3   1  -3109533.8 3017.05   1 0.44553 0.08391 0.39466-0.24158 0.80358-0.96674
  -3  -1   3105564.8 2887.89   1-0.57147 0.04194 0.81711-0.97013-0.07579 0.23891
   3   1  -3104025.4 2925.83   1 0.62187-0.09198-0.29964 0.45288 0.72351-0.88681
   3   1  -2 9234.95  734.81   1 0.37134 0.15593 0.36566-0.22314 0.85345-0.96223
  -3  -1   2 8810.45  696.68   1-0.54104 0.01365 0.83456-0.97705-0.10379 0.21253
   3   1  -2 9305.56 1087.47   1 0.52330 0.00430-0.21856 0.36106 0.82363-0.93253
   3   1  -1 9075.64  770.26   1 0.29128 0.23370 0.33229-0.20030 0.89706-0.95145
  -3  -1   1 9101.09  737.88   1-0.50936-0.01577 0.85040-0.98239-0.13175 0.18614
   3   1  -1 8711.39 1008.81   1 0.40863 0.11679-0.13109 0.26307 0.90323-0.95767
   3   1   015780.77  971.17   1 0.20700 0.31585 0.29513-0.17375 0.93276-0.93276
  -3  -1   015865.43  919.96   1-0.47635-0.04663 0.86463-0.98607-0.15965 0.15965
   3   1   015064.84 1213.76   1 0.28539 0.23755-0.04225 0.16371 0.95747-0.95747
   3   1   138151.97 1675.97   1 0.12064 0.40012 0.25520-0.14439 0.95932-0.90501
  -3  -1  -140386.17 1748.89   1-0.44223-0.07860 0.87711-0.98800-0.18732 0.13293
   3   1   138378.07 1636.25   1 0.16334 0.35750 0.04135 0.06949 0.98570-0.93132
   3   1   2264470.4 6924.26   1 0.03465 0.48400 0.21342-0.11319 0.97634-0.86771
  -3  -1  -2283245.0 7374.26   1-0.40716-0.11152 0.88777-0.98810-0.21462 0.10584
   3   1   2264277.8 6873.15   1 0.04978 0.46883 0.11695-0.01667 0.99188-0.88312
   3   1   3129996.0 3515.10   1-0.04839 0.56493 0.17131-0.08165 0.98402-0.82108
  -3  -1  -3140178.6 3715.06   1-0.37143-0.14510 0.89654-0.98632-0.24133 0.07816
   3   1   3126755.7 3385.10   1-0.05018 0.56644 0.18064-0.09084 0.98226-0.81907
   3   1   426661.44 1219.48   1-0.12665 0.64078 0.13034-0.05115 0.98334-0.76601
  -3  -1  -428622.98 1248.89   1-0.33484-0.17912 0.90343-0.98254-0.26773 0.05028
   3   1   424778.09 1061.13   1 0.47701 0.03709 0.62038-0.54115-0.62256 0.84010
   3   1   426752.36 1225.34   1-0.13448 0.64848 0.23318-0.15393 0.96308-0.74549
   3   1   5 2546.36  301.58   1-0.19748 0.70948 0.09162-0.02299 0.97601-0.70434
  -3  -1  -5 3118.98  281.08   1-0.29900-0.21279 0.90832-0.97687-0.29247 0.02066
   3   1   5 3222.30  403.07   1-0.20356 0.71530 0.27508-0.20638 0.93962-0.66763
   3   1   628534.71 1342.08   1-0.26024 0.77011 0.05618 0.00188 0.96390-0.63790
  -3  -1  -623195.11 1092.14   1-0.71883 0.20853-0.32189 0.26335 0.61616-0.94189
  -3  -1  -631250.82 1339.69   1-0.26425-0.24538 0.91136-0.96936-0.31557-0.01060
   3   1   629139.34 1333.80   1-0.25867 0.76836 0.30674-0.24861 0.91596-0.58975
   3   1   720609.95 1043.53   1-0.31457 0.82231 0.02460 0.02291 0.94891-0.56857
  -3  -1  -716363.24  960.79   1-0.81277 0.30543-0.12593 0.07805 0.56880-0.94900
  -3  -1  -722415.09  982.92   1-0.23170-0.27577 0.91275-0.96021-0.33644-0.04409
   3   1   721839.31 1077.97   1-0.30250 0.80995 0.33216-0.28457 0.89339-0.51281
   3   1   839689.59 1808.61   1-0.36083 0.86635-0.00250 0.03959 0.93262-0.49785
  -3  -1  -843210.17 1834.70   1-0.20287-0.30243 0.91284-0.94975-0.35433-0.08057
   3   1   841110.75 1895.28   1-0.33660 0.84183 0.35160-0.31455 0.87354-0.43859
   3   1   949407.00 2204.70   1-0.39914 0.90253-0.02589 0.05245 0.91652-0.42740
  -3  -1  -950408.23 2119.31   1-0.17991-0.32323 0.91218-0.93854-0.36818-0.12108
   3   1   951775.40 2319.88   1-0.36269 0.86570 0.36625-0.33975 0.85691-0.36759
   3   1  1011328.72  944.27   1-0.43043 0.93169-0.04537 0.06139 0.90148-0.35801
   3   1  1011942.38  974.78   1-0.38218 0.88295 0.37707-0.36111 0.84365-0.29996
   3   1  11 8707.09  576.67   1-0.45546 0.95459-0.06122 0.06671 0.88814-0.29033
   3   1  11 7364.11  511.57   1-0.39620 0.89474 0.38478-0.37937 0.83364-0.23559
   3   1  12  737.18  307.71   1-0.47499 0.97199-0.07375 0.06870 0.87689-0.22473
   3   1  12 1185.27  368.62   1-0.40565 0.90196 0.38994-0.39508 0.82667-0.17424
   3   1  13 6277.18  637.52   1-0.48969 0.98456-0.08329 0.06771 0.86790-0.16139
   3   1  13 4883.21  550.99   1-0.41123 0.90532 0.39298-0.40866 0.82246-0.11566
   3   1  1414209.86  924.64   1-0.50014 0.99288-0.09013 0.06401 0.86123-0.10038
   3   1  1415923.71 1129.25   1-0.41350 0.90536 0.39421-0.42043 0.82073-0.05957
   3   2 -11  870.42  338.28   1 0.79428-0.25481 0.48927-0.13035 0.36015-0.95816
  -3  -2  11 1267.66  506.69   1-0.81806 0.27934 0.52768-0.88640 0.22872 0.36911
   3   2 -1022843.33 1641.84   1 0.76605-0.22876 0.48659-0.13822 0.41997-0.96361
  -3  -2  1023614.77 1671.44   1-0.80611 0.26885 0.55434-0.90242 0.20708 0.33667
   3   2  -956251.28 2615.91   1 0.73307-0.19796 0.48153-0.14370 0.48034-0.96961
  -3  -2   956706.51 2631.57   1-0.79339 0.25828 0.57961-0.91717 0.18593 0.30345
  -3  -2   951064.20 2263.09   1-0.81894 0.28364 0.55614-0.89371 0.14150 0.34760
   3   2  -841778.02 2184.41   1 0.69506-0.16224 0.47347-0.14610 0.54101-0.97587
  -3  -2   842619.16 2191.99   1-0.78001 0.24706 0.60359-0.93063 0.16504 0.26995
   3   2  -787924.41 4274.11   1 0.65129-0.12066 0.46273-0.14593 0.60141-0.98190
  -3  -2   788024.75 4280.67   1-0.76608 0.23527 0.62628-0.94280 0.14449 0.23613
  -3  -2   777339.66 2955.52   1-0.83882 0.30790 0.54378-0.86026-0.02595 0.40637
   3   2  -669595.22 2790.97   1 0.60152-0.07307 0.44866-0.14243 0.66096-0.98710
  -3  -2   663383.86 2563.93   1-0.75169 0.22304 0.64767-0.95367 0.12436 0.20189
  -3  -2   661473.12 2355.84   1-0.83908 0.31035 0.52838-0.83438-0.12941 0.45550
   3   2  -5 7469.72  586.52   1 0.54601-0.01969 0.43045-0.13485 0.71873-0.99066
  -3  -2   5 6747.81  535.69   1-0.73700 0.21050 0.66772-0.96319 0.10473 0.16714
  -3  -2   5 7692.58  473.06   1-0.82751 0.30098 0.50247-0.79793-0.25047 0.52221
   3   2  -4 2351.89  370.67   1 0.48366 0.04049 0.40875-0.12370 0.77394-0.99149
  -3  -2   4 2391.39  410.60   1-0.72216 0.19780 0.68638-0.97134 0.08575 0.13175
  -3  -2   4 1779.35  205.06   1-0.09447-0.43018 0.20843-0.49355 0.97346-0.75587
   3   2  -3148666.0 4017.43   1 0.41517 0.10681 0.38303-0.10852 0.82517-0.98833
  -3  -2   3131025.7 3551.47   1-0.70736 0.18516 0.70360-0.97804 0.06754 0.09557
   3   2  -3132888.5 3457.40   1 0.73992-0.21741-0.40541 0.68014 0.53680-0.70009
  -3  -2   3125109.3 3267.67   1-0.21485-0.30754 0.28182-0.55639 0.93509-0.77190
   3   2  -298604.26 3786.90   1 0.34112 0.17853 0.35328-0.08931 0.87110-0.97987
  -3  -2   2101833.1 2805.18   1-0.69283 0.17283 0.71930-0.98323 0.05069 0.05804
   3   2  -2104094.3 2760.17   1 0.64611-0.12582-0.32021 0.58436 0.69281-0.80167
  -3  -2   295187.46 3557.57   1-0.33236-0.18777 0.34920-0.61307 0.87612-0.76738
   3   2  -1144741.8 3902.10   1 0.26268 0.25484 0.31990-0.06654 0.91030-0.96469
  -3  -2   1139089.4 3739.29   1-0.67897 0.16112 0.73333-0.98673 0.03474 0.01962
   3   2  -1137133.7 3608.73   1 0.51486 0.00325-0.21195 0.46538 0.83065-0.88510
  -3  -2   1127578.2 3334.81   1-0.43941-0.07849 0.40817-0.66150 0.80019-0.74582
   3   2   0117069.5 3202.52   1 0.18135 0.33402 0.28344-0.04068 0.94168-0.94168
  -3  -2   0112284.9 3052.68   1-0.66615 0.15044 0.74553-0.98840 0.02040-0.02040
   3   2   0109003.3 2878.73   1 0.36021 0.15537-0.09592 0.33884 0.92792-0.92792
  -3  -2   097061.55 3631.72   1-0.52781 0.01243 0.45267-0.69523 0.71867-0.71867
   3   2   114264.96 1082.92   1 0.09922 0.41413 0.24497-0.01277 0.96443-0.91012
  -3  -2  -113639.75 1004.91   1-0.65495 0.14138 0.75562-0.98797 0.00816-0.06254
   3   2   115530.35 1237.24   1 0.20081 0.31258 0.01668 0.21570 0.97948-0.92507
  -3  -2  -112475.76  892.23   1-0.59924 0.08604 0.48692-0.71889 0.63546-0.68977
   3   2   2 5092.65  567.22   1 0.01830 0.49294 0.20526 0.01635 0.97853-0.86990
  -3  -2  -2 4935.81  484.06   1-0.64614 0.13472 0.76321-0.98503-0.00126-0.10747
   3   2   2 4382.22  365.52   1 0.05499 0.45625 0.11355 0.10816 0.99200-0.88324
  -3  -2  -2 3462.38  321.21   1-0.65490 0.14404 0.51131-0.73272 0.55647-0.66510
   3   2   314359.87 1097.76   1-0.05932 0.56845 0.16563 0.04540 0.98440-0.82145
  -3  -2  -312190.66  897.20   1-0.64088 0.13160 0.76760-0.97890-0.00683-0.15628
   3   2   311045.45  788.48   1 0.14890 0.36010 0.83415-0.62317-0.53104 0.69424
   3   2   312217.32  895.14   1-0.06947 0.57834 0.19280 0.01845 0.97877-0.81558
   3   2   441210.03 1862.40   1-0.13234 0.63905 0.12727 0.07330 0.98299-0.76566
  -3  -2  -437475.16 1592.47   1-0.64091 0.13377 0.76758-0.96835-0.00680-0.21068
   3   2   436012.82 1502.38   1 0.28638 0.22043 0.76345-0.56304-0.57889 0.79648
   3   2   438528.30 1664.24   1-0.17002 0.67663 0.25487-0.05417 0.95190-0.73431
   3   2   550970.89 2213.73   1-0.19850 0.70307 0.09105 0.09897 0.97586-0.70419
  -3  -2  -551143.71 2127.21   1-0.64910 0.14411 0.76069-0.95094 0.00188-0.27375
   3   2   549490.49 2035.22   1 0.45337 0.05112 0.64133-0.45129-0.61897 0.89090
   3   2   551466.94 2202.32   1-0.24810 0.75264 0.30054-0.11047 0.92093-0.64908
   3   2   6122386.5 3352.61   1-0.25745 0.75989 0.05778 0.12168 0.96456-0.63855
  -3  -2  -6107217.5 2783.58   1-0.63982 0.13730-0.44132 0.26166 0.62916-0.95534
  -3  -2  -6123093.4 3215.72   1-0.67089 0.16805 0.74110-0.92082 0.02566-0.35190
   3   2   6127837.3 3460.44   1-0.30875 0.81107 0.33575-0.15622 0.88991-0.56369
   3   2   7115607.2 4469.33   1-0.30891 0.80921 0.02793 0.14098 0.95067-0.57034
  -3  -2  -7110302.6 4126.59   1-0.71922 0.21853 0.68991-0.85915 0.08207-0.46271
   3   2   7124477.2 4780.31   1-0.35489 0.85498 0.36189-0.19291 0.86202-0.48144
   3   2   827214.82 1361.68   1-0.35324 0.85134 0.00207 0.15641 0.93552-0.50075
   3   2   828642.41 1406.28   1-0.38962 0.88748 0.38117-0.22273 0.83839-0.40344
   3   2   9 2327.77  410.40   1-0.39037 0.88634-0.02049 0.16844 0.92042-0.43130
   3   2   9 2800.12  399.54   1-0.41537 0.91100 0.39523-0.24734 0.81929-0.32998
   3   2  10 8111.11  789.93   1-0.42112 0.91496-0.03954 0.17695 0.90613-0.36267
   3   2  10 7581.18  766.81   1-0.43403 0.92743 0.40529-0.26794 0.80458-0.26089
   3   2  1112481.02  615.34   1-0.44612 0.93783-0.05528 0.18215 0.89325-0.29544
   3   2  1116448.77  974.64   1-0.44701 0.93818 0.41221-0.28541 0.79388-0.19583
   3   2  1215560.48 1085.10   1-0.46600 0.95557-0.06796 0.18430 0.88216-0.23000
   3   2  1224815.44 1783.00   1-0.45509 0.94423 0.41543-0.29991 0.78759-0.13588
   3   2  1311609.46  935.95   1-0.48133 0.96877-0.07785 0.18366 0.87307-0.16656
   3   2  1313914.76 1043.09   1-0.45964 0.94660 0.41782-0.31289 0.78367-0.07765
   3   2  14 2311.57  433.26   1-0.49262 0.97793-0.08520 0.18047 0.86606-0.10520
   3   2  14 2922.73  499.51   1-0.46096 0.94573 0.41851-0.32417 0.78253-0.02220
   3   3 -1047353.18 2378.25   1 0.76140-0.23157 0.48599-0.01617 0.42904-0.97268
  -3  -3  1047888.49 2368.61   1-0.84744 0.31827 0.44412-0.91371 0.29084 0.25264
   3   3  -926975.41 1844.29   1 0.72710-0.19945 0.48043-0.02117 0.49040-0.97967
  -3  -3   926642.53 1824.09   1-0.84086 0.31383 0.46602-0.92507 0.27525 0.21388
   3   3  -8 2875.79  384.18   1 0.68785-0.16252 0.47182-0.02305 0.55157-0.98643
  -3  -3   8 2484.60  359.51   1-0.83406 0.30916 0.48636-0.93487 0.26035 0.17444
   3   3  -721374.62 1141.60   1 0.64291-0.11978 0.46049-0.02228 0.61205-0.99254
  -3  -3   721308.21 1156.01   1-0.82720 0.30442 0.50506-0.94303 0.24626 0.13417
   3   3  -669991.66 3431.37   1 0.59225-0.07131 0.44586-0.01823 0.67114-0.99728
  -3  -3   670645.56 3481.02   1-0.82043 0.29979 0.52202-0.94946 0.23316 0.09293
   3   3  -5124054.5 4795.13   1 0.53638-0.01751 0.42722-0.01018 0.72785-0.99979
  -3  -3   5119877.6 4643.88   1-0.81397 0.29546 0.53711-0.95401 0.22123 0.05051
   3   3  -422852.84 1192.48   1 0.47423 0.04246 0.40532 0.00116 0.78154-0.99909
  -3  -3   423498.08 1175.16   1-0.80803 0.29104 0.55028-0.95668 0.21040 0.00709
  -3  -3   3 1957.32  113.88   1-0.82084 0.30595 0.55584-0.95151 0.13135 0.03168
   3   3  -2142281.2 5441.02   1 0.33459 0.17759 0.35058 0.03477 0.87472-0.98348
  -3  -3   2128842.7 4936.26   1-0.79895 0.28626 0.56890-0.95425 0.19500-0.08624
   3   3  -112304.74  959.90   1 0.25897 0.25108 0.31828 0.05645 0.91193-0.96631
  -3  -3   112264.19  973.56   1-0.79655 0.28602 0.57358-0.94842 0.19105-0.13667
   3   3  -111978.30  816.78   1 0.76158-0.25088-0.42709 0.80215 0.48741-0.54184
  -3  -3   112340.11  848.14   1-0.76136 0.25103 0.54872-0.92321 0.34527-0.29094
   3   3   067241.19 2661.85   1 0.18130 0.32661 0.28341 0.08072 0.94170-0.94170
  -3  -3   062618.15 2454.96   1-0.79622 0.28784 0.57421-0.93853 0.19051-0.19051
   3   3   061276.81 2289.02   1 0.56537-0.05674-0.25202 0.61639 0.78539-0.78539
  -3  -3   058228.03 2181.37   1-0.78050 0.27234 0.55306-0.91700 0.29144-0.29144
   3   3   1121059.6 3340.73   1 0.10341 0.40254 0.24698 0.10661 0.96348-0.90917
  -3  -3  -1113531.5 3085.09   1-0.79861 0.29238 0.56956-0.92336 0.19444-0.24881
   3   3   1107548.0 2821.94   1 0.33057 0.17546-0.07447 0.42832 0.94083-0.88642
  -3  -3  -1106978.9 2799.09   1-0.79374 0.28776 0.55519-0.90857 0.24845-0.30278
   3   3   294371.60 3667.21   1 0.02697 0.47687 0.20959 0.13341 0.97741-0.86878
  -3  -3  -284141.05 3216.25   1-0.80451 0.30043 0.55766-0.90094 0.20434-0.31309
   3   3   284981.64 3181.16   1 0.11761 0.38626 0.07213 0.27101 0.99043-0.88167
  -3  -3  -275477.21 2842.10   1-0.80405 0.30025 0.55614-0.89896 0.21025-0.31892
   3   3   365906.46 2601.62   1-0.04631 0.54804 0.17238 0.16004 0.98394-0.82099
  -3  -3  -361462.97 2374.09   1-0.81487 0.31340 0.53507-0.86766 0.22286-0.38591
   3   3   359432.30 2257.00   1-0.05278 0.55426 0.18228 0.15042 0.98182-0.81863
  -3  -3  -356392.55 2156.61   1-0.81249 0.31087 0.55623-0.88849 0.17452-0.33752
   3   3   424040.71 1190.90   1-0.11546 0.61473 0.13633 0.18564 0.98391-0.76657
  -3  -3  -425558.60 1120.09   1-0.83079 0.33145 0.49548-0.81753 0.25352-0.47092
   3   3   423017.97  986.85   1 0.05472 0.44487 0.86932-0.54760-0.49120 0.70867
   3   3   425575.28 1132.35   1-0.18101 0.68023 0.26152 0.06062 0.94807-0.73048
   3   3   5  304.60  290.92   1-0.17844 0.67558 0.10216 0.20926 0.97863-0.70696
  -3  -3  -5   35.49   73.79   1-0.85275 0.35554 0.42435-0.73586 0.30452-0.57626
   3   3   5  121.15   84.11   1 0.22879 0.26849 0.79599-0.48481-0.56039 0.83238
   3   3   5  297.74  207.56   1-0.27402 0.77119 0.31570-0.00424 0.90842-0.63658
   3   3   623038.31 1194.07   1-0.23503 0.73004 0.07055 0.23031 0.96942-0.64341
  -3  -3  -619543.79  839.61   1-0.87575 0.38087 0.27928-0.58032 0.39377-0.71982
   3   3   622918.60 1096.74   1-0.34266 0.83761 0.35502-0.05410 0.86979-0.54357
   3   3   7 3692.82  389.54   1-0.28497 0.77784 0.04192 0.24839 0.95761-0.57727
   3   3   7 5226.34  453.83   1-0.39262 0.88534 0.38282-0.09245 0.83623-0.45565
   3   3   832541.56 1574.42   1-0.32857 0.81924 0.01681 0.26305 0.94432-0.50955
   3   3   833755.50 1606.33   1-0.42888 0.91936 0.40252-0.12269 0.80872-0.37377
   3   3   977718.97 3810.13   1-0.36556 0.85410-0.00536 0.27469 0.93077-0.44165
   3   3   978404.89 3826.16   1-0.45446 0.94282 0.41510-0.14654 0.78813-0.29934
   3   3  1010958.44 1063.23   1-0.39666 0.88307-0.02435 0.28315 0.91764-0.37417
   3   3  1010001.86  878.71   1-0.47288 0.95905 0.42473-0.16676 0.77199-0.22890
   3   3  11 5703.05  656.16   1-0.42238 0.90666-0.04032 0.28858 0.90551-0.30770
   3   3  11 7466.73  595.17   1-0.48533 0.96931 0.43117-0.18379 0.76061-0.16321
   3   3  12 5158.39  566.37   1-0.44323 0.92538-0.05344 0.29117 0.89480-0.24264
   3   3  12 4266.23  533.17   1-0.49304 0.97484 0.43513-0.19834 0.75336-0.10165
   3   3  13 8114.55  821.33   1-0.45972 0.93974-0.06394 0.29113 0.88575-0.17924
   3   3  13 9540.35  751.66   1-0.49691 0.97653 0.43711-0.21090 0.74966-0.04364
   3   4  -928198.82 1463.45   1 0.73146-0.21127 0.48124 0.09946 0.48307-0.97235
  -3  -4   933718.41 1753.39   1-0.86816 0.34854 0.34714-0.92759 0.35466 0.13447
   3   4  -858785.47 2841.47   1 0.69238-0.17456 0.47287 0.09730 0.54497-0.97982
  -3  -4   864829.54 3127.39   1-0.86562 0.34813 0.36318-0.93309 0.34466 0.09013
   3   4  -779960.79 5072.07   1 0.64779-0.13216 0.46180 0.09780 0.60589-0.98639
  -3  -4   784132.27 5349.30   1-0.86314 0.34778 0.37713-0.93650 0.33578 0.04465
   3   4  -625782.21 1375.91   1 0.59777-0.08433 0.44754 0.10149 0.66511-0.99125
  -3  -4   624676.64 1306.90   1-0.86087 0.34764 0.38878-0.93762 0.32825-0.00215
   3   4  -5 5535.31  468.79   1 0.54301-0.03160 0.42945 0.10901 0.72159-0.99353
  -3  -4   5 7446.45  660.69   1-0.85896 0.34787 0.39787-0.93617 0.32229-0.05054
   3   4  -410501.12  866.06   1 0.48247 0.02676 0.40832 0.11959 0.77491-0.99246
  -3  -4   411292.98  979.11   1-0.85760 0.34864 0.40405-0.93181 0.31819-0.10080
   3   4  -377402.08 3784.84   1 0.41719 0.08988 0.38381 0.13356 0.82379-0.98695
  -3  -4   372455.75 3543.20   1-0.85697 0.35014 0.40684-0.92406 0.31634-0.15329
   3   4  -270940.82 2836.95   1 0.34787 0.15685 0.35607 0.15066 0.86729-0.97606
  -3  -4   269724.34 2787.07   1-0.85726 0.35255 0.40558-0.91227 0.31718-0.20848
   3   4  -147807.48 2159.05   1 0.27562 0.22696 0.32554 0.17058 0.90446-0.95884
  -3  -4   145029.12 2020.09   1-0.85864 0.35607 0.39936-0.89551 0.32130-0.26695
   3   4   066223.14 2649.90   1 0.20173 0.29872 0.29274 0.19277 0.93466-0.93466
  -3  -4   065565.82 2600.69   1-0.86125 0.36081 0.38688-0.87249 0.32948-0.32948
   3   4   111955.16  795.83   1 0.12781 0.37074 0.25860 0.21638 0.95749-0.90317
  -3  -4  -1 9342.41  648.83   1-0.86510 0.36679 0.36622-0.84129 0.34273-0.39708
   3   4   2 4424.21  515.73   1 0.05522 0.44121 0.22359 0.24081 0.97311-0.86448
  -3  -4  -2 3307.13  334.46   1-0.86993 0.37375 0.33440-0.79894 0.36246-0.47116
   3   4   2 3083.37  235.51   1 0.37871 0.11777-0.10943 0.57420 0.91902-0.81019
   3   4   315364.42  884.86   1-0.01455 0.50887 0.18867 0.26514 0.98193-0.81898
  -3  -4  -315163.75 1206.33   1-0.87518 0.38128 0.28759-0.74152 0.38902-0.55205
   3   4   315472.66  685.47   1 0.04487 0.44940 0.12016 0.33384 0.99173-0.82860
   3   4   4116521.1 4501.73   1-0.08029 0.57250 0.15467 0.28857 0.98469-0.76743
  -3  -4  -4103602.0 3927.03   1-0.87744 0.38570 0.21529-0.65871 0.42863-0.64600
   3   4   4109335.0 4120.20   1-0.14796 0.63979 0.24144 0.20216 0.95906-0.74147
   3   4   538749.18 1791.48   1-0.14157 0.63128 0.12229 0.31052 0.98234-0.71067
  -3  -4  -533338.97 1443.94   1-0.86916 0.37956 0.10047-0.53339 0.48421-0.75592
   3   4   534348.89 1501.11   1-0.27082 0.76062 0.31384 0.11901 0.91002-0.63818
   3   4   632496.78 1579.25   1-0.19674 0.68431 0.09203 0.33023 0.97612-0.65012
   3   4   631169.71 1404.91   1-0.35436 0.84193 0.36159 0.06071 0.86236-0.53615
   3   4   7 6825.59  649.02   1-0.24599 0.73143 0.06433 0.34738 0.96713-0.58679
   3   4   7 7545.26  653.17   1-0.41172 0.89706 0.39325 0.01851 0.82209-0.44151
   3   4   8 8030.02  821.23   1-0.28929 0.77259 0.03941 0.36174 0.95642-0.52175
   3   4   8 6542.72  624.66   1-0.45096 0.93415 0.41325-0.01283 0.79110-0.35663
   3   4   9 4844.84  495.45   1-0.32708 0.80819 0.01769 0.37302 0.94482-0.45570
   3   4   9 5145.97  423.05   1-0.47888 0.95989 0.42784-0.03801 0.76656-0.27778
   3   4  10 8326.79  621.58   1-0.35910 0.83808-0.00145 0.38164 0.93329-0.38982
   3   4  1010011.77  553.72   1-0.49809 0.97692 0.43771-0.05846 0.74853-0.20544
   3   4  1112650.85  917.91   1-0.38603 0.86288-0.01782 0.38747 0.92231-0.32449
   3   4  1113490.06  987.24   1-0.51082 0.98745 0.44416-0.07550 0.73605-0.13865
   3   4  12 6538.96  795.52   1-0.40829 0.88301-0.03154 0.39066 0.91230-0.26014
   3   4  12 5963.78  612.04   1-0.51854 0.99299 0.44805-0.08997 0.72825-0.07654
   3   4  1313614.08  922.02   1-0.42630 0.89889-0.04277 0.39135 0.90356-0.19706
   3   4  1314307.00 1043.99   1-0.52230 0.99456 0.44993-0.10244 0.72440-0.01838
   3   5  -615182.80  975.57   1 0.61673-0.11079 0.45315 0.21729 0.64365-0.96979
  -3  -5   612239.97 1806.26   1-0.87694 0.37112 0.25517-0.92502 0.40725-0.08119
   3   5  -585643.00 3863.72   1 0.56346-0.05971 0.43684 0.22303 0.70119-0.97297
  -3  -5   583716.73 3988.82   1-0.87681 0.37314 0.25876-0.91811 0.40526-0.13355
   3   5  -467157.64 4284.24   1 0.50618-0.00439 0.41680 0.23255 0.75502-0.97257
  -3  -5   462547.54 4073.90   1-0.87680 0.37528 0.25883-0.90767 0.40523-0.18786
   3   5  -329488.33 1959.50   1 0.44386 0.05575 0.39403 0.24478 0.80481-0.96797
  -3  -5   331354.67 2107.86   1-0.87695 0.37759 0.25479-0.89312 0.40745-0.24442
   3   5  -2   60.21  236.70   1 0.37792 0.11953 0.36831 0.25994 0.84941-0.95819
  -3  -5   2  316.80  127.14   1-0.87722 0.38000 0.24590-0.87372 0.41232-0.30363
   3   5  -1  878.44  245.38   1 0.30921 0.18590 0.33993 0.27757 0.88816-0.94254
  -3  -5   1  485.05  195.37   1-0.87746 0.38239 0.23112-0.84844 0.42027-0.36593
   3   5   034702.20 1658.63   1 0.23904 0.25394 0.30949 0.29740 0.92036-0.92036
  -3  -5   034921.89 1672.41   1-0.87736 0.38445 0.20908-0.81589 0.43186-0.43186
   3   5   150912.50 2555.51   1 0.16864 0.32221 0.27757 0.31871 0.94578-0.89140
  -3  -5  -148709.16 2473.04   1-0.87630 0.38553 0.17782-0.77412 0.44773-0.50207
   3   5   267691.89 3343.23   1 0.09957 0.38945 0.24514 0.34065 0.96435-0.85573
  -3  -5  -261853.57 3034.85   1-0.87308 0.38447 0.13454-0.72033 0.46863-0.57731
   3   5   316107.04  941.48   1 0.03269 0.45422 0.21244 0.36277 0.97662-0.81368
  -3  -5  -315008.97 1260.49   1-0.86567 0.37956 0.07546-0.65053 0.49488-0.65782
   3   5   416529.03  918.11   1-0.03077 0.51557 0.18039 0.38425 0.98311-0.76585
  -3  -5  -410914.00 1565.67   1-0.84905 0.36509-0.00697-0.55760 0.52825-0.74550
   3   5   5  968.39  416.98   1-0.08995 0.57264 0.14958 0.40447 0.98464-0.71307
   3   5   612335.00  676.06   1-0.14477 0.62492 0.12055 0.42310 0.98209-0.65608
   3   5   712027.46  598.22   1-0.19385 0.67186 0.09364 0.43946 0.97655-0.59621
   3   5   712817.96  479.89   1-0.40534 0.88331 0.38978 0.14338 0.82690-0.44632
   3   5   817243.34 1203.21   1-0.23755 0.71343 0.06912 0.45343 0.96891-0.53423
   3   5   818253.29 1134.65   1-0.45278 0.92863 0.41421 0.10747 0.78956-0.35508
   3   5   914714.52 1019.06   1-0.27596 0.74970 0.04714 0.46486 0.96001-0.47100
   3   5   914762.34  981.72   1-0.48536 0.95902 0.43119 0.07991 0.76058-0.27180
   3   5  1017744.84 1124.04   1-0.30926 0.78086 0.02773 0.47371 0.95057-0.40723
   3   5  1019986.00 1163.15   1-0.50731 0.97878 0.44239 0.05812 0.73953-0.19644
   3   5  11  372.99  348.50   1-0.33800 0.80742 0.01120 0.47982 0.94107-0.34326
   3   5  11    9.93  270.55   1-0.52171 0.99100 0.44963 0.04029 0.72500-0.12760
   3   6  -329969.98 1510.21   1 0.48465 0.00751 0.40911 0.35113 0.77313-0.93629
  -3  -6   322861.44 2781.58   1-0.87038 0.37844 0.10998-0.86968 0.47993-0.31690
   3   6  -242854.07 2085.47   1 0.42236 0.06763 0.38582 0.36388 0.82021-0.92898
  -3  -6   246684.28 2331.54   1-0.86872 0.37935 0.09601-0.84484 0.48589-0.37726
   3   6  -122758.88 1234.30   1 0.35734 0.13031 0.35995 0.37893 0.86182-0.91620
  -3  -6   119514.97 2800.52   1-0.86572 0.37849 0.07575-0.81409 0.49475-0.44044
   3   6   012313.77  869.70   1 0.29082 0.19469 0.33209 0.39618 0.89729-0.89729
  -3  -6   010142.14 1343.88   1-0.86095 0.37586 0.04823-0.77607 0.50638-0.50638
   3   6   116128.61 1144.68   1 0.22384 0.25954 0.30272 0.41495 0.92642-0.87203
  -3  -6  -112505.73 1979.31   1-0.85346 0.37051 0.01182-0.72918 0.52102-0.57533
   3   6   2 3191.12  401.78   1 0.15755 0.32370 0.27243 0.43463 0.94918-0.84042
  -3  -6  -2 2298.53  368.97   1-0.84165 0.36085-0.03562-0.67124 0.53884-0.64746
   3   6   311147.11  863.73   1 0.09343 0.38607 0.24218 0.45442 0.96571-0.80277
   3   6   412614.66  932.58   1 0.03185 0.44553 0.21203 0.47400 0.97674-0.75948
   3   6   533561.10 1728.98   1-0.02612 0.50140 0.18277 0.49268 0.98280-0.71123
   3   6   616479.17  984.65   1-0.07989 0.55306 0.15488 0.50999 0.98469-0.65880
   3   6   7 6767.45  787.58   1-0.12957 0.60015 0.12876 0.52574 0.98317-0.60283
   3   6   8   10.98  269.91   1-0.17393 0.64238 0.10464 0.53931 0.97918-0.54450
  -4   4   6 9538.46  803.18   1-0.20381-0.54465 0.91286-0.49096-0.35375 0.67993
   4  -4  -6 7460.60 1256.63   1 0.66540 0.08495-0.33691-0.08554 0.66612-0.99270
  -4   4   511557.45  871.51   1-0.15871-0.58759 0.91098-0.47854-0.38066 0.65248
   4  -4  -510518.60 1459.72   1 0.63055 0.11759-0.30695-0.12609 0.71287-0.98502
  -4   4   426073.58 1462.53   1-0.11448-0.62965 0.90676-0.46376-0.40580 0.62325
   4  -4  -419926.59 2598.52   1 0.59329 0.15264-0.27591-0.16771 0.75622-0.97394
  -4   4   3 1031.44  630.83   1-0.07207-0.67055 0.90037-0.44681-0.42910 0.59221
   4  -4  -3  678.76  165.32   1 0.55454 0.18866-0.24332-0.21092 0.79578-0.95912
  -4   4   2 1915.02  420.07   1-0.03058-0.70988 0.89225-0.42815-0.45050 0.55923
   4  -4  -2 1292.00  255.00   1 0.51395 0.22707-0.21123-0.25354 0.83140-0.94029
  -4   4   1 1994.27  460.43   1 0.00909-0.74739 0.88263-0.40799-0.46997 0.52434
   4  -4  -1 1039.74  273.31   1 0.47257 0.26627-0.17926-0.29603 0.86286-0.91731
  -4   4   0 8142.41  786.71   1 0.04665-0.78280 0.87185-0.38667-0.48754 0.48754
   4  -4   0 6708.48  810.92   1 0.43104 0.30562-0.14782-0.33800 0.89013-0.89013
  -4   4  -1 9572.97  713.64   1 0.08187-0.81585 0.86026-0.36455-0.50322 0.44886
   4  -4   110773.29 1699.53   1 0.38999 0.34450-0.11731-0.37903 0.91331-0.85886
  -4   4  -2 9294.91  776.48   1 0.11444-0.84644 0.84821-0.34174-0.51713 0.40833
   4  -4   2 8969.98 1435.65   1 0.34981 0.38230-0.08837-0.41853 0.93264-0.82381
  -4   4  -3 3542.63  454.86   1 0.14437-0.87418 0.83608-0.31904-0.52926 0.36606
   4  -4   3 5060.42  844.57   1 0.31145 0.41847-0.06077-0.45665 0.94831-0.78507
   4  -3  -8 8652.53  763.74   1 0.85065-0.10390 0.48668-0.76652 0.19881-0.63375
  -4   3   8 9303.70  790.13   1-0.36066-0.38560 0.89879-0.61890-0.24918 0.68429
   4  -3  -8 8672.94  994.67   1 0.72974 0.01764-0.39557 0.11576 0.55767-0.99311
   4  -3  -7 3764.40  580.06   1 0.83900-0.09441 0.48876-0.77913 0.23913-0.61970
  -4   3   7 4766.52  600.69   1-0.31589-0.42749 0.90624-0.61619-0.28093 0.66147
   4  -3  -7 4882.27  687.18   1 0.69830 0.04687-0.36625 0.07586 0.61500-0.99601
   4  -3  -6 1309.54  391.35   1 0.82561-0.08292 0.48956-0.79059 0.28051-0.60670
  -4   3   6 1206.51  351.94   1-0.27088-0.47034 0.91090-0.61030-0.31123 0.63741
   4  -3  -6 1432.90  299.09   1 0.66295 0.08001-0.33477 0.03380 0.66963-0.99622
   4  -3  -5 2338.10  339.99   1 0.81007-0.06957 0.48986-0.80144 0.32219-0.59401
  -4   3   5  881.05  376.12   1-0.22579-0.51326 0.91285-0.60171-0.34015 0.61196
   4  -3  -5 1778.51  354.43   1 0.62399 0.11676-0.30142-0.01013 0.72095-0.99310
   4  -3  -4 1879.58  348.17   1 0.79228-0.05396 0.48915-0.81127 0.36470-0.58216
  -4   3   4 1763.40  392.11   1-0.18097-0.55592 0.91222-0.59052-0.36755 0.58500
   4  -3  -4 2031.55  303.26   1 0.58186 0.15668-0.26656-0.05557 0.76836-0.98608
   4  -3  -3 4957.83  478.44   1 0.77196-0.03581 0.48730-0.81997 0.40817-0.57127
  -4   3   3 4235.81  465.37   1-0.13675-0.59797 0.90918-0.57693-0.39330 0.55639
   4  -3  -3 3246.63  457.33   1 0.53750 0.19839-0.22976-0.10303 0.81135-0.97469
   4  -3  -285782.05 3806.41   1 0.74875-0.01479 0.48415-0.82738 0.45271-0.56144
  -4   3   290484.34 4102.36   1-0.09405-0.63909 0.90386-0.56106-0.41734 0.52608
   4  -3  -285063.21 3845.81   1 0.49087 0.24283-0.19332-0.15000 0.84950-0.95839
   4  -3  -110865.79  500.51   1 0.72226 0.00951 0.47951-0.83329 0.49838-0.55275
  -4   3   113062.66  750.85   1-0.05215-0.67883 0.89672-0.54338-0.43950 0.49387
   4  -3  -111091.20 1165.96   1 0.44315 0.28838-0.15692-0.19692 0.88260-0.93704
  -4   3   0 1203.40  488.78   1-0.01192-0.71690 0.88795-0.52407-0.45977 0.45977
   4  -3   0 1282.45  394.31   1 0.39517 0.33418-0.12113-0.24323 0.91058-0.91058
  -4   3  -1  708.97  335.84   1 0.02628-0.75295 0.87790-0.50347-0.47812 0.42375
   4  -3   1  327.29  190.86   1 0.34757 0.37938-0.08674-0.28816 0.93363-0.87921
  -4   3  -2 8331.90  763.46   1 0.06216-0.78667 0.86692-0.48196-0.49454 0.38580
   4  -3   2 7512.49  820.45   1 0.30154 0.42322-0.05371-0.33172 0.95193-0.84311
  -4   3  -3 5020.65  559.58   1 0.09543-0.81779 0.85542-0.45991-0.50906 0.34596
   4  -3   3 4533.69  653.15   1 0.25756 0.46500-0.02267-0.37330 0.96599-0.80275
  -4   3  -413755.09 1024.85   1 0.12593-0.84622 0.84368-0.43741-0.52185 0.30426
   4  -3   413470.70 1763.54   1 0.21621 0.50416 0.00607-0.41258 0.97632-0.75867
  -4   3  -514804.42  952.46   1 0.15334-0.87145 0.83223-0.41540-0.53279 0.26079
   4  -3   515164.73  940.96   1 0.17775 0.54051 0.03156-0.44874 0.98356-0.71167
  -4   3  -6 5844.68  651.38   1 0.17754-0.89346 0.82137-0.39397-0.54204 0.21565
   4  -3   6 4908.87  605.52   1 0.14282 0.57322 0.05522-0.48297 0.98820-0.66192
  -4   3  -7 2194.06  614.97   1 0.19839-0.91212 0.81144-0.37348-0.54971 0.16893
   4  -3   7 1540.30  451.64   1 0.11144 0.60238 0.07625-0.51459 0.99084-0.61018
   4  -2  -9  458.21  537.63   1 0.82701-0.08524 0.48948-0.63742 0.27650-0.76578
  -4   2   9 1062.44  369.34   1-0.47874-0.26234 0.86367-0.71578-0.15766 0.64717
   4  -2  -9  873.21  302.66   1 0.76941-0.02720-0.43524 0.28751 0.46751-0.95739
   4  -2  -8 2144.38  502.89   1 0.80967-0.07009 0.48985-0.64834 0.32319-0.75810
  -4   2   8 1311.79  371.84   1-0.43833-0.30060 0.87841-0.71996-0.19041 0.62553
   4  -2  -8  700.75  277.79   1 0.74165-0.00165-0.40710 0.24879 0.53311-0.96855
   4  -2  -728167.17 1940.22   1 0.78963-0.05223 0.48896-0.65800 0.37065-0.75119
  -4   2   728747.60 1994.01   1-0.39683-0.33995 0.89052-0.72152-0.22245 0.60318
   4  -2  -728029.84 2411.00   1 0.70881 0.02897-0.37589 0.20700 0.59689-0.97791
   4  -2  -622081.06 1548.35   1 0.76661-0.03139 0.48666-0.66625 0.41887-0.74506
  -4   2   623792.84 1701.36   1-0.35445-0.38019 0.90001-0.72045-0.25366 0.57999
   4  -2  -619706.10 2742.16   1 0.67094 0.06463-0.34178 0.16230 0.65803-0.98462
   4  -2  -515035.10  880.04   1 0.74028-0.00724 0.48278-0.67292 0.46785-0.73967
  -4   2   517433.54 1035.10   1-0.31127-0.42053 0.90685-0.71700-0.28411 0.55592
   4  -2  -515609.09 1416.08   1 0.62832 0.10504-0.30506 0.11500 0.71564-0.98779
   4  -2  -411815.64  571.65   1 0.71019 0.02063 0.47675-0.67728 0.51800-0.73542
  -4   2   411507.39  666.96   1-0.26785-0.46179 0.91112-0.71072-0.31322 0.53067
   4  -2  -410706.73 1545.36   1 0.58141 0.14974-0.26619 0.06555 0.76882-0.98654
   4  -2  -3 1801.24  309.00   1 0.67618 0.05245 0.46905-0.68015 0.56811-0.73118
  -4   2   3 1857.91  365.58   1-0.22435-0.50312 0.91287-0.70192-0.34105 0.50414
   4  -2  -3 1592.96  266.39   1 0.53118 0.19739-0.22477 0.01342 0.81689-0.98023
   4  -2  -2  518.59  208.41   1 0.63781 0.08863 0.45909-0.68077 0.61840-0.72711
  -4   2   2  422.77  414.75   1-0.18113-0.54418 0.91223-0.69073-0.36745 0.47617
   4  -2  -2  925.62  210.30   1 0.47799 0.24841-0.18341-0.03845 0.85900-0.96789
   4  -2  -1 3605.60  377.19   1 0.59478 0.12947 0.44663-0.67887 0.66838-0.72274
  -4   2   1 3950.13  481.08   1-0.13854-0.58460 0.90935-0.67730-0.39228 0.44664
   4  -2  -1 4722.17  696.80   1 0.42317 0.30105-0.14192-0.09046 0.89486-0.94930
   4  -2   036135.46 1683.62   1 0.54676 0.17536 0.43070-0.67357 0.71801-0.71801
  -4   2   039850.78 2045.45   1-0.09748-0.62403 0.90435-0.66177-0.41548 0.41548
   4  -2   038558.38 3063.62   1 0.36766 0.35413-0.10135-0.14156 0.92441-0.92441
   4  -2   125849.09 1252.35   1 0.49400 0.22596 0.41247-0.66589 0.76539-0.71100
  -4   2  -126669.82 1393.96   1-0.05736-0.66199 0.89772-0.64459-0.43681 0.38244
   4  -2   128484.64 2005.46   1 0.31302 0.40657-0.06190-0.19154 0.94772-0.89331
   4  -2   226313.61 1249.86   1 0.43686 0.28093 0.39137-0.65533 0.80992-0.70114
  -4   2  -229975.21 1480.05   1-0.01907-0.69812 0.88964-0.62598-0.45624 0.34751
   4  -2   226364.66 2360.63   1 0.26010 0.45730-0.02445-0.23953 0.96527-0.85644
   4  -2   313620.49  482.50   1 0.37616 0.33947 0.36760-0.64211 0.85050-0.68734
  -4   2  -314119.94  603.71   1 0.01701-0.73206 0.88049-0.60628-0.47375 0.31065
   4  -2   315219.49 1324.77   1 0.20980 0.50540 0.01049-0.28501 0.97768-0.81444
   4  -2   4 5400.01  332.21   1 0.31331 0.40016 0.34166-0.62685 0.88605-0.66852
  -4   2  -4 4895.70  432.10   1 0.05054-0.76343 0.87064-0.58589-0.48931 0.27184
   4  -2   4 6027.28  520.78   1 0.16275 0.55035 0.04175-0.32692 0.98578-0.76826
   4  -2   5 1343.04  241.25   1 0.24966 0.46168 0.31419-0.60998 0.91594-0.64402
  -4   2  -5 1775.66  287.48   1 0.08118-0.79191 0.86050-0.56521-0.50292 0.23109
   4  -2   5 1334.25  274.76   1 0.11964 0.59124 0.07077-0.36652 0.99029-0.71839
  -4   2  -6 6197.53  467.35   1 0.10864-0.81720 0.85049-0.54466-0.51464 0.18843
   4  -2   6 7754.93  727.46   1 0.08069 0.62798 0.09665-0.40298 0.99204-0.66576
  -4   2  -710991.48  830.77   1 0.13295-0.83934 0.84084-0.52420-0.52470 0.14391
   4  -2   714273.43 1069.51   1 0.04602 0.66042 0.11941-0.43631 0.99177-0.61112
  -4   2  -815234.89  909.31   1 0.15336-0.85756 0.83223-0.50503-0.53279 0.09760
   4  -2   816314.42 1084.97   1 0.01566 0.68856 0.13913-0.46660 0.99014-0.55511
  -4   2  -9 3746.91  487.95   1 0.16991-0.87192 0.82488-0.48711-0.53916 0.04958
   4  -2   9 2981.23  422.14   1-0.01048 0.71250 0.15596-0.49400 0.98770-0.49829
   4  -1 -10 7556.61  782.85   1 0.81264-0.07616 0.48988-0.50583 0.31562-0.85926
  -4   1  10 7132.28  628.98   1-0.59253-0.14361 0.80362-0.78744-0.05567 0.59941
  -4   1  10 7327.37  640.47   1-0.80999 0.07396 0.47733-0.46128-0.34066 0.88416
   4  -1  -924447.71 1454.46   1 0.79189-0.05758 0.48912-0.51562 0.36560-0.85487
  -4   1   922580.18 1276.57   1-0.55894-0.17505 0.82458-0.79788-0.08747 0.57683
   4  -1  -920836.08 1137.17   1 0.78896-0.05414-0.45659 0.43035 0.41116-0.90103
   4  -1  -813585.14  962.63   1 0.76800-0.03588 0.48683-0.52388 0.41611-0.85103
  -4   1   814738.54 1123.55   1-0.52415-0.20745 0.84328-0.80627-0.11885 0.55397
   4  -1  -814566.45  992.32   1 0.76289-0.03028-0.42844 0.39162 0.48418-0.91962
   4  -1  -710799.93  879.16   1 0.74072-0.01078 0.48285-0.53045 0.46709-0.84764
  -4   1   712689.34 1024.05   1-0.48787-0.24158 0.85991-0.81235-0.15004 0.53077
   4  -1  -711470.77 1473.89   1 0.73050-0.00010-0.39630 0.34890 0.55614-0.93715
   4  -1  -612011.41  694.09   1 0.70971 0.01799 0.47665-0.53464 0.51874-0.84488
  -4   1   611678.57  700.72   1-0.45043-0.27687 0.87431-0.81619-0.18077 0.50711
   4  -1  -611435.33 1306.64   1 0.69167 0.03651-0.36025 0.30226 0.62594-0.95252
   4  -1  -512725.46  652.41   1 0.67475 0.05076 0.46870-0.53726 0.57010-0.84188
  -4   1   511552.13  583.84   1-0.41198-0.31317 0.88643-0.81776-0.21093 0.48288
   4  -1  -511845.13  804.62   1 0.64649 0.07948-0.32053 0.25196 0.69231-0.96446
   4  -1  -421919.31 1136.35   1 0.63554 0.08777 0.45847-0.53760 0.62119-0.83861
  -4   1   421381.51 1156.51   1-0.37270-0.35030 0.89626-0.81704-0.24040 0.45795
   4  -1  -421678.99 1640.03   1 0.59539 0.12837-0.27763 0.19848 0.75393-0.97166
   4  -1  -339950.48 2044.18   1 0.59188 0.12925 0.44575-0.53545 0.67154-0.83461
  -4   1   340227.59 2062.73   1-0.33264-0.38759 0.90378-0.81413-0.26928 0.43237
   4  -1  -338554.21 3046.44   1 0.53929 0.18197-0.23118 0.14129 0.80976-0.97309
   4  -1  -222261.20 1149.79   1 0.54375 0.17523 0.42970-0.53004 0.72088-0.82966
  -4   1   220940.86 1133.40   1-0.29237-0.42569 0.90903-0.80883-0.29695 0.40567
   4  -1  -225397.09 1632.72   1 0.47904 0.24005-0.18421 0.08380 0.85824-0.96713
   4  -1  -138682.98 1951.23   1 0.49096 0.22587 0.41138-0.52227 0.76793-0.82231
  -4   1   138117.75 1954.51   1-0.25205-0.46385 0.91204-0.80129-0.32348 0.37784
   4  -1  -140306.46 2022.72   1 0.41621 0.30069-0.13673 0.02580 0.89892-0.95337
   4  -1   0 2856.03  336.19   1 0.43396 0.28070 0.39027-0.51170 0.81201-0.81201
  -4   1   0 4322.88  466.98   1-0.21203-0.50171 0.91293-0.79163-0.34870 0.34870
   4  -1   0 4447.39  713.56   1 0.35222 0.36221-0.09011-0.03134 0.93156-0.93156
   4  -1   1  396.69  209.52   1 0.37338 0.33911 0.36649-0.49847 0.85221-0.79782
  -4   1  -1 1078.82  326.97   1-0.17267-0.53890 0.91183-0.77998-0.37247 0.31811
   4  -1   1   99.99  162.77   1 0.28906 0.42317-0.04485-0.08713 0.95625-0.90184
   4  -1   2 8402.55  710.97   1 0.31018 0.40010 0.34034-0.48293 0.88766-0.77890
  -4   1  -2 8704.75  741.17   1-0.13440-0.57501 0.90895-0.76656-0.39463 0.28591
   4  -1   2 9250.44 1324.97   1 0.22802 0.48202-0.00208-0.14043 0.97365-0.86482
   4  -1   321495.04 1067.86   1 0.24561 0.46254 0.31240-0.46560 0.91764-0.75449
  -4   1  -321214.38 1093.39   1-0.09808-0.60964 0.90444-0.75153-0.41516 0.25205
   4  -1   322932.91 1171.64   1 0.17035 0.53760 0.03659-0.18975 0.98470-0.82156
   4  -1   435445.11 1664.44   1 0.18108 0.52493 0.28331-0.44712 0.94177-0.72424
  -4   1  -436943.01  913.59   1-0.06333-0.64223 0.89882-0.73537-0.43370 0.21623
   4  -1   435666.89 1708.26   1 0.11694 0.58879 0.07258-0.23632 0.99048-0.77296
   4  -1   530118.45 1422.07   1 0.11851 0.58537 0.25419-0.42848 0.95986-0.68829
  -4   1  -531731.82 1539.28   1-0.03100-0.67240 0.89234-0.71835-0.45028 0.17844
   4  -1   532231.57 1614.99   1 0.06840 0.63511 0.10475-0.27906 0.99214-0.72024
   4  -1   6  854.21  208.50   1 0.05861 0.64315 0.22525-0.41011 0.97253-0.64664
  -4   1  -6 1138.75  263.61   1-0.00155-0.69969 0.88538-0.70085-0.46484 0.13864
   4  -1   6 1135.66  247.26   1 0.02504 0.67626 0.13306-0.31795 0.99079-0.66451
   4  -1   7 3074.33  361.37   1 0.00290 0.69675 0.19752-0.39296 0.98029-0.60009
  -4   1  -7 2618.31  339.99   1 0.02460-0.72369 0.87837-0.68330-0.47733 0.09676
   4  -1   7 3201.17  503.51   1-0.01307 0.71216 0.15762-0.35308 0.98741-0.60675
   4  -1   8 1111.51  282.26   1-0.04772 0.74526 0.17165-0.37767 0.98400-0.54948
  -4   1  -8  498.15  200.19   1 0.04704-0.74397 0.87173-0.66611-0.48771 0.05277
   4  -1   8  967.59  321.56   1-0.04666 0.74322 0.17841-0.38428 0.98284-0.54767
   4  -1   9 5633.44  566.35   1-0.09272 0.78814 0.14812-0.36472 0.98461-0.49578
  -4   1  -9 4050.70  432.42   1 0.06536-0.76014 0.86587-0.64972-0.49597 0.00666
   4  -1   9 7202.45  794.63   1-0.07478 0.76909 0.19613-0.41255 0.97772-0.48814
   4  -1  1025966.79 1320.86   1-0.13251 0.82541 0.12718-0.35411 0.98298-0.43964
   4  -1  1026311.09 1396.03   1-0.09829 0.79034 0.21081-0.43778 0.97257-0.42859
   4   0 -1013120.95  971.30   1 0.78619-0.05717 0.48870-0.38321 0.37824-0.92189
  -4   0  1012827.13  881.49   1-0.66673-0.06201 0.74499-0.85026 0.02104 0.52269
  -4   0  1011755.02  723.43   1-0.82864 0.09989 0.50437-0.60971-0.24280 0.78629
   4   0  -9  484.34  442.21   1 0.76063-0.03379 0.48588-0.39094 0.43051-0.91979
  -4   0   9  573.79  318.18   1-0.81418 0.08762 0.48284-0.57765-0.32241 0.81156
   4   0  -8 8927.25  761.49   1 0.73154-0.00688 0.48125-0.39686 0.48293-0.91785
  -4   0   8 8464.86  850.91   1-0.61167-0.11278 0.79025-0.87446-0.03680 0.47179
   4   0  -8 8018.05  648.55   1 0.79234-0.06712-0.46045 0.54512 0.40021-0.83566
   4   0  -720241.51 1125.27   1 0.69871 0.02368 0.47429-0.40030 0.53557-0.91607
  -4   0   723246.99 1290.05   1-0.58236-0.13996 0.81028-0.88397-0.06547 0.44609
   4   0  -721018.01 1057.82   1 0.76373-0.04072-0.42931 0.50340 0.48207-0.86309
   4   0  -632273.07 1629.31   1 0.66184 0.05836 0.46547-0.40205 0.58761-0.91375
  -4   0   636841.74 1806.73   1-0.55195-0.16822 0.82857-0.89173-0.09389 0.42013
   4   0  -632455.45 1605.77   1 0.72695-0.00615-0.39291 0.45641 0.56316-0.88974
   4   0  -540214.48 2089.64   1 0.62079 0.09722 0.45431-0.40146 0.63891-0.91069
  -4   0   543512.14 2239.72   1-0.52067-0.19716 0.84500-0.89777-0.12191 0.39386
   4   0  -540129.50 2760.74   1 0.68170 0.03688-0.35131 0.40423 0.64176-0.91391
   4   0  -431184.30 1521.83   1 0.57543 0.14039 0.44065-0.39837 0.68898-0.90641
  -4   0   430770.05 1529.56   1-0.48835-0.22733 0.85971-0.90193-0.14964 0.36720
   4   0  -428136.79 1851.54   1 0.62811 0.08826-0.30489 0.34723 0.71589-0.93361
   4   0  -3  743.52  298.05   1 0.52600 0.18769 0.42369-0.39205 0.73742-0.90059
  -4   0   3  271.00  289.67   1-0.45528-0.25824 0.87259-0.90425-0.17687 0.34004
   4   0  -3  427.07  225.54   1 0.56689 0.14706-0.25325 0.28481 0.78389-0.94723
   4   0  -2 6663.82  587.16   1 0.47213 0.23940 0.40455-0.38346 0.78321-0.89198
  -4   0   2 6644.27  632.71   1-0.42165-0.28973 0.88363-0.90473-0.20348 0.31225
   4   0  -2 6237.34  504.22   1 0.49940 0.21237-0.19991 0.22096 0.84298-0.95187
   4   0  -112185.20  794.27   1 0.41446 0.29491 0.38275-0.37221 0.82565-0.88004
  -4   0   112056.87  852.90   1-0.38765-0.32158 0.89281-0.90337-0.22934 0.28373
   4   0  -111828.62 1315.03   1 0.42757 0.28202-0.14522 0.15574 0.89223-0.94668
   4   0   018616.48 1000.17   1 0.35354 0.35354 0.35840-0.35840 0.86403-0.86403
  -4   0   017984.50  968.50   1-0.35354-0.35354 0.90018-0.90018-0.25431 0.25431
   4   0   018411.13 1052.31   1 0.35354 0.35354-0.09107 0.09107 0.93097-0.93097
   4   0   198036.23 3816.50   1 0.29041 0.41454 0.33191-0.34252 0.89749-0.84310
  -4   0  -1101420.7 3942.06   1-0.31927-0.38505 0.90578-0.89523-0.27860 0.22423
   4   0   197720.17 4120.61   1 0.28000 0.42488-0.03844 0.02791 0.95922-0.90481
   4   0   235715.81 1670.90   1 0.22607 0.47674 0.30372-0.32493 0.92554-0.81678
  -4   0  -233696.15 1581.16   1-0.28582-0.41634 0.90966-0.88857-0.30133 0.19261
   4   0   238367.42 2282.14   1 0.20897 0.49371 0.01106-0.03213 0.97785-0.86903
   4   0   3 2896.41  419.37   1 0.16180 0.53888 0.27441-0.30622 0.94790-0.78474
  -4   0  -3 3830.30  464.21   1-0.25330-0.44669 0.91198-0.88033-0.32267 0.15958
   4   0   3 2654.99  310.36   1 0.14239 0.55819 0.05551-0.08724 0.98825-0.82511
   4   0   4  294.70  237.34   1 0.09927 0.59932 0.24499-0.28731 0.96442-0.74716
  -4   0  -4  605.11  290.59   1-0.22217-0.47565 0.91290-0.87070-0.34241 0.12496
   4   0   4  667.45  275.57   1 0.08119 0.61717 0.09632-0.13863 0.99203-0.77451
   4   0   516267.79  906.45   1 0.03913 0.65734 0.21564-0.26853 0.97568-0.70411
  -4   0  -513696.18 1032.68   1-0.19294-0.50272 0.91263-0.85989-0.36036 0.08854
   4   0   515350.87  857.63   1 0.02622 0.66992 0.13229-0.18517 0.99086-0.71896
   4   0   611622.99  941.94   1-0.01727 0.71164 0.18729-0.25076 0.98215-0.65626
  -4   0  -610729.72  828.73   1-0.16617-0.52733 0.91147-0.84818-0.37630 0.05012
   4   0   612396.74 1044.30   1-0.02222 0.71615 0.16346-0.22692 0.98629-0.66002
   4   0   719839.17 1071.51   1-0.06910 0.76135 0.16053-0.23459 0.98460-0.60440
  -4   0  -718652.27  934.86   1-0.14250-0.54884 0.90971-0.83587-0.39002 0.00948
   4   0   719623.94 1109.73   1-0.06473 0.75616 0.18982-0.26368 0.97968-0.59890
   4   0   815477.23  924.72   1-0.11640 0.80614 0.13583-0.22025 0.98386-0.54919
  -4   0  -814011.45  510.45   1-0.12260-0.56657 0.90771-0.82332-0.40128-0.03362
   4   0   816450.35  946.83   1-0.10062 0.78980 0.21226-0.29668 0.97201-0.53683
   4   0   9 3781.99  406.42   1-0.15769 0.84529 0.11353-0.20851 0.98093-0.49193
   4   0   9 5026.48  479.00   1-0.13075 0.81767 0.23089-0.32586 0.96415-0.47457
   4   0  10 2038.10  393.53   1-0.19346 0.87893 0.09385-0.19938 0.97660-0.43326
   4   0  10 2711.95  480.00   1-0.15559 0.84026 0.24610-0.35162 0.95667-0.41269
   4   0  11  290.52  238.75   1-0.22383 0.90716 0.07687-0.19296 0.97159-0.37391
   4   0  11 -146.62  297.38   1-0.17563 0.85804 0.25827-0.37434 0.94997-0.35160
   4   1  -911386.59  886.20   1 0.73640-0.01703 0.48211-0.26573 0.47461-0.96389
  -4  -1   913039.44  917.93   1-0.71504-0.00426 0.69483-0.91095 0.07690 0.41247
   4   1  -832556.02 2205.84   1 0.70367 0.01341 0.47537-0.26940 0.52807-0.96293
  -4  -1   835127.94 2376.94   1-0.69416-0.02291 0.71791-0.92357 0.05224 0.38274
  -4  -1   829624.42 1916.12   1-0.82483 0.10774 0.49816-0.70382-0.26735 0.70214
   4   1  -718460.38 1314.98   1 0.66694 0.04795 0.46677-0.27137 0.58077-0.96127
  -4  -1   720558.10 1513.47   1-0.67258-0.04235 0.73951-0.93463 0.02754 0.35307
  -4  -1   717879.05 1092.84   1-0.80530 0.09040 0.47141-0.66654-0.35951 0.73995
   4   1  -6  233.43  317.33   1 0.62617 0.08652 0.45585-0.27102 0.63253-0.95867
  -4  -1   6 1132.05  489.93   1-0.65027-0.06251 0.75969-0.94429 0.00313 0.32311
   4   1  -6  138.69  130.66   1 0.77599-0.06258-0.44225 0.62724 0.44971-0.77630
   4   1  -5  418.05  264.58   1 0.58129 0.12922 0.44248-0.26823 0.68286-0.95464
  -4  -1   5 1764.60  537.31   1-0.62733-0.08331 0.77846-0.95253-0.02092 0.29279
   4   1  -5  283.46  121.55   1 0.73606-0.02486-0.40165 0.57606 0.54487-0.81702
   4   1  -464382.84 3185.86   1 0.53269 0.17571 0.42597-0.26235 0.73128-0.94883
  -4  -1   469605.36 3450.48   1-0.60388-0.10461 0.79582-0.95936-0.04455 0.26204
   4   1  -459709.92 3006.75   1 0.68437 0.02461-0.35369 0.51752 0.63759-0.85531
   4   1  -347321.38 2410.34   1 0.47979 0.22645 0.40735-0.25428 0.77708-0.94024
  -4  -1   354718.84 2754.17   1-0.58006-0.12629 0.81175-0.96477-0.06766 0.23078
   4   1  -344640.30 2242.12   1 0.62107 0.08571-0.29896 0.45220 0.72449-0.88778
   4   1  -249019.53 2454.63   1 0.42331 0.28077 0.38618-0.24365 0.81955-0.92832
  -4  -1   258288.91 2895.72   1-0.55602-0.14818 0.82625-0.96875-0.09015 0.19890
   4   1  -249140.19 2470.25   1 0.54715 0.15731-0.23743 0.37993 0.80264-0.91154
   4   1  -132163.08 1535.14   1 0.36377 0.33814 0.36260-0.23062 0.85801-0.91239
  -4  -1   133953.02 1609.08   1-0.53197-0.16993 0.83932-0.97131-0.11193 0.16632
   4   1  -130052.50 1902.60   1 0.46561 0.23667-0.17395 0.30592 0.86772-0.92216
   4   1   0  441.18  269.70   1 0.30190 0.39772 0.33683-0.21545 0.89185-0.89185
  -4  -1   0 1464.03  336.85   1-0.50809-0.19166 0.85099-0.97242-0.13284 0.13284
   4   1   0  669.54  184.24   1 0.37949 0.32022-0.11000 0.23146 0.91862-0.91862
   4   1   1 3209.56  463.30   1 0.23875 0.45873 0.30937-0.19859 0.92048-0.86609
  -4  -1  -1 4244.12  447.62   1-0.48472-0.21288 0.86123-0.97211-0.15268 0.09830
   4   1   1 3851.75  424.30   1 0.29275 0.40476-0.04747 0.15839 0.95500-0.90059
   4   1   2 5932.19  534.43   1 0.17536 0.51999 0.28068-0.18051 0.94364-0.83487
  -4  -1  -2 6542.05  531.05   1-0.46220-0.23325 0.87007-0.97040-0.17126 0.06248
   4   1   2 6295.58  616.10   1 0.20876 0.48657 0.01121 0.08917 0.97790-0.86907
   4   1   323557.92 1178.42   1 0.11315 0.58015 0.25164-0.16198 0.96118-0.79823
  -4  -1  -325938.63 1231.33   1-0.44098-0.25232 0.87753-0.96731-0.18832 0.02515
   4   1   325172.02 1209.57   1 0.13055 0.56266 0.06347 0.02622 0.98940-0.82626
   4   1   432852.68 1603.91   1 0.05281 0.63837 0.22240-0.14332 0.97352-0.75626
  -4  -1  -432022.25 1515.75   1-0.42158-0.26957 0.88365-0.96287-0.20353-0.01402
   4   1   430164.80 1431.14   1 0.05928 0.63170 0.11073-0.03160 0.99207-0.77456
   4   1   552722.70 2656.94   1-0.00444 0.69351 0.19381-0.12531 0.98102-0.70945
  -4  -1  -552881.18 2585.66   1-0.40469-0.28432 0.88845-0.95712-0.21650-0.05543
   4   1   548224.89 2413.44   1-0.00381 0.69259 0.15168-0.08312 0.98842-0.71652
   4   1   638577.14 2013.78   1-0.05778 0.74474 0.16644-0.10852 0.98435-0.65847
  -4  -1  -640576.45 2013.27   1-0.39117-0.29568 0.89195-0.95007-0.22671-0.09962
   4   1   640959.28 2081.99   1-0.05896 0.74526 0.18618-0.12804 0.98074-0.65435
   4   1   725955.86 1342.67   1-0.10715 0.79159 0.14076-0.09324 0.98422-0.60388
  -4  -1  -723995.58 1153.41   1-0.38218-0.30252 0.89412-0.94168-0.23341-0.14731
   4   1   723980.06 1241.20   1-0.10572 0.78976 0.21543-0.16784 0.97077-0.58999
   4   1   8 2306.47  458.95   1-0.15105 0.83335 0.11715-0.08018 0.98155-0.54688
   4   1   8 2370.54  359.42   1-0.14498 0.82676 0.23962-0.20258 0.95997-0.52480
   4   1   9 3997.46  495.36   1-0.18984 0.87001 0.09586-0.06944 0.97712-0.48811
   4   1   9 2455.44  328.71   1-0.17743 0.85696 0.25936-0.23287 0.94934-0.45976
   4   1  10 8649.69  687.65   1-0.22352 0.90155 0.07705-0.06119 0.97164-0.42830
   4   1  1010225.69  880.74   1-0.20380 0.88108 0.27523-0.25929 0.93952-0.39555
   4   1  11 7003.94  765.78   1-0.25223 0.92813 0.06077-0.05546 0.96575-0.36807
   4   1  11 7813.55  783.43   1-0.22479 0.89981 0.28774-0.28235 0.93095-0.33258
   4   2  -819395.34 1210.07   1 0.68586 0.02372 0.47136-0.14399 0.55443-0.98929
  -4  -2   820454.95 1240.30   1-0.76510 0.05531 0.62780-0.95484 0.14309 0.29191
   4   2  -734122.69 2322.84   1 0.64682 0.06056 0.46154-0.14474 0.60711-0.98761
  -4  -2   731746.41 2189.60   1-0.75088 0.04325 0.64882-0.96534 0.12325 0.25737
   4   2  -649532.99 3225.08   1 0.60385 0.10135 0.44936-0.14313 0.65835-0.98449
  -4  -2   643468.55 2854.44   1-0.73641 0.03093 0.66849-0.97449 0.10396 0.22228
   4   2  -510114.49  564.45   1 0.55696 0.14605 0.43473-0.13907 0.70766-0.97945
  -4  -2   5 8923.40  585.02   1-0.72182 0.01849 0.68679-0.98227 0.08532 0.18655
   4   2  -413962.48  715.30   1 0.50678 0.19417 0.41701-0.13195 0.75450-0.97205
  -4  -2   413915.45  681.42   1-0.70728 0.00610 0.70370-0.98865 0.06745 0.15005
   4   2  -413126.65  383.58   1 0.76597-0.06437-0.43164 0.71696 0.47641-0.69413
   4   2  -355703.71 2784.91   1 0.45266 0.24613 0.39734-0.12283 0.79825-0.96142
  -4  -2   368132.74 3410.37   1-0.69294-0.00602 0.71919-0.99365 0.05082 0.11230
   4   2  -351488.31 2518.98   1 0.70969-0.01030-0.37671 0.65145 0.59532-0.75862
   4   2  -219523.58 1063.55   1 0.39549 0.30113 0.37532-0.11135 0.83828-0.94705
  -4  -2   225976.22 1395.69   1-0.67913-0.01769 0.73318-0.99711 0.03492 0.07382
   4   2  -219128.03  960.11   1 0.63533 0.06184-0.31100 0.57515 0.70683-0.81570
   4   2  -144219.78 2274.76   1 0.33584 0.35845 0.35110-0.09773 0.87403-0.92841
  -4  -2   150456.44 2561.90   1-0.66607-0.02860 0.74560-0.99901 0.02031 0.03405
   4   2  -139360.47 1914.03   1 0.54477 0.15020-0.23553 0.48896 0.80482-0.85927
   4   2   056935.66 2854.85   1 0.27462 0.41753 0.32510-0.08234 0.90492-0.90492
  -4  -2   064860.86 3214.98   1-0.65411-0.03842 0.75635-0.99923 0.00726-0.00726
   4   2   052771.30 2555.28   1 0.44431 0.24848-0.15779 0.40070 0.88186-0.88186
   4   2   141748.53 2136.83   1 0.21269 0.47732 0.29771-0.06555 0.93066-0.87627
  -4  -2  -148765.73 2451.35   1-0.64368-0.04670 0.76528-0.99763-0.00387-0.05049
   4   2   139558.46 2435.83   1 0.33979 0.35037-0.08112 0.31351 0.93699-0.88258
   4   2   224533.27 1256.99   1 0.15106 0.53682 0.26940-0.04785 0.95110-0.84233
  -4  -2  -227354.98 1343.02   1-0.63532-0.05292 0.77214-0.99396-0.01265-0.09609
   4   2   222684.03 1502.18   1 0.23751 0.45045-0.00867 0.23053 0.97134-0.86252
   4   2   3 6315.65  632.72   1 0.09106 0.59483 0.24104-0.02999 0.96623-0.80328
  -4  -2  -3 7182.46  641.49   1-0.62975-0.05634 0.77657-0.98787-0.01843-0.14468
   4   2   3 5769.07  505.68   1 0.14274 0.54309 0.05528 0.15586 0.98821-0.82507
   4   2   4  209.83  298.86   1 0.03316 0.65062 0.21268-0.01221 0.97655-0.75930
  -4  -2  -4  939.40  243.51   1-0.62794-0.05601 0.77799-0.97876-0.02029-0.19719
   4   2   515648.01  961.61   1-0.02159 0.70326 0.18508 0.00480 0.98248-0.71091
  -4  -2  -515249.52  803.49   1-0.63127-0.05053 0.77537-0.96561-0.01685-0.25501
   4   2   513727.54 1052.81   1-0.01703 0.69843 0.16015 0.02983 0.98694-0.71504
   4   2   6 1940.97  366.80   1-0.07251 0.75206 0.15875 0.02055 0.98465-0.65876
   4   2   6 2961.66  417.10   1-0.08065 0.75955 0.19980-0.02021 0.97651-0.65012
   4   2   721204.36 1140.59   1-0.11968 0.79669 0.13407 0.03484 0.98371-0.60337
   4   2   721346.13 1130.79   1-0.13365 0.81030 0.23267-0.06363 0.96332-0.58254
   4   2   854618.01 2544.51   1-0.16167 0.83655 0.11135 0.04700 0.98054-0.54586
   4   2   857115.08 2613.34   1-0.17733 0.85172 0.25930-0.10080 0.94937-0.51419
   4   2   9 1732.34  363.67   1-0.19891 0.87165 0.09082 0.05698 0.97579-0.48679
   4   2   9 1893.12  407.60   1-0.21283 0.88496 0.28062-0.13267 0.93592-0.44634
   4   2  10 1478.56  458.50   1-0.23142 0.90203 0.07259 0.06466 0.97014-0.42679
   4   2  10 1317.56  345.63   1-0.24124 0.91112 0.29747-0.16008 0.92374-0.37977
   4   2  11 3082.75  521.50   1-0.25933 0.92780 0.05671 0.06999 0.96412-0.36644
   4   2  11 4603.48  521.57   1-0.26312 0.93111 0.30935-0.18254 0.91381-0.31576
   4   3  -7 6158.47  558.03   1 0.63862 0.06127 0.45932-0.02111 0.61739-0.99789
  -4  -3   7 5962.74  586.79   1-0.81170 0.11221 0.54219-0.98017 0.21715 0.16328
   4   3  -6 1389.80  440.87   1 0.59480 0.10290 0.44664-0.01900 0.66836-0.99450
  -4  -3   6  672.14  338.14   1-0.80372 0.10560 0.55930-0.98673 0.20299 0.12325
   4   3  -511899.35  909.08   1 0.54784 0.14782 0.43106-0.01402 0.71697-0.98891
  -4  -3   513767.24 1034.28   1-0.79597 0.10000 0.57470-0.99162 0.19010 0.08177
   4   3  -456416.71 3656.32   1 0.49694 0.19655 0.41352-0.00703 0.76291-0.98046
  -4  -3   454534.53 3522.63   1-0.78869 0.09487 0.58832-0.99472 0.17844 0.03906
   4   3  -325655.81 1329.60   1 0.44294 0.24839 0.39368 0.00226 0.80549-0.96865
  -4  -3   328031.45 1416.44   1-0.78210 0.09044 0.60001-0.99588 0.16822-0.00509
   4   3  -217115.33 1031.02   1 0.38632 0.30285 0.37167 0.01372 0.84416-0.95293
  -4  -3   215089.32  895.91   1-0.77648 0.08697 0.60954-0.99490 0.15973-0.05098
   4   3  -139734.62 1914.07   1 0.32765 0.35917 0.34769 0.02705 0.87849-0.93287
  -4  -3   137134.53 1776.51   1-0.77217 0.08481 0.61663-0.99146 0.15334-0.09896
   4   3   0 3585.92  534.87   1 0.26784 0.41685 0.32216 0.04197 0.90800-0.90800
  -4  -3   0 3662.27  509.36   1-0.76954 0.08434 0.62083-0.98515 0.14950-0.14950
   4   3   1 1123.51  458.53   1 0.20767 0.47488 0.29544 0.05809 0.93251-0.87813
  -4  -3  -1  406.56  227.62   1-0.76910 0.08604 0.62154-0.97534 0.14886-0.20324
   4   3   1  399.21  109.60   1 0.44893 0.23437-0.16128 0.51513 0.87888-0.82444
   4   3   221111.13 1224.24   1 0.14807 0.53235 0.26800 0.07492 0.95196-0.84320
  -4  -3  -217413.56  950.38   1-0.77145 0.09054 0.61779-0.96107 0.15228-0.26103
   4   3   216256.28  896.98   1 0.31692 0.36368-0.06469 0.40800 0.94624-0.83741
   4   3   375049.49 3700.14   1 0.09025 0.58823 0.24065 0.09178 0.96640-0.80346
  -4  -3  -372304.10 3491.42   1-0.77736 0.09860 0.60808-0.94084 0.16104-0.32417
   4   3   369105.93 3297.99   1 0.19400 0.48441 0.02135 0.31142 0.98076-0.81753
   4   3   421797.49 1220.70   1 0.03451 0.64185 0.21335 0.10850 0.97636-0.75910
  -4  -3  -418321.64  916.25   1-0.78785 0.11124 0.58984-0.91208 0.17712-0.39462
   4   3   418701.42  926.23   1 0.08652 0.58972 0.09280 0.22919 0.99191-0.77439
   4   3   516869.75  990.20   1-0.01818 0.69244 0.18682 0.12445 0.98222-0.71065
   4   3   515072.30  785.77   1-0.00540 0.67943 0.15270 0.15871 0.98825-0.71635
   4   3   6 2953.65  404.53   1-0.06727 0.73942 0.16149 0.13920 0.98457-0.65869
   4   3   6 2796.70  323.39   1-0.08185 0.75337 0.20056 0.10048 0.97625-0.64987
   4   3   7 1374.10  449.89   1-0.11290 0.78248 0.13770 0.15261 0.98401-0.60367
   4   3   7  801.41  240.88   1-0.14411 0.81337 0.23909 0.05140 0.96024-0.57946
   4   3   8 3711.89  525.74   1-0.15369 0.82113 0.11571 0.16405 0.98131-0.54664
   4   3   8 3446.76  340.59   1-0.19428 0.86128 0.26951 0.01043 0.94319-0.50801
   4   3   9 7324.82  791.07   1-0.19007 0.85538 0.09573 0.17347 0.97709-0.48808
   4   3   9 7356.22  639.05   1-0.23425 0.89900 0.29334-0.02395 0.92686-0.43728
   4   3  10 9893.95  810.05   1-0.22206 0.88523 0.07787 0.18078 0.97191-0.42857
   4   3  10 9061.58  696.39   1-0.26507 0.92791 0.31048-0.05174 0.91287-0.36918
   4   4  -532040.30 1637.29   1 0.55190 0.13630 0.43241 0.10605 0.71303-0.98497
  -4  -4   532442.37 1677.58   1-0.84605 0.15825 0.44897-0.98727 0.28742-0.01568
   4   4  -412214.54  837.88   1 0.50174 0.18430 0.41523 0.11269 0.75883-0.97638
  -4  -4   411867.27  796.45   1-0.84347 0.15780 0.45763-0.98540 0.28127-0.06387
   4   4  -3  937.86  434.13   1 0.44876 0.23511 0.39587 0.12149 0.80118-0.96434
  -4  -4   3  370.69  396.00   1-0.84163 0.15808 0.46360-0.98082 0.27699-0.11395
   4   4  -2 1335.50  316.48   1 0.39346 0.28825 0.37451 0.13231 0.83959-0.94836
  -4  -4   2  816.69  299.66   1-0.84073 0.15932 0.46643-0.97312 0.27495-0.16625
   4   4  -128137.00 2002.20   1 0.33639 0.34297 0.35132 0.14479 0.87373-0.92811
  -4  -4   127448.34 1870.73   1-0.84101 0.16173 0.46556-0.96171 0.27558-0.22123
   4   4   032831.75 2245.37   1 0.27840 0.39882 0.32674 0.15877 0.90317-0.90317
  -4  -4   030938.42 2041.24   1-0.84270 0.16555 0.46016-0.94577 0.27946-0.27946
   4   4   137715.65 2504.16   1 0.22022 0.45486 0.30109 0.17381 0.92781-0.87343
  -4  -4  -134136.09 2227.29   1-0.84603 0.17101 0.44903-0.92410 0.28738-0.34173
   4   4   2 5798.12  505.11   1 0.16267 0.51028 0.27481 0.18949 0.94763-0.83886
  -4  -4  -2 5914.86  376.30   1-0.85120 0.17831 0.43036-0.89489 0.30040-0.40909
   4   4   3 6563.40  502.91   1 0.10688 0.56420 0.24864 0.20518 0.96267-0.79973
  -4  -4  -3 7042.29  535.43   1-0.85822 0.18746 0.40126-0.85526 0.32005-0.48309
   4   4   4   51.35  325.76   1 0.05302 0.61594 0.22250 0.22074 0.97348-0.75622
   4   4   516075.97 1182.83   1 0.00197 0.66487 0.19705 0.23561 0.98038-0.70881
   4   4   612655.13 1012.42   1-0.04574 0.71048 0.17267 0.24941 0.98391-0.65802
   4   4   714405.52 1062.23   1-0.08976 0.75238 0.14968 0.26182 0.98465-0.60444
   4   4   8 7592.00  779.31   1-0.13040 0.79041 0.12831 0.27284 0.98312-0.54844
   4   4   8 7915.64  698.67   1-0.19031 0.84992 0.26713 0.13426 0.94467-0.50950
   4   4   9 9634.03  712.02   1-0.16641 0.82429 0.10876 0.28183 0.98003-0.49103
   4   4   910335.26  682.00   1-0.23760 0.89495 0.29532 0.09552 0.92538-0.43580
   4   5  -1 5518.89  521.66   1 0.35991 0.31218 0.36103 0.25668 0.86029-0.91468
  -4  -5   1 5244.74  991.48   1-0.87350 0.20174 0.30723-0.92455 0.37761-0.32327
   4   5   0 7307.64  817.01   1 0.30387 0.36588 0.33766 0.26923 0.89086-0.89086
  -4  -5   0 5990.06 1051.90   1-0.87480 0.20520 0.29248-0.89929 0.38621-0.38621
   4   5   1 5395.40  699.82   1 0.24776 0.41986 0.31335 0.28293 0.91674-0.86235
  -4  -5  -1 4019.53  743.32   1-0.87627 0.20881 0.27031-0.86661 0.39883-0.45317
   4   5   215581.98 1060.71   1 0.19222 0.47327 0.28841 0.29727 0.93801-0.82924
   4   5   311682.76  797.84   1 0.13796 0.52539 0.26325 0.31182 0.95481-0.79165
   4   5   425209.08 1433.35   1 0.08608 0.57548 0.23863 0.32600 0.96728-0.75002
   4   5   512496.05  840.82   1 0.03639 0.62305 0.21428 0.33977 0.97609-0.70452
   5  -1  -3 2584.88  409.59   1 0.62825 0.26964 0.45644-0.54613 0.63004-0.79311
  -5   1   3 2295.63  393.29   1-0.41723-0.48039 0.88493-0.79515-0.20689 0.37006
   5  -1  -3 2813.36  474.37   1 0.58163 0.31681-0.26637 0.17663 0.76860-0.93189
   5  -1  -2 2973.25  490.21   1 0.59150 0.30420 0.44563-0.54590 0.67195-0.78067
  -5   1   2 5024.30  575.96   1-0.38778-0.50769 0.89278-0.79245-0.22924 0.33801
   5  -1  -2 3318.93  451.03   1 0.53380 0.36214-0.22683 0.12642 0.81461-0.92350
   5  -1  -1 4215.03  521.94   1 0.55239 0.34123 0.43257-0.54346 0.71255-0.76694
  -5   1   1 3319.36  461.43   1-0.35885-0.53448 0.89915-0.78827-0.25048 0.30487
   5  -1  -1 4146.53  695.97   1 0.48413 0.40963-0.18812 0.07719 0.85453-0.90897
   5  -1   021914.09 1183.49   1 0.51101 0.38045 0.41849-0.53993 0.75081-0.75081
  -5   1   024727.65 1341.76   1-0.33027-0.56009 0.90416-0.78286-0.27094 0.27094
   5  -1   018735.91 2437.39   1 0.43366 0.45792-0.14978 0.02832 0.88853-0.88853
   5  -1   1 4815.97  546.55   1 0.46780 0.42150 0.40296-0.53494 0.78662-0.73223
  -5   1  -1 5449.52  636.58   1-0.30305-0.58514 0.90786-0.77601-0.28973 0.23536
   5  -1   1 4512.93  767.21   1 0.38312 0.50588-0.11267-0.01932 0.91679-0.86238
   5  -1   2  446.88  217.51   1 0.42323 0.46391 0.38615-0.52868 0.81960-0.71083
  -5   1  -2  795.27  304.54   1-0.27713-0.60890 0.91042-0.76803-0.30711 0.19839
   5  -1   2  832.55  217.10   1 0.33389 0.55292-0.07687-0.06565 0.93946-0.83064
   5  -1   3  294.46  204.07   1 0.37786 0.50712 0.36829-0.52136 0.84946-0.68629
  -5   1  -3   -7.92  258.83   1-0.25280-0.63106 0.91200-0.75906-0.32299 0.15991
   5  -1   3   27.06  230.85   1 0.28655 0.59807-0.04307-0.10998 0.95709-0.79385
   5   0  -4 9870.20  696.44   1 0.61084 0.28175 0.45143-0.40915 0.65044-0.86787
  -5   0   412509.71  917.23   1-0.53899-0.35371 0.83565-0.87776-0.10563 0.32312
   5   0  -410183.31 1246.16   1 0.65549 0.23777-0.32829 0.37063 0.68010-0.89782
   5   0  -310388.68  837.38   1 0.57189 0.31850 0.43953-0.40782 0.69263-0.85570
  -5   0   311710.16  876.93   1-0.51420-0.37610 0.84812-0.87978-0.12755 0.29072
   5   0  -310117.04 1360.62   1 0.60706 0.28398-0.28728 0.31903 0.74090-0.90419
   5   0  -2 4317.15  531.50   1 0.53074 0.35759 0.42531-0.40422 0.73308-0.84186
  -5   0   2 4274.10  559.98   1-0.48960-0.39855 0.85918-0.88029-0.14859 0.25736
   5   0  -2 4165.55  494.52   1 0.55451 0.33411-0.24330 0.26435 0.79580-0.90470
   5   0  -1  434.79  275.30   1 0.48726 0.39892 0.41005-0.39951 0.77099-0.82537
  -5   0   1  235.89  311.56   1-0.46543-0.42057 0.86886-0.87942-0.16863 0.22302
   5   0  -1  537.64  248.34   1 0.49912 0.38733-0.19969 0.21022 0.84320-0.89765
   5   0   0 2278.67  355.00   1 0.44200 0.44200 0.39333-0.39333 0.80617-0.80617
  -5   0   0 1797.21  403.51   1-0.44192-0.44193 0.87722-0.87722-0.18756 0.18756
   5   0   0 1123.27  296.65   1 0.44213 0.44213-0.15615 0.15615 0.88324-0.88324
   5   0   1  629.07  265.77   1 0.39545 0.48640 0.37530-0.38584 0.83830-0.78392
  -5   0  -1 1547.42  424.77   1-0.41934-0.46236 0.88431-0.87376-0.20526 0.15087
   5   0   1 1109.74  239.54   1 0.38467 0.49697-0.11380 0.10327 0.91600-0.86159
   5   0   210177.48  742.87   1 0.34814 0.53145 0.35618-0.37739 0.86713-0.75837
  -5   0  -2 9797.78  663.88   1-0.39799-0.48156 0.89022-0.86912-0.22158 0.11280
   5   0   2 7935.89  928.90   1 0.32844 0.55101-0.07294 0.05188 0.94170-0.83287
   5   0   3 8863.98  619.13   1 0.30073 0.57672 0.33633-0.36815 0.89243-0.72928
  -5   0  -310425.61  748.16   1-0.37819-0.49921 0.89504-0.86338-0.23635 0.07319
   5   0   3 8890.91 1114.82   1 0.27432 0.60293-0.03444 0.00284 0.96101-0.79778
   5   0   411130.13  801.87   1 0.25385 0.62147 0.31603-0.35846 0.91415-0.69661
  -5   0  -412684.91  845.73   1-0.36034-0.51491 0.89885-0.85664-0.24941 0.03185
   5   0   411415.05 1000.40   1 0.22322 0.65184 0.00123-0.04335 0.97476-0.75711
   5   0   5 8572.72  698.45   1 0.20816 0.66502 0.29566-0.34869 0.93233-0.66041
  -5   0  -5 7574.95  567.33   1-0.34485-0.52825 0.90177-0.84901-0.26052-0.01142
   5   0   5 8793.20  699.51   1 0.17597 0.69698 0.03277-0.08564 0.98384-0.71195
   5   1  -313454.23  918.74   1 0.53143 0.35161 0.42554-0.27247 0.73245-0.89561
  -5  -1   315000.36  959.30   1-0.61316-0.27002 0.78916-0.94218-0.03531 0.19843
   5   1  -3 9340.96 1332.75   1 0.65306 0.23059-0.32619 0.47943 0.68344-0.84673
   5   1  -216517.22 1077.63   1 0.48750 0.39338 0.41014-0.26762 0.77078-0.87956
  -5  -1   218856.91 1181.50   1-0.59502-0.28601 0.80194-0.94443-0.05325 0.16199
   5   1  -213924.70 1113.06   1 0.59703 0.28441-0.27899 0.42165 0.75213-0.86099
   5   1  -114908.24  919.06   1 0.44179 0.43692 0.39325-0.26126 0.80632-0.86071
  -5  -1   118219.83 1131.89   1-0.57750-0.30139 0.81337-0.94533-0.07010 0.12447
   5   1  -112104.30 1674.66   1 0.53579 0.34334-0.22841 0.36038 0.81286-0.86731
   5   1   011081.18  762.54   1 0.39473 0.48182 0.37502-0.25358 0.83877-0.83877
  -5  -1   012615.52  888.94   1-0.56084-0.31590 0.82347-0.94491-0.08571 0.08571
   5   1   0 8784.64 1286.88   1 0.47161 0.40534-0.17853 0.29998 0.86354-0.86354
   5   1   1 5267.18  640.23   1 0.34679 0.52747 0.35562-0.24485 0.86790-0.81352
  -5  -1  -1 4596.95  523.64   1-0.54535-0.32925 0.83223-0.94314-0.09989 0.04552
   5   1   1 3433.76  487.18   1 0.40621 0.46856-0.12930 0.24024 0.90458-0.85013
   5   1   2  237.45  292.79   1 0.29864 0.57348 0.33544-0.23527 0.89347-0.78470
  -5  -1  -2  838.25  369.14   1-0.53121-0.34101 0.83971-0.94004-0.11261 0.00383
   5   1   2  330.79  192.93   1 0.34123 0.53087-0.08216 0.18255 0.93638-0.82755
   5   1   3 1865.37  428.53   1 0.25083 0.61916 0.31471-0.22514 0.91544-0.75229
  -5  -1  -3  857.34  358.08   1-0.51912-0.35095 0.84576-0.93554-0.12327-0.03989
   5   1   3  811.21  212.28   1 0.27871 0.59119-0.03753 0.12739 0.95964-0.79640
   5   1   4 5077.96  615.98   1 0.20398 0.66388 0.29376-0.21481 0.93385-0.71632
  -5  -1  -4 4910.87  549.31   1-0.50946-0.35846 0.85035-0.92958-0.13166-0.08589
   5   1   4 4900.40  606.85   1 0.21974 0.64796 0.00363 0.07569 0.97555-0.75789
   5   1   5 2015.08  437.54   1 0.15868 0.70703 0.27295-0.20460 0.94884-0.67692
   5   1   5  393.91  255.98   1 0.16552 0.70006 0.03987 0.02867 0.98539-0.71350
   5   2  -218959.81 1150.06   1 0.46098 0.41245 0.40044-0.13648 0.79192-0.90069
  -5  -2   220211.22 1181.25   1-0.69394-0.17971 0.71815-0.98208 0.05199 0.05675
   5   2  -1 -198.43  310.34   1 0.41440 0.45686 0.38273-0.12932 0.82569-0.88008
  -5  -2   1   96.41  310.42   1-0.68366-0.18784 0.72869-0.98209 0.04009 0.01428
   5   2   0  679.13  317.03   1 0.36681 0.50229 0.36383-0.12096 0.85619-0.85619
  -5  -2   0  594.57  305.95   1-0.67465-0.19471 0.73752-0.98040 0.02986-0.02986
   5   2   110810.68  765.72   1 0.31866 0.54813 0.34392-0.11176 0.88327-0.82888
  -5  -2  -112647.35  897.22   1-0.66726-0.19995 0.74450-0.97685 0.02163-0.07600
   5   2   226147.56 1448.02   1 0.27063 0.59402 0.32337-0.10182 0.90674-0.79797
  -5  -2  -229162.89 1565.22   1-0.66195-0.20312 0.74937-0.97120 0.01578-0.12453
   5   2   3 5551.21  707.52   1 0.22324 0.63928 0.30245-0.09150 0.92665-0.76350
   5   2   3 4020.49  674.94   1 0.30691 0.55563-0.05754 0.26886 0.94999-0.78675
   5   2   4 5289.98  682.22   1 0.17703 0.68335 0.28145-0.08112 0.94310-0.72556
   5   2   4 3907.46  684.88   1 0.23741 0.62294-0.00860 0.20939 0.97137-0.75372
   5   2   5  301.94  318.01   1 0.13295 0.72547 0.26103-0.07114 0.95612-0.68455
   5   2   5  889.25  278.41   1 0.17382 0.68439 0.03423 0.15575 0.98418-0.71228
;
_shelx_hkl_checksum              78479
loop_
_space_group_symop_operation_xyz
'x, y, z'
'-x, -y, -z'
loop_
_atom_site_label
_atom_site_type_symbol
_atom_site_fract_x
_atom_site_fract_y
_atom_site_fract_z
_atom_site_U_iso_or_equiv
_atom_site_adp_type
_atom_site_occupancy
_atom_site_site_symmetry_order
_atom_site_calc_flag
_atom_site_refinement_flags_posn
_atom_site_refinement_flags_occupancy
_atom_site_disorder_assembly
_atom_site_disorder_group
Br1 Br 0.63981(7) -0.25661(5) 0.42211(2) 0.03465(12) Uani 1 1 d . . . .
C1 C 0.9319(6) 0.3085(4) 0.13595(18) 0.0210(5) Uani 1 1 d . . . .
C2 C 0.7694(6) 0.1163(5) 0.1243(2) 0.0253(5) Uani 1 1 d . . . .
H2 H 0.7170 0.1010 0.0577 0.030 Uiso 0.639(5) 1 calc R P A 1
C3 C 0.6831(6) -0.0521(5) 0.2072(2) 0.0268(5) Uani 1 1 d . . . .
H3 H 0.5763 -0.1783 0.1965 0.032 Uiso 1 1 calc R . . .
C4 C 0.7587(6) -0.0294(4) 0.30683(19) 0.0237(5) Uani 1 1 d . . . .
C5 C 0.9188(6) 0.1566(5) 0.3238(2) 0.0257(5) Uani 1 1 d . . . .
H5 H 0.9683 0.1721 0.3907 0.031 Uiso 1 1 calc R . . .
C6 C 1.0029(6) 0.3192(4) 0.2378(2) 0.0236(5) Uani 1 1 d . . . .
H6 H 1.1139 0.4434 0.2488 0.028 Uiso 0.361(5) 1 calc R P A 2
C7 C 1.0322(6) 0.4908(5) 0.0502(2) 0.0248(5) Uani 1 1 d . . . .
H7 H 1.1526 0.6045 0.0675 0.030 Uiso 1 1 calc R . . .
F1 F 1.1773(7) 0.4913(4) 0.2547(2) 0.0329(7) Uani 0.639(5) 1 d . P A 1
F1A F 0.6839(12) 0.0812(8) 0.0336(3) 0.0325(13) Uani 0.361(5) 1 d . P A 2
loop_
_atom_site_aniso_label
_atom_site_aniso_U_11
_atom_site_aniso_U_22
_atom_site_aniso_U_33
_atom_site_aniso_U_23
_atom_site_aniso_U_13
_atom_site_aniso_U_12
Br1 0.04266(19) 0.02874(17) 0.02771(17) 0.00755(11) 0.00557(11) -0.00857(12)
C1 0.0225(11) 0.0198(12) 0.0190(11) 0.0010(9) -0.0002(9) -0.0012(9)
C2 0.0274(12) 0.0269(13) 0.0219(12) -0.0032(10) -0.0044(9) -0.0041(10)
C3 0.0282(12) 0.0226(12) 0.0286(13) -0.0007(10) -0.0007(10) -0.0059(10)
C4 0.0242(11) 0.0207(11) 0.0224(12) 0.0047(9) 0.0026(9) -0.0025(9)
C5 0.0310(12) 0.0260(13) 0.0185(11) -0.0004(10) -0.0010(9) -0.0013(10)
C6 0.0263(12) 0.0213(12) 0.0230(12) -0.0021(9) -0.0025(9) -0.0046(9)
C7 0.0291(12) 0.0231(12) 0.0204(12) 0.0019(9) -0.0008(9) -0.0053(10)
F1 0.0469(16) 0.0263(13) 0.0267(13) -0.0030(10) -0.0036(10) -0.0151(11)
F1A 0.050(3) 0.032(3) 0.018(2) -0.0046(17) -0.0046(18) -0.017(2)
loop_
_atom_type_symbol
_atom_type_description
_atom_type_scat_dispersion_real
_atom_type_scat_dispersion_imag
_atom_type_scat_source
C C 0.0033 0.0016 'International Tables Vol C Tables 4.2.6.8 and 6.1.1.4'
H H 0.0000 0.0000 'International Tables Vol C Tables 4.2.6.8 and 6.1.1.4'
Br Br -0.2901 2.4595 'International Tables Vol C Tables 4.2.6.8 and 6.1.1.4'
F F 0.0171 0.0103 'International Tables Vol C Tables 4.2.6.8 and 6.1.1.4'
loop_
_geom_angle_atom_site_label_1
_geom_angle_atom_site_label_2
_geom_angle_atom_site_label_3
_geom_angle
_geom_angle_site_symmetry_1
C2 C1 C7 125.0(2) .
C6 C1 C2 115.2(2) .
C6 C1 C7 119.8(2) .
C1 C2 H2 118.5 .
C3 C2 C1 123.0(2) .
C3 C2 H2 118.5 .
F1A C2 C1 122.7(3) .
F1A C2 C3 114.3(3) .
C2 C3 H3 120.6 .
C2 C3 C4 118.8(2) .
C4 C3 H3 120.6 .
C3 C4 Br1 119.64(19) .
C5 C4 Br1 119.13(19) .
C5 C4 C3 121.2(2) .
C4 C5 H5 121.2 .
C4 C5 C6 117.6(2) .
C6 C5 H5 121.2 .
C1 C6 H6 117.9 .
C5 C6 C1 124.2(2) .
C5 C6 H6 117.9 .
F1 C6 C1 118.7(2) .
F1 C6 C5 117.0(2) .
C1 C7 H7 116.8 .
C7 C7 C1 126.5(3) 2_765
C7 C7 H7 116.8 2_765
loop_
_geom_bond_atom_site_label_1
_geom_bond_atom_site_label_2
_geom_bond_distance
_geom_bond_site_symmetry_2
Br1 C4 1.895(3) .
C1 C2 1.397(3) .
C1 C6 1.393(3) .
C1 C7 1.470(3) .
C2 H2 0.9300 .
C2 C3 1.381(4) .
C2 F1A 1.312(5) .
C3 H3 0.9300 .
C3 C4 1.387(4) .
C4 C5 1.382(4) .
C5 H5 0.9300 .
C5 C6 1.385(4) .
C6 H6 0.9300 .
C6 F1 1.343(3) .
C7 C7 1.334(5) 2_765
C7 H7 0.9300 .
loop_
_geom_torsion_atom_site_label_1
_geom_torsion_atom_site_label_2
_geom_torsion_atom_site_label_3
_geom_torsion_atom_site_label_4
_geom_torsion
_geom_torsion_site_symmetry_4
Br1 C4 C5 C6 179.84(19) .
C1 C2 C3 C4 0.4(4) .
C2 C1 C6 C5 -0.9(4) .
C2 C1 C6 F1 175.9(2) .
C2 C1 C7 C7 4.4(5) 2_765
C2 C3 C4 Br1 179.48(19) .
C2 C3 C4 C5 -0.3(4) .
C3 C4 C5 C6 -0.4(4) .
C4 C5 C6 C1 1.0(4) .
C4 C5 C6 F1 -175.8(2) .
C6 C1 C2 C3 0.2(4) .
C6 C1 C2 F1A 179.7(3) .
C6 C1 C7 C7 -176.6(3) 2_765
C7 C1 C2 C3 179.3(2) .
C7 C1 C2 F1A -1.2(5) .
C7 C1 C6 C5 179.9(2) .
C7 C1 C6 F1 -3.3(4) .
F1A C2 C3 C4 -179.2(3) .
