#------------------------------------------------------------------------------
#$Date: 2016-03-04 10:18:12 +0200 (Fri, 04 Mar 2016) $
#$Revision: 177302 $
#$URL: svn://www.crystallography.net/cod/cif/1/54/26/1542650.cif $
#------------------------------------------------------------------------------
#
# This file is available in the Crystallography Open Database (COD),
# http://www.crystallography.net/
#
# All data on this site have been placed in the public domain by the
# contributors.
#
data_1542650
loop_
_publ_author_name
'Kaplan, Peter T.'
'Vicic, David A.'
_publ_section_title
;
 Versatile Route to Arylated Fluoroalkyl Bromide Building Blocks.
;
_journal_issue                   4
_journal_name_full               'Organic letters'
_journal_page_first              884
_journal_page_last               886
_journal_paper_doi               10.1021/acs.orglett.6b00032
_journal_volume                  18
_journal_year                    2016
_chemical_formula_sum            'C10 H4 Br F8 N O2'
_chemical_formula_weight         402.05
_space_group_crystal_system      triclinic
_space_group_IT_number           2
_space_group_name_Hall           '-P 1'
_space_group_name_H-M_alt        'P -1'
_symmetry_space_group_name_Hall  '-P 1'
_symmetry_space_group_name_H-M   'P -1'
_atom_sites_solution_hydrogens   geom
_audit_creation_method           SHELXL-2014/7
_cell_angle_alpha                108.992(2)
_cell_angle_beta                 90.118(2)
_cell_angle_gamma                90.223(2)
_cell_formula_units_Z            2
_cell_length_a                   6.1276(6)
_cell_length_b                   8.3737(8)
_cell_length_c                   12.5585(11)
_cell_measurement_reflns_used    6145
_cell_measurement_temperature    145(2)
_cell_measurement_theta_max      30.39
_cell_measurement_theta_min      3.43
_cell_volume                     609.30(10)
_computing_structure_refinement  'SHELXL-2014/7 (Sheldrick, 2014)'
_diffrn_ambient_temperature      145(2)
_diffrn_measured_fraction_theta_full 0.542
_diffrn_measured_fraction_theta_max 0.568
_diffrn_measurement_device_type  'Bruker D8 Quest'
_diffrn_radiation_type           MoK\a
_diffrn_radiation_wavelength     0.71073
_diffrn_reflns_av_R_equivalents  0.0370
_diffrn_reflns_av_unetI/netI     0.0531
_diffrn_reflns_laue_measured_fraction_full 0.542
_diffrn_reflns_laue_measured_fraction_max 0.568
_diffrn_reflns_limit_h_max       8
_diffrn_reflns_limit_h_min       -7
_diffrn_reflns_limit_k_max       11
_diffrn_reflns_limit_k_min       -11
_diffrn_reflns_limit_l_max       16
_diffrn_reflns_limit_l_min       -17
_diffrn_reflns_number            6154
_diffrn_reflns_point_group_measured_fraction_full 0.542
_diffrn_reflns_point_group_measured_fraction_max 0.568
_diffrn_reflns_theta_full        25.242
_diffrn_reflns_theta_max         30.393
_diffrn_reflns_theta_min         3.431
_exptl_absorpt_coefficient_mu    3.484
_exptl_absorpt_correction_T_max  0.7460
_exptl_absorpt_correction_T_min  0.5533
_exptl_absorpt_correction_type   multi-scan
_exptl_absorpt_process_details   Bruker
_exptl_crystal_colour            colorless
_exptl_crystal_density_diffrn    2.191
_exptl_crystal_description       block
_exptl_crystal_F_000             388
_exptl_crystal_size_max          0.221
_exptl_crystal_size_mid          0.175
_exptl_crystal_size_min          0.142
_refine_diff_density_max         0.354
_refine_diff_density_min         -0.368
_refine_diff_density_rms         0.076
_refine_ls_extinction_method     none
_refine_ls_goodness_of_fit_ref   1.090
_refine_ls_hydrogen_treatment    constr
_refine_ls_matrix_type           full
_refine_ls_number_parameters     199
_refine_ls_number_reflns         2079
_refine_ls_number_restraints     0
_refine_ls_restrained_S_all      1.090
_refine_ls_R_factor_all          0.0573
_refine_ls_R_factor_gt           0.0382
_refine_ls_shift/su_max          0.000
_refine_ls_shift/su_mean         0.000
_refine_ls_structure_factor_coef Fsqd
_refine_ls_weighting_details
'w=1/[\s^2^(Fo^2^)+(0.0332P)^2^] where P=(Fo^2^+2Fc^2^)/3'
_refine_ls_weighting_scheme      calc
_refine_ls_wR_factor_gt          0.0719
_refine_ls_wR_factor_ref         0.0781
_reflns_Friedel_coverage         0.000
_reflns_number_gt                1674
_reflns_number_total             2079
_reflns_threshold_expression     'I > 2\s(I)'
_cod_data_source_file            ol6b00032_si_001.cif
_cod_data_source_block           Compound7o
_cod_depositor_comments
;
The following automatic conversions were performed:

'_exptl_absorpt_correction_type' value 'Multi-scan' changed to
'multi-scan' according to
/usr/data/users/saulius/crontab/automatic-downloads/current/ACS/lib/dictionaries/cif_core.dic
dictionary named 'cif_core.dic' version 2.4.2 from 2011-04-26.

Automatic conversion script
Id: cif_fix_values 4268 2015-11-12 08:31:59Z antanas 
;
_cod_database_code               1542650
_shelx_shelxl_version_number     2014/7
_shelx_space_group_comment
;
The symmetry employed for this shelxl refinement is uniquely defined
by the following loop, which should always be used as a source of
symmetry information in preference to the above space-group names.
They are only intended as comments.
;
_shelx_estimated_absorpt_t_min   0.513
_shelx_estimated_absorpt_t_max   0.638
_shelx_res_file
;

    Compound7o.res created by SHELXL-2014/7


TITL Compound7o.res in P-1
REM Old TITL zzz_a.res in P-1

REM SHELXT solution in P-1
REM R1 0.108,  Rweak 0.021,  Alpha 0.073,  Orientation as input
REM Formula found by SHELXT:  C10 N2 O3 F6 Br

CELL  0.71073   6.1276   8.3737  12.5585  108.992   90.118   90.223
ZERR    2.000   0.0006   0.0008   0.0011    0.002    0.002    0.002
LATT  1
SFAC C H N O F BR
UNIT 20  8  2  4  16  2
TEMP -128.150
SIZE 0.142 0.175 0.221
L.S. 10
BOND $H
LIST 6
FMAP 2
PLAN 5
ACTA
WGHT    0.033200
FVAR       0.85066
BR1   6    0.898482    0.060847    0.210618    11.00000    0.04005    0.02793 =
         0.02340    0.00696    0.00641    0.00875
F3    5    0.470604    0.278601    0.536092    11.00000    0.01508    0.03720 =
         0.02519    0.00786   -0.00277    0.00319
F6    5    1.020605    0.223521    0.458537    11.00000    0.01602    0.04164 =
         0.03003    0.00741   -0.00183    0.00086
F5    5    0.771328    0.029265    0.438900    11.00000    0.04490    0.01478 =
         0.02621    0.00726    0.00202    0.00395
F2    5    0.965413    0.308998    0.681174    11.00000    0.01766    0.04282 =
         0.02872    0.00471   -0.00649    0.00758
F4    5    0.727864    0.468338    0.559362    11.00000    0.04260    0.01478 =
         0.02923    0.00822    0.00290    0.00189
F1    5    0.700889    0.125405    0.660204    11.00000    0.04509    0.01702 =
         0.02643    0.00810    0.00106    0.00612
F8    5    0.768360    0.370200    0.335989    11.00000    0.06383    0.01806 =
         0.02942    0.01066    0.00392    0.00683
F7    5    0.523115    0.177087    0.315484    11.00000    0.02311    0.05773 =
         0.02725    0.01242   -0.00517    0.00349
O2    4    0.358842    0.899646    1.067572    11.00000    0.04687    0.02728 =
         0.03698   -0.00081    0.01059   -0.00053
O1    4    0.080276    0.730560    1.029940    11.00000    0.03007    0.04289 =
         0.03888    0.00118    0.01139    0.00416
N1    3    0.270156    0.765917    1.014959    11.00000    0.02894    0.02229 =
         0.01876    0.00458    0.00084    0.00315
C1    1    0.625381    0.409639    0.762315    11.00000    0.01993    0.01712 =
         0.01902    0.00729   -0.00288    0.00168
C4    1    0.396467    0.640128    0.927911    11.00000    0.02174    0.02121 =
         0.01688    0.00593   -0.00199    0.00199
C9    1    0.806129    0.190076    0.445871    11.00000    0.01675    0.01725 =
         0.02710    0.00924   -0.00102    0.00215
C5    1    0.598374    0.687546    0.899099    11.00000    0.02620    0.01979 =
         0.02446    0.00527   -0.00358   -0.00273
AFIX  43
H5A   2    0.655862    0.797306    0.935835    11.00000   -1.20000
AFIX   0
C8    1    0.686359    0.306668    0.551164    11.00000    0.01861    0.01370 =
         0.02279    0.00552   -0.00342    0.00098
C3    1    0.306253    0.482303    0.878263    11.00000    0.01716    0.02450 =
         0.02301    0.00932   -0.00372   -0.00316
AFIX  43
H3A   2    0.167364    0.454439    0.900936    11.00000   -1.20000
AFIX   0
C7    1    0.747021    0.285470    0.666423    11.00000    0.01911    0.02007 =
         0.02425    0.00838   -0.00511    0.00093
C6    1    0.714748    0.569733    0.814733    11.00000    0.01846    0.02176 =
         0.02566    0.00684   -0.00283   -0.00417
AFIX  43
H6A   2    0.854158    0.597982    0.792898    11.00000   -1.20000
AFIX   0
C2    1    0.423187    0.365192    0.794411    11.00000    0.02365    0.02005 =
         0.02139    0.00678   -0.00445   -0.00122
AFIX  43
H2A   2    0.365459    0.255104    0.759048    11.00000   -1.20000
AFIX   0
C10   1    0.734094    0.211055    0.332840    11.00000    0.02591    0.01974 =
         0.02586    0.00914   -0.00024    0.00165

HKLF 4

REM  Compound7o.res in P-1
REM R1 =  0.0382 for    1674 Fo > 4sig(Fo)  and  0.0573 for all    2079 data
REM    199 parameters refined using      0 restraints

END

WGHT      0.0316      0.0000

REM Highest difference peak  0.354,  deepest hole -0.368,  1-sigma level  0.076
Q1    1   0.7671 -0.0030  0.2568  11.00000  0.05    0.35
Q2    1   0.2481  0.9871  1.0596  11.00000  0.05    0.30
Q3    1   1.0473  0.1303  0.1803  11.00000  0.05    0.30
Q4    1   0.9964  0.0279  0.2480  11.00000  0.05    0.29
Q5    1   1.1855  0.3171  0.6416  11.00000  0.05    0.28
;
_shelx_res_checksum              92512
_shelx_hkl_file
;
   2   0   0  260.37   12.60
   2   0   0  253.77   12.40
  -2   0   0  260.37   12.50
  -2   0   0  247.48   12.50
   2   0   0  261.67   12.20
   3   0   0  250.87   12.40
   3   0   0  239.38   12.00
  -3   0   0  221.58   12.80
   3   0   0  256.97   13.10
  -3   0   0  238.98   12.70
   4   0   0   94.49    8.50
  -4   0   0   94.59    8.00
  -5   0   0  574.74   29.30
   5   0   0  595.14   29.90
   5   0   0  593.04   28.90
  -6   0   0  228.58   15.70
   6   0   0  213.58   17.30
   6   0   0  199.88   15.20
  -7   0   0   -3.40    7.80
   7   0   0  -11.20    8.60
   7   0   0   -0.20    9.90
   8   0   0    2.90   12.90
   8   0   0   14.90   11.70
   5  -1   0  569.94   28.70
   5  -1   0  559.04   27.50
  -5   1   0  543.05   27.90
  -6  -1   0   40.50    7.30
   6  -1   0   22.70    6.80
   6  -1   0   23.10    8.70
  -6   1   0   24.70    7.50
   8  -1   0   46.60   14.10
   8  -1   0   21.30   13.40
   0  -2   0  268.77   13.30
   0  -2   0  269.67   12.40
   0  -2   0  271.07   12.50
   0   2   0  247.98   13.00
   0   2   0  261.97   12.40
   0   2   0  272.27   12.50
   2  -2   0 1903.11   87.39
   2  -2   0 1888.51   87.39
   2  -2   0 2008.90   87.49
   2  -2   0 1999.40   87.99
  -2   2   0 1922.11   87.19
  -2   2   0 1926.01   87.39
  -2   2   0 1906.81   87.89
  -2   2   0 2036.60   87.49
   3  -2   0  820.02   39.40
   3  -2   0  847.02   40.00
   3  -2   0  835.42   39.30
   3  -2   0  928.21   39.50
  -3   2   0  822.12   39.60
  -3   2   0  898.01   39.50
   4  -2   0 1087.09   48.90
   4  -2   0 1046.90   49.70
   4  -2   0  987.70   48.70
  -4   2   0 1131.19   49.20
  -4   2   0 1073.19   49.40
   5  -2   0  205.48   14.70
  -5  -2   0  215.78   13.80
   5  -2   0  189.38   13.00
  -5  -2   0  216.58   13.90
  -5   2   0  206.38   14.10
  -5   2   0  201.88   14.10
   5   2   0  211.08   14.60
   7  -2   0   16.40   10.60
   7  -2   0   10.70   10.00
   7   2   0    9.70   10.40
  -7   2   0   18.20    8.40
   8   2   0   25.80   13.90
   0  -3   0  678.63   30.50
   0  -3   0  625.04   29.20
   0  -3   0  635.74   29.40
   0   3   0  594.84   30.00
   0   3   0  654.13   29.30
   0   3   0  658.93   29.40
   3  -3   0 1670.13   75.69
   3  -3   0 1754.92   75.09
   3  -3   0 1529.35   74.89
  -3   3   0 1656.53   74.59
  -3   3   0 1713.73   75.09
  -3   3   0 1606.34   74.89
   4  -3   0  444.26   23.60
   4  -3   0  463.05   22.60
  -4   3   0  428.96   22.40
  -4   3   0  446.46   22.60
   5  -3   0   83.99   12.60
   5  -3   0   63.09   10.50
  -5   3   0   81.49   11.20
  -5   3   0   98.29   10.70
   6  -3   0   88.19   15.70
   6  -3   0   81.29   13.20
  -6   3   0   71.39   10.10
  -6   3   0   98.59   12.90
   7  -3   0   28.50   12.00
  -7  -3   0   54.79   12.00
   7  -3   0   11.90   15.00
  -7   3   0   12.60    9.00
   8   3   0    5.20   16.40
   8   3   0    6.00   13.60
   0  -4   0  129.29    7.10
   0  -4   0  131.09    9.80
   0   4   0  119.39    8.20
   0   4   0  124.59    7.30
   0   4   0  134.59    8.00
   2  -4   0 1650.33   73.09
   2  -4   0 1749.03   72.19
   2  -4   0 1613.54   71.79
  -2  -4   0 1370.86   72.19
   2   4   0 1475.95   72.99
  -2   4   0 1642.84   72.09
  -2   4   0 1653.33   71.79
   2   4   0 1414.66   71.59
  -2   4   0 1744.73   72.29
   3  -4   0  750.72   35.30
   3  -4   0  730.73   35.90
  -3   4   0  699.53   34.40
  -3   4   0  781.92   35.10
  -3   4   0  743.53   34.70
   5  -4   0   62.69    9.60
   5  -4   0   51.39    8.70
  -5  -4   0   57.89   10.20
  -5  -4   0   63.19   12.20
  -5   4   0   69.29   10.90
   5   4   0   60.99    9.20
  -5   4   0   56.69    8.40
  -6  -4   0    9.40    8.40
  -6  -4   0   23.40   10.00
   6  -4   0    9.80    9.50
   6  -4   0   17.30    9.90
   6   4   0   23.60    9.60
  -6   4   0    8.90    9.50
  -6   4   0   16.90    8.20
   7  -4   0   91.29   19.70
  -7   4   0   69.19   13.60
  -7   4   0   64.59   11.30
   0  -5   0  275.67   14.60
   0  -5   0  278.17   16.60
   0   5   0  282.67   14.60
  -1  -5   0  217.98   12.50
  -1  -5   0  233.98   15.30
  -1  -5   0  206.88   11.50
   1   5   0  210.48   11.70
   1   5   0  233.58   12.10
   1   5   0  229.18   14.80
   2  -5   0 1459.55   65.89
   2  -5   0 1417.36   67.39
   2  -5   0 1509.95   66.19
  -2   5   0 1419.76   66.29
  -2   5   0 1505.35   66.49
  -2   5   0 1397.26   65.59
   3  -5   0  840.92   38.00
   3  -5   0  822.02   39.40
  -3   5   0  807.52   37.40
  -3   5   0  837.02   38.10
  -3   5   0  686.13   38.30
  -5  -5   0  182.28   15.30
  -5  -5   0  157.68   15.50
   5  -5   0  166.28   16.90
   5  -5   0  167.38   15.50
  -5   5   0  174.68   15.10
   5   5   0  174.58   16.40
  -6   5   0   85.59   15.40
  -6   5   0   81.99   16.00
  -7  -5   0  123.49   18.50
  -7  -5   0  128.09   22.50
   7   5   0  120.99   20.50
   0  -6   0  232.68   14.00
   0  -6   0  243.58   17.40
   0   6   0  263.17   18.10
   0   6   0  253.47   14.40
   2  -6   0  625.04   33.80
   2  -6   0  696.63   32.30
  -2   6   0  674.93   32.40
   3  -6   0  113.69   13.60
   3  -6   0  104.39   10.60
  -3   6   0  105.19   10.90
  -3   6   0  107.89    9.80
  -5  -6   0   72.29   14.40
  -5  -6   0   68.69   14.00
   5   6   0   70.19   11.90
  -7   6   0   88.79   16.20
   0  -7   0  362.96   23.10
   0  -7   0  354.26   19.60
   0   7   0  346.97   23.80
   0   7   0  349.27   19.60
   2  -7   0  380.16   21.10
   2  -7   0  392.06   24.80
  -2   7   0  382.36   21.20
   3  -7   0    5.40    8.60
   3  -7   0    1.00    7.00
  -3   7   0   10.80    6.00
  -3   7   0   15.80    6.70
   4  -7   0  139.09   15.20
   4  -7   0  152.78   17.60
  -4   7   0  136.39   14.00
  -4   7   0  117.79   14.10
  -5  -7   0   35.90   10.00
   5  -7   0   38.00   12.00
   5   7   0   49.70   11.80
  -5   7   0   15.50    9.30
  -5   7   0   17.20    9.90
   6  -7   0  123.19   23.10
  -6   7   0  108.49   19.20
  -6   7   0  106.09   14.60
   0  -8   0  245.08   20.20
   0  -8   0  215.08   16.00
   0   8   0  237.88   16.30
   0   8   0  239.38   20.30
  -1  -8   0  236.38   22.50
   1  -8   0  260.77   16.30
   1  -8   0  259.37   19.80
  -1  -8   0  202.18   16.10
   1   8   0  214.48   16.20
  -1   8   0  254.87   16.20
   1   8   0  201.38   20.90
   2  -8   0  167.28   20.30
   2  -8   0  208.78   15.10
  -2   8   0  198.58   15.40
   3  -8   0    5.90   10.90
   3  -8   0    1.20    8.40
  -3   8   0   17.60    7.60
  -4  -8   0   94.79   15.80
   4  -8   0  123.79   19.40
  -4   8   0   89.69   14.10
   5  -8   0  148.09   22.20
  -5   8   0  113.39   17.10
   0  -9   0  148.29   19.30
   0  -9   0  145.49   15.60
   0   9   0  174.68   18.90
   0   9   0  126.19   15.80
   1  -9   0  122.59   19.20
   1  -9   0  113.59   15.30
  -1   9   0  130.39   14.80
  -1   9   0  124.49   19.70
   2  -9   0   17.80    9.60
   2  -9   0   17.40   12.70
  -2   9   0   15.90    8.70
  -4   9   0  127.09   18.70
   0 -10   0   34.50   13.70
   0 -10   0   31.80   11.40
   0  10   0    5.90   10.90
   0  10   0   37.30   14.40
   1 -10   0   33.60   11.90
   1 -10   0   15.70   12.40
  -1  10   0    8.40   10.10
   2 -10   0   40.00   13.30
  -2  10   0   15.60   10.20
   0  11   0   18.70   14.50
  -1 -11   0   16.90   14.60
   8   0  -1  133.99   22.80
   8   0  -1  119.79   20.00
   7   0  -1   77.39   14.20
   7   0  -1   80.99   17.30
  -6   0   1   16.30    6.30
   6   0  -1    3.20    6.70
   6   0  -1   -0.10    8.00
   5   0  -1   53.89    8.60
  -5   0   1   60.59    8.90
   5   0  -1   64.79   10.30
  -4   0   1 1139.99   53.69
   4   0  -1 1182.18   53.89
   4   0  -1 1165.68   53.29
  -3   0   1  463.05   22.80
   3   0  -1  466.05   22.60
  -3   0   1  480.75   22.80
   3   0  -1  496.95   23.20
   3   0  -1  436.66   22.60
   3   0  -1  506.05   22.70
   2   0  -1 1466.35   64.69
   2   0  -1 1394.86   64.49
  -2   0   1 1430.56   64.59
   2   0  -1 1491.05   64.39
   2   0  -1 1459.05   64.49
   2   0  -1 1385.16   64.39
  -2   0   1 1405.16   64.49
   1   0  -1  530.75   24.40
  -1   0   1  545.25   24.40
   1   0  -1  533.35   24.40
   1   0  -1  550.04   24.30
   1   0  -1  512.95   24.20
  -1   0   1  532.05   24.20
   1   0   1  309.57   14.00
   1   0   1  295.57   13.70
  -1   0  -1  322.47   14.10
   1   0   1  280.07   14.00
  -1   0  -1  292.87   13.80
   2   0   1 3704.63  164.28
   2   0   1 3676.93  164.48
  -2   0  -1 3702.33  164.68
  -2   0  -1 3649.23  164.48
  -2   0  -1 3696.93  164.38
   2   0   1 3656.43  164.68
   3   0   1 1437.06   62.99
  -3   0  -1 1457.05   62.39
   3   0   1 1348.47   62.49
  -3   0  -1 1294.17   62.59
   3   0   1 1369.76   62.29
  -3   0  -1 1368.26   62.59
   4   0   1 2895.41  128.19
  -4   0  -1 2777.62  127.79
   5   0   1    5.40    5.60
  -5   0  -1   14.10    5.20
   6   0   1  570.34   29.20
  -6   0  -1  554.44   29.60
   6   0   1  582.14   31.20
   7   0   1   72.89   16.50
   7   0   1   74.89   14.00
   8   0   1   78.89   13.80
   8   0   1  111.19   21.30
   8  -1  -1   32.20   13.20
   8   1  -1   48.00   14.60
   8   1  -1   43.90   12.60
  -7  -1   1   49.99    9.80
   7   1  -1   20.90    9.20
   7   1  -1   35.30   11.30
   5  -1  -1   47.90    8.80
   5  -1  -1   42.70    7.60
  -5   1   1   43.20    6.80
   4  -1  -1  424.56   20.50
   4  -1  -1  417.66   21.20
   4  -1  -1  390.86   19.90
  -4   1   1  424.46   20.90
  -4   1   1  400.76   20.80
   3  -1  -1 1011.60   47.60
   3  -1  -1 1072.99   46.90
   3  -1  -1 1002.50   47.00
  -3   1   1 1079.59   47.20
  -3   1   1 1005.20   47.20
  -3   1   1 1007.00   47.30
   2  -1  -1 2720.33  115.09
   2  -1  -1 2456.15  114.99
   2  -1  -1 2576.44  115.19
   2  -1  -1 2407.96  115.19
  -2   1   1 2715.03  115.19
  -2   1   1 2510.55  114.99
  -2   1   1 2621.54  115.19
  -2   1   1 2555.44  115.29
   0  -1  -1  192.88    9.10
   0   1   1  186.28    9.50
   0   1   1  179.08    9.20
   0   1   1  191.18    9.50
   2  -1   1 1714.13   76.19
   2  -1   1 1724.23   75.49
   2  -1   1 1796.52   75.49
   2  -1   1 1633.04   75.79
  -2   1  -1 1663.23   75.79
  -2   1  -1 1651.93   75.99
  -2   1  -1 1627.14   75.49
   6  -1   1  123.59   15.30
   6  -1   1  125.19   12.60
  -6   1  -1  147.39   13.20
   7  -1   1  131.49   17.60
   7  -1   1  146.59   15.20
  -7  -1  -1  104.39   15.20
   7   1   1   86.09   17.60
  -7   1  -1  139.99   15.00
   8  -1   1   15.60   13.10
   8   1   1   42.20   13.80
   8   1   1   37.40   12.60
   8  -2  -1    7.40   14.60
   8   2  -1   22.70   14.20
   8   2  -1   10.30   12.10
   7  -2  -1  109.89   17.10
   6  -2  -1  374.96   22.20
   6  -2  -1  375.86   23.50
  -6   2   1  358.06   22.60
  -6   2   1  374.46   21.90
   5  -2  -1   67.49   10.00
   5  -2  -1   71.39   11.30
  -5   2   1   61.19   10.80
  -5   2   1   78.99   10.00
  -4  -2   1  126.69   10.80
   4  -2  -1  172.98   10.80
   4  -2  -1  170.58   11.60
   4   2  -1  139.59   11.00
  -4   2   1  179.98   11.40
  -4   2   1  176.08   11.10
   2  -2  -1 2100.19   94.69
   2  -2  -1 2072.29   94.99
   2  -2  -1 2284.47   95.09
   2  -2  -1 2183.68   94.79
  -2   2   1 2203.98   96.49
  -2   2   1 1912.81   95.39
  -2   2   1 1973.90   94.59
  -2   2   1 2156.88   94.69
   0  -2   1 4262.37  193.08
   0  -2   1 3793.42  193.38
   0  -2   1 4388.86  193.08
   0   2  -1 4561.04  193.18
   0   2  -1 4264.27  192.98
   0   2  -1 4302.27  193.08
   0   2  -1 4640.24  193.08
   0   2  -1 4405.76  193.58
   5  -2   1  157.18   13.40
   5  -2   1  169.88   11.50
  -5   2  -1  163.38   12.30
  -5   2  -1  165.68   12.10
   7  -2   1   35.00   10.70
   7  -2   1   29.30    9.40
  -7   2  -1   46.20    9.20
   8  -2   1   12.80   13.50
   8   2   1    9.10   13.00
   8   2   1   14.60   13.40
   8  -3  -1    0.10   15.80
   8   3  -1   23.80   19.20
   8   3  -1   44.50   15.40
   7  -3  -1  200.08   23.10
   7  -3  -1  243.28   22.90
  -7   3   1  265.17   19.30
  -7   3   1  217.48   22.50
   6  -3  -1   87.39   14.60
   6  -3  -1  102.59   17.20
  -6   3   1   82.59   14.80
  -6   3   1  113.29   13.40
   5  -3  -1 1273.77   58.29
   5  -3  -1 1238.88   59.09
  -5   3   1 1250.67   58.19
  -5   3   1 1204.28   58.09
  -2  -3   1   24.00    4.40
  -2  -3   1   19.70    3.40
   2  -3  -1   33.10    5.70
  -2  -3   1   23.60    4.60
   2   3  -1   22.50    3.90
   2   3  -1   16.40    3.20
   2   3  -1   23.10    4.20
   2   3  -1   23.80    4.20
   0  -3   1 1825.62   83.19
   0  -3   1 1838.52   83.39
   0  -3   1 1844.92   84.19
   0  -3   1 1919.61   83.39
   0   3  -1 1757.72   83.29
   0   3  -1 1912.01   83.49
   0   3  -1 1855.31   83.39
   0   3  -1 1829.72   83.19
   0   3  -1 2011.70   83.49
   0   3  -1 1828.72   84.19
   2  -3   1  922.71   41.90
   2  -3   1  896.21   41.80
   2  -3   1  928.41   42.70
   2  -3   1  937.81   41.90
  -2   3  -1  914.41   42.00
  -2   3  -1  885.31   42.40
  -2   3  -1  950.10   42.00
  -3  -3  -1  731.93   33.20
  -3  -3  -1  719.83   33.00
   3  -3   1  680.23   32.60
   3  -3   1  668.23   33.60
  -3   3  -1  688.63   32.80
   3   3   1  755.42   32.70
   3   3   1  728.63   33.80
  -3   3  -1  640.94   32.70
   4  -3   1  214.58   11.70
   4  -3   1  225.98   14.10
   4  -3   1  197.78   13.30
  -4   3  -1  221.18   12.80
  -4   3  -1  212.58   12.80
   5  -3   1   38.80    6.30
  -5  -3  -1   29.20    7.10
  -5  -3  -1   33.90    6.90
  -5   3  -1   55.89    9.40
   5   3   1   36.60    8.00
  -5   3  -1   33.10    6.80
  -7  -3  -1   63.39   12.60
   7   3   1   94.69   17.80
   8  -3   1   10.60   15.80
   7  -4  -1    4.10   12.20
  -7  -4   1   31.10   11.90
   7   4  -1   43.50   11.90
  -7   4   1    5.10   12.50
  -7   4   1   25.10   10.20
   6  -4  -1  400.26   25.10
   6  -4  -1  367.06   25.00
  -6   4   1  393.26   24.30
  -6   4   1  383.26   23.50
  -5  -4   1  147.69   14.70
   5  -4  -1  148.39   14.90
  -5  -4   1  151.08   14.00
   5  -4  -1  151.58   15.30
  -5   4   1  180.98   14.70
  -5   4   1  168.28   13.70
   5   4  -1  139.59   14.20
   3  -4  -1    4.80    5.10
  -3  -4   1   -2.70    4.20
  -3  -4   1    1.10    3.80
   3  -4  -1    8.00    5.40
   3   4  -1   -1.20    3.30
  -3   4   1    8.20    4.00
   3   4  -1    4.60    4.60
  -3   4   1    4.80    4.40
   2  -4  -1   91.99    6.90
   2  -4  -1   86.79    8.80
   2  -4  -1   92.99    8.30
  -2   4   1   92.99    7.60
  -2   4   1   82.79    7.90
  -1  -4   1 1468.55   69.79
  -1  -4   1 1508.85   69.79
  -1  -4   1 1635.14   71.39
  -1  -4   1 1587.44   70.39
   1   4  -1 1578.04   70.29
   1   4  -1 1527.65   69.79
   1   4  -1 1589.14   71.19
   1   4  -1 1481.95   70.99
   1   4  -1 1572.54   69.89
   1   4  -1 1600.14   69.99
   1  -4   1  845.32   40.60
   1  -4   1  880.41   39.30
   1  -4   1  821.02   39.40
   1  -4   1  870.61   39.30
  -1   4  -1  855.91   39.60
  -1   4  -1  866.51   41.30
  -1   4  -1  866.41   39.40
  -1   4  -1  897.11   39.30
   2  -4   1  355.96   17.30
   2  -4   1  346.17   18.70
  -2   4  -1  345.97   17.30
  -2   4  -1  371.56   17.30
  -2   4  -1  356.06   17.70
   3  -4   1  382.46   20.80
   3  -4   1  393.56   19.70
  -3   4  -1  409.26   20.00
  -3   4  -1  393.36   19.00
  -3   4  -1  396.26   19.70
  -4  -4  -1  778.62   36.50
  -4  -4  -1  724.53   36.30
   4  -4   1  728.33   35.80
   4  -4   1  735.63   37.00
   4   4   1  792.42   37.50
  -4   4  -1  758.42   35.90
  -4   4  -1  727.43   35.70
   5  -4   1  724.03   37.50
   5  -4   1  716.63   35.70
  -5   4  -1  721.73   35.90
  -5   4  -1  754.32   36.00
   6  -4   1   77.79   16.50
   6  -4   1   89.49   15.90
  -6   4  -1   84.49   15.80
  -6   4  -1  115.29   13.80
   7  -4   1   11.20   12.10
  -7  -4  -1    6.10   10.20
  -7  -4  -1   25.80   13.00
   7   4   1   23.90   10.70
  -7   4  -1    2.00    9.80
  -7   4  -1    2.30   11.50
  -7  -5   1   11.30   13.40
   7  -5  -1   15.00   13.70
   7   5  -1   22.00   11.90
  -7   5   1   -0.20   13.20
  -7   5   1   17.40   11.60
  -6  -5   1   99.49   17.50
   6  -5  -1   93.59   17.50
  -6  -5   1   96.79   14.80
  -6   5   1   90.39   16.80
   6   5  -1  116.39   16.90
  -6   5   1   81.79   15.20
  -2  -5   1  535.25   26.10
  -2  -5   1  505.55   25.60
   2   5  -1  554.44   27.30
   2   5  -1  546.25   25.50
   0  -5  -1 1126.99   53.79
   0  -5  -1 1095.39   52.09
   0   5   1 1155.28   51.89
   0   5   1 1140.79   53.79
   1  -5   1  656.73   29.60
  -1  -5  -1  494.15   30.30
   1  -5   1  666.13   28.50
   1   5   1  487.05   27.90
  -1   5  -1  653.73   27.90
   2  -5   1  168.48    9.80
   2  -5   1  171.68   10.00
   2  -5   1  166.18   12.10
  -2   5  -1  163.88    9.80
  -2   5  -1  165.28   10.50
  -2   5  -1  150.38   10.40
   3  -5   1  655.93   34.30
   3  -5   1  648.64   32.70
  -3   5  -1  657.53   31.00
  -3   5  -1  692.03   31.60
  -3   5  -1  597.64   30.50
   4  -5   1  377.76   20.50
   4  -5   1  378.86   22.70
  -4   5  -1  405.06   21.20
  -4   5  -1  396.36   20.80
  -5  -5  -1  185.18   15.80
  -5  -5  -1  155.28   15.40
   5   5   1  153.08   16.20
   6  -5   1   29.50   10.60
  -6  -5  -1   47.00   11.40
  -6   5  -1   11.80    8.70
  -7  -5  -1    4.00   11.50
  -7  -5  -1    4.30   13.80
  -7   5  -1   25.50   13.00
   7   5   1   13.50   11.70
  -7   5  -1   23.70   11.40
  -7  -6   1   16.10   15.80
   7   6  -1   11.90   14.30
  -6  -6   1   43.50   10.30
  -6  -6   1   37.20   11.90
   6  -6  -1   48.10   13.60
   6   6  -1   41.90   11.60
  -6   6   1   35.00   11.70
  -6   6   1   59.89   11.40
   3  -6  -1  180.48   13.70
   3  -6  -1  194.08   16.50
  -3  -6   1  149.49   12.10
  -3  -6   1  170.88   13.00
  -3   6   1  197.88   14.00
  -3   6   1  184.48   12.20
   3   6  -1  157.88   15.50
   2  -6  -1 1312.07   64.59
   2  -6  -1 1379.06   63.09
  -2   6   1 1398.06   63.19
  -1  -6   1  377.16   22.10
  -1  -6   1  368.46   19.30
   1   6  -1  360.96   21.70
   1   6  -1  389.06   19.10
   0  -6  -1 3232.28  146.89
   0  -6  -1 3092.29  145.09
   0   6   1 3255.37  146.89
   0   6   1 3299.67  144.89
   2  -6   1  227.98   12.90
   2  -6   1  219.48   12.90
   2  -6   1  225.68   15.90
  -2   6  -1  227.28   13.60
  -2   6  -1  205.18   14.10
  -2   6  -1  222.08   12.60
   3  -6   1  297.07   19.70
   3  -6   1  315.57   16.60
  -3   6  -1  296.87   17.30
  -3   6  -1  289.77   16.60
   4  -6   1  369.56   32.20
  -4   6  -1  455.45   25.00
  -4   6  -1  453.95   22.90
  -5  -6  -1  207.88   17.70
  -5  -6  -1  182.48   16.70
   5   6   1  178.88   18.70
   6  -6   1   12.30   11.10
  -6  -6  -1    4.60    9.60
   6   6   1    4.60   10.50
  -6   6  -1   12.90   10.10
  -6   6  -1   17.00   10.10
  -7   6  -1   37.20   14.40
  -6  -7   1   40.10   11.90
  -6   7   1    8.20   15.10
   6   7  -1   50.29   12.80
   5  -7  -1  303.27   25.20
  -5   7   1  316.07   21.70
  -5   7   1  263.87   21.20
   3  -7  -1  167.88   18.00
   3  -7  -1  162.88   14.80
  -3   7   1  154.58   14.20
   2  -7   1  216.98   13.70
   2  -7   1  227.88   17.90
  -2   7  -1  202.88   14.40
   3  -7   1  421.56   25.80
   3  -7   1  416.26   22.30
  -3   7  -1  439.66   23.20
  -3   7  -1  414.56   22.20
  -5  -7  -1   14.50    9.50
   5  -7   1  -10.80   11.50
   5   7   1    3.00   11.10
  -5   7  -1   -8.90    8.50
  -5   7  -1    4.40    9.00
   6  -7   1   28.30   14.10
  -6   7  -1   45.10   12.80
  -6   7  -1   21.70   11.70
  -5  -8   1   -5.20   10.20
   5  -8  -1   -0.20   13.80
   5   8  -1   11.70   12.70
  -4  -8   1   77.49   15.50
  -4   8   1   83.49   15.00
   4   8  -1   54.49   12.50
   3  -8  -1  229.88   23.80
   3  -8  -1  230.58   18.80
  -3   8   1  230.88   17.70
  -2  -8   1  222.28   16.70
   2  -8  -1  200.08   17.00
   2  -8  -1  221.48   20.90
   2   8  -1  196.18   19.60
  -2   8   1  198.78   16.60
  -1  -8   1   14.00   10.10
   1  -8  -1   34.40   11.10
   1  -8  -1   33.20    7.90
  -1  -8   1    5.40    6.70
   1   8  -1    2.00    6.70
   1   8  -1    5.60    9.80
  -1   8   1   21.90    7.90
  -1   8   1   40.10   11.90
   0  -8  -1    2.00    9.40
   0  -8   1    5.70    6.20
   0  -8  -1   -3.90    7.10
   0  -8   1    3.10    9.30
   0   8   1   10.80   10.10
   0   8   1   -3.00    7.10
   0   8  -1   -3.80    6.40
   0   8  -1    7.50   10.10
   1  -8   1   64.79   10.70
  -1  -8  -1   91.59   15.00
  -1  -8  -1   99.29   12.90
   1  -8   1   76.79   12.80
   1   8   1  104.09   17.00
   1   8   1   77.89   13.70
   2  -8   1  452.05   28.30
   2  -8   1  436.66   23.40
  -2   8  -1  428.16   24.10
   3  -8   1  165.98   18.60
   3  -8   1  191.68   19.60
  -3   8  -1  204.88   15.00
  -3   8  -1  193.18   14.20
  -4  -8  -1   21.30    9.70
  -4   8  -1   42.00    9.30
  -4   8  -1   66.39   12.80
   5  -8   1   19.70   12.20
  -5   8  -1    4.10    9.80
  -5   8  -1    8.20   15.20
  -4  -9   1   51.99   12.20
   4  -9  -1   60.99   17.20
  -3  -9   1  149.39   17.30
   3   9  -1  102.99   21.20
   2  -9  -1   91.59   18.30
   2  -9  -1  110.09   16.30
  -2   9   1  100.59   15.30
   1  -9  -1   39.90   12.20
  -1  -9   1    3.00    8.60
   1  -9  -1   37.10   10.10
  -1  -9   1    8.50   12.20
  -1   9   1   18.20    9.50
   1   9  -1   -7.30   11.40
   1   9  -1   -0.20   10.10
  -1   9   1   44.10   13.00
   0  -9   1   49.80   11.50
   0  -9   1   47.90    9.00
   0  -9  -1   26.80   12.10
   0   9  -1   31.60    8.50
   0   9  -1   40.70   11.90
   0   9   1   10.80    9.60
   0   9   1   18.20   12.20
   1  -9   1  276.27   22.80
  -1  -9  -1  322.67   21.00
   1  -9   1  260.27   19.00
   1   9   1  299.37   23.70
   1   9   1  303.77   21.70
  -1   9  -1  254.97   18.80
   2  -9   1  140.49   20.30
  -2  -9  -1  121.09   17.70
   2  -9   1  141.79   17.30
  -2   9  -1  118.59   14.00
   4  -9   1    6.60   13.10
  -4   9  -1   -8.10    9.00
  -3 -10   1   62.99   13.80
  -2 -10   1    9.60   11.10
  -2  10   1   29.80   11.70
   2  10  -1  -11.90   13.20
   1 -10  -1   81.39   14.10
  -1  10   1   86.89   20.10
   0 -10  -1   31.00   15.00
   0 -10   1  104.09   20.30
   2 -10   1   69.09   15.00
  -2  10  -1   59.99   11.00
  -1 -11   1  141.69   23.10
   0 -11  -1   60.29   17.90
   0  11   1   57.49   17.20
   0  11  -1   91.59   14.60
   8   0  -2   35.10   14.60
   8   0  -2   55.39   13.20
   7   0  -2    3.20   10.50
   7   0  -2    7.00    8.90
  -7   0   2   20.30    8.90
   6   0  -2  282.67   17.90
   6   0  -2  286.57   19.90
  -6   0   2  281.77   18.50
   5   0  -2  360.76   20.10
  -5   0   2  341.17   19.40
   5   0  -2  358.86   19.40
   4   0  -2   11.70    4.60
   4   0  -2   11.40    4.20
  -4   0   2    4.90    3.70
   3   0  -2   10.40    2.80
  -3   0   2    6.90    3.30
  -3   0   2    8.70    2.90
   3   0  -2   11.00    3.00
   3   0  -2   10.50    3.10
  -3   0   2    9.50    3.20
   3   0  -2    9.20    2.20
   2   0  -2  902.91   41.90
   2   0  -2  946.01   42.20
   2   0  -2  915.31   42.00
  -2   0   2  953.30   42.10
  -2   0   2  915.01   41.90
   2   0  -2  916.41   42.00
  -1   0   2 1004.10   47.20
   1   0  -2 1105.99   47.30
  -1   0   2 1009.50   47.10
   1   0  -2  974.70   47.10
   1   0  -2 1043.20   47.30
  -1   0   2 1108.49   47.30
   0   0  -2  205.48    9.50
   0   0  -2  211.18    9.60
   0   0  -2  188.88    9.50
   0   0   2  201.78    9.50
   0   0   2  210.98    9.90
  -1   0  -2  342.37   15.80
   1   0   2  350.26   16.10
  -1   0  -2  361.86   16.10
   1   0   2  325.87   15.80
  -1   0  -2  336.67   15.90
   1   0   2  339.97   15.80
   2   0   2    0.00    2.30
   2   0   2    0.70    1.30
  -2   0  -2    0.80    1.80
  -2   0  -2    0.30    1.70
  -2   0  -2   -0.20    1.40
   2   0   2    1.50    1.50
   3   0   2  804.12   36.60
   3   0   2  757.02   35.80
  -3   0  -2  804.72   35.80
   3   0   2  767.72   35.70
  -3   0  -2  767.32   37.00
  -3   0  -2  775.42   36.10
  -4   0  -2 2629.14  121.29
   4   0   2 2712.03  121.79
  -4   0  -2 2725.03  120.99
  -5   0  -2  219.88   13.90
   5   0   2  221.58   14.70
   6   0   2   35.40    9.60
  -6   0  -2   36.70    7.40
   7   0   2    8.60    9.60
  -7   0  -2    6.20    8.20
   7   0   2    3.00    8.90
   8   0   2  -15.90   16.40
   8   0   2   -7.10   12.00
   8  -1  -2   28.70   14.90
   8   1  -2   18.60   14.70
   8   1  -2   17.80   11.80
   7  -1  -2   44.30   11.10
   7  -1  -2   14.90   10.10
   7   1  -2   30.70    9.60
  -7   1   2   41.20    9.60
   7   1  -2   32.60   11.40
  -6  -1   2  159.08   15.70
   6  -1  -2  215.68   16.80
   6  -1  -2  219.18   15.10
  -6   1   2  220.98   15.30
   6   1  -2  153.48   14.40
   2  -1  -2 1030.40   48.10
   2  -1  -2 1096.29   48.20
   2  -1  -2 1062.99   48.20
   2  -1  -2 1078.09   48.20
  -2   1   2 1046.10   48.20
  -2   1   2  995.20   48.00
  -2   1   2 1101.79   48.40
  -2   1   2 1075.89   48.10
   1  -1  -2  625.34   29.50
   1  -1  -2  659.63   29.60
   1  -1  -2  637.14   29.30
   1  -1  -2  647.44   29.70
  -1   1   2  649.93   29.30
  -1   1   2  609.14   29.40
  -1   1   2  669.03   29.70
  -1   1   2  660.53   29.70
   1  -1   2 1497.45   66.29
   1  -1   2 1499.35   66.09
   1  -1   2 1408.26   65.99
  -1   1  -2 1486.75   66.29
  -1   1  -2 1507.95   66.19
  -1   1  -2 1451.35   65.99
  -1   1  -2 1470.35   65.99
   2  -1   2  566.84   26.70
   2  -1   2  583.04   26.20
   2  -1   2  578.54   26.30
   2  -1   2  612.34   27.10
  -2   1  -2  563.94   26.90
  -2   1  -2  574.24   26.70
  -2   1  -2  563.54   26.30
  -2   1  -2  574.84   26.30
  -2   1  -2  591.54   26.30
  -4  -1  -2  735.33   33.40
  -4  -1  -2  691.43   33.50
   4   1   2  690.73   34.00
  -5  -1  -2  309.87   17.90
  -5  -1  -2  315.37   18.10
   5   1   2  335.17   19.00
   6  -1   2   -3.20    8.30
   6  -1   2   -4.40    6.20
  -6   1  -2   10.50    6.60
  -7   1  -2   18.10    8.20
   8  -1   2   39.40   13.30
   8   1   2   15.00   12.40
   8   1   2    0.30   12.10
   8  -2  -2    7.70   15.50
   8   2  -2    2.30   15.40
   8   2  -2   -3.90   12.40
   7   2  -2   74.29   14.90
   5  -2  -2  735.23   37.20
   5  -2  -2  763.82   36.60
  -5   2   2  736.63   36.70
  -5   2   2  744.93   36.50
   4  -2  -2 1494.25   67.69
   4  -2  -2 1468.25   67.99
  -4   2   2 1490.15   67.79
  -4   2   2 1447.66   67.59
  -3  -2   2 1294.17   59.29
  -3  -2   2 1260.77   58.89
  -3  -2   2 1326.47   59.09
   3   2  -2 1286.47   58.99
  -1  -2   2 1413.16   67.49
  -1  -2   2 1527.05   67.69
  -1  -2   2 1406.46   67.79
   1   2  -2 1551.34   67.69
   1   2  -2 1525.15   67.49
   1   2  -2 1542.95   67.89
   1   2  -2 1527.05   67.89
   1   2  -2 1565.24   67.79
   0  -2   2 3971.80  179.68
   0  -2   2 4019.20  179.68
   0  -2   2 3678.33  179.88
   0  -2   2 3947.30  179.48
   0   2  -2 4199.38  179.68
   0   2  -2 4188.08  179.88
   0   2  -2 3894.21  179.58
   0   2  -2 4110.59  179.68
   0   2  -2 4340.57  179.48
   0   2  -2 3968.70  179.68
   1  -2   2  692.53   31.30
   1  -2   2  692.63   30.90
   1  -2   2  681.53   30.80
   1  -2   2  696.13   30.90
  -1   2  -2  654.83   31.10
  -1   2  -2  646.24   30.90
  -1   2  -2  695.53   30.90
  -1   2  -2  676.23   30.90
   4  -2   2  391.56   20.20
   4  -2   2  412.96   21.50
   4  -2   2  420.96   19.80
   4  -2   2  395.16   19.60
  -4   2  -2  415.96   20.00
  -4   2  -2  405.06   20.60
   6  -2   2  574.34   30.00
   6  -2   2  618.14   32.60
  -6   2  -2  614.14   31.00
   7  -2   2   57.39   10.60
   7  -2   2   72.09   16.10
   8  -2   2   99.89   19.90
   8  -3  -2   43.20   16.50
   8   3  -2   45.20   16.30
   7  -3  -2  175.38   21.60
  -7  -3   2  143.09   19.10
   7  -3  -2  159.18   21.40
  -7   3   2  157.58   20.50
   7   3  -2  122.89   17.20
  -7   3   2  193.08   17.60
  -6  -3   2   27.90    9.00
   6  -3  -2   17.00    9.40
  -6   3   2    4.60   11.80
   6   3  -2   29.90    9.20
  -6   3   2   24.60    8.20
   5  -3  -2   24.70    7.90
  -5  -3   2   33.90    7.60
   5  -3  -2   29.00    7.70
   5   3  -2   33.40    7.30
  -5   3   2   26.00    6.90
  -5   3   2   17.20    7.50
   4  -3  -2  785.72   37.10
   4  -3  -2  724.83   37.00
  -4   3   2  771.32   36.90
  -4   3   2  769.52   36.50
   2  -3  -2  563.74   26.90
   2  -3  -2  560.94   26.90
   2  -3  -2  535.35   25.80
  -2   3   2  582.04   26.50
  -2   3   2  505.55   26.50
  -2   3   2  571.44   25.70
  -2   3   2  547.35   26.30
  -1  -3   2  262.87   13.90
  -1  -3   2  258.57   12.70
  -1  -3   2  271.77   13.50
  -1  -3   2  246.38   12.90
   1   3  -2  266.87   13.00
   1   3  -2  260.57   12.50
   1   3  -2  269.77   12.50
   1   3  -2  264.27   13.30
   1   3  -2  275.87   13.50
   1   3  -2  260.97   12.60
   2  -3   2 2227.88   99.99
   2  -3   2 2266.07   99.79
   2  -3   2 2236.18   99.29
  -2   3  -2 2140.59   99.29
  -2   3  -2 2259.17   99.39
  -2   3  -2 2207.38   99.29
  -2   3  -2 2149.69   99.89
   5  -3   2  499.15   27.00
   5  -3   2  496.15   25.00
  -5   3  -2  515.25   25.60
  -5   3  -2  494.35   25.80
  -7  -3  -2   12.90   10.30
  -7  -3  -2   34.10   11.60
   7   3   2   40.60   10.60
   8   4  -2   -0.30   15.80
  -7  -4   2   17.80   11.60
   7  -4  -2   46.80   14.00
  -7   4   2   21.30   13.60
   7   4  -2   18.10   12.10
  -7   4   2   40.40   11.30
   6  -4  -2   78.09   17.00
   6  -4  -2   60.09   12.30
  -6   4   2   69.69   11.70
  -6   4   2  100.89   13.80
  -5  -4   2   78.09   11.40
   5  -4  -2   60.59   10.20
  -5  -4   2   95.49   12.80
   5  -4  -2   67.79   13.60
  -5   4   2   69.99   13.00
   5   4  -2   81.69   12.10
  -5   4   2   74.19   11.70
   3  -4  -2  639.94   31.70
   3  -4  -2  590.24   31.30
   3  -4  -2  658.23   32.30
  -3   4   2  646.34   30.70
  -3   4   2  685.63   31.60
  -2  -4   2  337.87   17.90
  -2  -4   2  347.27   17.80
   2   4  -2  372.56   18.70
   2   4  -2  365.46   19.30
   2   4  -2  378.76   17.90
  -1  -4   2  154.08   10.20
  -1  -4   2  148.59    8.30
   1   4  -2  153.88    8.10
   1   4  -2  147.89    8.10
   1   4  -2  152.88    8.50
   1   4  -2  160.78    8.30
   1   4  -2  135.99    8.90
   1   4  -2  152.78   10.30
   1   4  -2  140.59    8.00
   0  -4   2 6486.35  294.47
   0  -4   2 6286.77  293.47
   0  -4   2 6381.96  293.47
   0  -4   2 6602.64  293.47
   0   4  -2 7126.49  293.57
   0   4  -2 6645.93  293.67
   0   4  -2 6417.16  293.47
   0   4  -2 6696.13  293.37
   0   4  -2 6663.93  293.67
   0   4  -2 6579.94  294.47
   1  -4   2 1219.48   54.49
   1  -4   2 1171.78   54.59
   1  -4   2 1226.68   55.69
  -1   4  -2 1184.28   54.69
  -1   4  -2 1217.28   54.19
  -1   4  -2 1208.78   54.69
   2  -4   2 2918.81  134.29
   2  -4   2 3043.40  133.49
  -2   4  -2 2945.91  133.49
  -2   4  -2 2996.70  133.39
   3  -4   2   68.19    8.30
  -3   4  -2   78.89    7.30
  -3   4  -2   74.99    7.40
  -5  -4  -2    7.20    6.70
  -5  -4  -2   -6.70    7.20
  -5   4  -2   24.90    9.00
   5   4   2    3.40    7.20
  -6  -4  -2   64.29   11.10
  -6  -4  -2   59.49   10.10
   6   4   2   80.99   14.70
  -7  -4  -2   46.40   14.00
  -7   4  -2   24.40   12.20
   7   4   2   57.39   11.60
  -7   4  -2   87.09   15.40
   7  -5  -2   11.90   14.90
  -7  -5   2    6.70   13.00
   7   5  -2   18.80   12.60
  -7   5   2    2.20   12.50
  -7   5   2   -1.80   14.00
   6  -5  -2   19.50   11.90
   6  -5  -2   36.10   16.90
  -6  -5   2   32.30   11.00
   6   5  -2   54.29   11.20
  -6   5   2   47.00   11.30
  -6   5   2   40.10   10.50
  -5   5   2  136.89   20.20
   4  -5  -2  226.68   17.80
   4  -5  -2  237.18   16.70
  -4   5   2  216.98   18.70
  -4   5   2  211.98   14.80
  -1  -5   2 3684.93  166.28
  -1  -5   2 3675.13  165.18
   1   5  -2 3742.63  166.28
   1   5  -2 3620.34  164.88
   1   5  -2 3670.03  164.88
   1   5  -2 3731.63  166.18
   0  -5  -2  115.09   11.90
   0  -5   2  107.19   10.30
   0  -5  -2  113.89    9.40
   0   5  -2  124.89    7.40
   0   5  -2  109.39    7.70
   0   5   2  112.09    9.40
   0   5   2  105.79   12.40
   0   5  -2  111.79    7.30
   0   5  -2  120.29    7.60
   1  -5   2   68.69    8.30
   1  -5   2   64.79    5.70
   1  -5   2   65.29    5.30
  -1   5  -2   57.29    5.60
  -1   5  -2   68.39    6.40
  -1   5  -2   71.69    6.00
   2  -5   2  250.27   13.70
   2  -5   2  264.57   15.60
  -2   5  -2  254.87   13.70
  -2   5  -2  251.37   13.90
   4  -5   2   75.99   11.70
  -4   5  -2   69.99    9.60
  -4   5  -2   83.29    9.80
  -6  -5  -2   54.19   10.50
   6  -5   2   52.99   11.50
  -6  -5  -2   50.79   11.70
  -6   5  -2   57.19    9.60
   6   5   2   65.89   11.60
  -6   5  -2   50.69   10.00
   7  -5   2  113.39   20.20
  -7   5  -2   89.79   17.70
  -7  -6   2   12.10   15.90
   7   6  -2   -7.80   14.00
  -5  -6   2   12.20    9.90
   5  -6  -2   25.50   11.60
   5  -6  -2   23.20   11.30
  -5  -6   2   13.20    7.60
  -5   6   2   12.30    9.00
  -5   6   2   14.10    8.70
   5   6  -2   11.10    9.70
   3  -6  -2  328.97   21.70
   3  -6  -2  318.27   19.60
  -3   6   2  292.77   26.60
  -2  -6   2   21.50    5.10
  -2  -6   2   23.60    4.50
   2   6  -2   20.90    4.90
   2   6  -2   19.90    7.40
  -1  -6   2   50.59    7.10
  -1  -6   2   45.70   10.50
   1   6  -2   46.00    6.90
   1   6  -2   46.40    7.90
   1  -6   2  748.23   36.20
   1  -6   2  796.42   36.20
   1  -6   2  775.02   38.40
  -1   6  -2  754.82   36.40
  -1   6  -2  844.82   36.30
  -1   6  -2  806.12   36.80
  -1   6  -2  733.73   36.20
   6  -6   2  149.99   19.80
  -6   6  -2  121.89   17.60
  -6   6  -2  143.59   16.50
  -7   6  -2   13.50   14.00
  -6  -7   2   40.60   11.60
   6   7  -2   48.10   12.50
  -5  -7   2  100.79   15.00
  -5  -7   2  117.29   20.70
  -5   7   2  147.79   16.90
   5   7  -2  128.39   19.00
   2  -7  -2  272.67   19.00
   2  -7  -2  301.47   23.70
  -2   7   2  286.17   18.80
   1  -7   2  190.68   11.80
   1  -7   2  189.58   16.70
  -1   7  -2  167.78   12.60
   2  -7   2  206.08   12.30
   2  -7   2  199.68   16.70
  -2   7  -2  183.08   13.50
  -2   7  -2  203.18   12.60
   4  -7   2  149.59   18.00
  -4   7  -2  171.68   13.70
  -4   7  -2  160.38   13.90
  -5  -7  -2   90.49   16.40
   5  -7   2  125.69   18.50
  -5   7  -2  126.69   15.50
  -5   7  -2  150.88   15.20
   6  -7   2  144.49   21.50
  -6   7  -2  131.69   18.70
  -6   7  -2  108.29   18.40
  -5  -8   2  104.09   17.30
   5  -8  -2  147.89   26.00
   5   8  -2   90.09   20.10
  -4  -8   2   12.90    9.50
   4  -8  -2   36.10   15.30
   4   8  -2    4.20   11.30
  -4   8   2   17.70    9.50
  -3  -8   2    8.90    7.80
   3  -8  -2    3.50   17.10
   3  -8  -2    1.80   12.80
  -3   8   2    9.60    8.80
   3   8  -2    6.10   11.00
   2  -8  -2  212.88   21.80
   2  -8  -2  178.58   21.70
  -2   8   2  206.58   17.70
  -1  -8   2  116.49   22.00
  -1  -8   2  133.99   12.20
   1   8  -2  140.39   12.50
   1   8  -2  131.29   18.00
   2  -8   2  164.68   17.80
   2  -8   2  127.39   11.40
  -2   8  -2  108.09   12.70
   4  -8   2  154.98   18.80
  -4   8  -2  147.49   20.60
  -4   8  -2  159.38   14.40
   5  -8   2  251.17   22.90
  -5   8  -2  187.28   18.30
  -5   8  -2  194.18   20.20
  -6   8  -2   77.09   15.40
  -4  -9   2   12.00   10.60
   4   9  -2   -4.30   13.10
   3  -9  -2   -4.60   14.90
  -3  -9   2   49.20   10.60
  -3   9   2   22.30   10.70
   3   9  -2   35.00   13.30
   2  -9  -2   39.70   11.70
   2  -9  -2   26.10   13.90
  -2  -9   2   45.10    9.50
   2   9  -2   33.70   12.30
  -2   9   2   11.40   14.40
   1  -9  -2  117.89   19.40
   1  -9  -2  130.69   17.20
  -1   9   2  108.09   18.10
  -1   9   2  117.09   19.70
   0  -9  -2  289.67   22.20
   0   9   2  269.97   23.10
   0   9   2  312.97   26.10
  -1  -9  -2   99.09   16.80
   1   9   2   87.59   19.00
   1   9   2   73.99   12.90
  -2  -9  -2    1.30   10.30
   2  -9   2    4.30   11.60
  -2   9  -2   -6.70    7.10
   3  -9   2  145.89   19.80
  -3   9  -2  109.09   13.30
   4  -9   2  177.68   22.00
  -4   9  -2  167.78   16.50
  -3 -10   2   42.50   12.70
   3  10  -2    6.80   15.10
   2  10  -2   50.09   14.20
   1 -10  -2   33.40   14.10
  -1 -10   2   56.29   11.20
  -1 -10   2   80.09   16.60
   1  10  -2   68.59   15.20
   1  10  -2   45.60   10.60
  -1  10   2   59.29   13.90
   0 -10   2   47.00   10.50
   0 -10   2   43.90   13.20
   0 -10  -2   46.30   13.60
   0  10   2   41.40   14.10
   0  10  -2   44.20   13.00
   0  10  -2   20.90    9.70
  -1 -10  -2   69.39   14.20
   1 -10   2   52.99   13.80
  -1  10  -2   61.29   14.90
   2 -10   2   58.99   14.70
  -2  10  -2   49.90    9.90
   3 -10   2   47.80   22.40
  -3  10  -2   92.79   17.30
  -2 -11   2  158.68   24.40
  -1 -11   2   35.40   13.30
   1  11  -2   41.60   12.60
   0  11  -2   21.00   11.60
  -1  11  -2   61.89   12.20
   8   0  -3   10.70   13.90
   8   0  -3    3.70   12.50
  -7   0   3  118.89   16.40
   7   0  -3   88.29   17.80
   7   0  -3  108.39   15.70
   6   0  -3   65.69   11.70
   6   0  -3   56.59   10.00
  -6   0   3   71.59   12.40
  -5   0   3   59.59   10.20
   5   0  -3   66.29   10.60
   5   0  -3   60.59    9.70
   4   0  -3 2293.57  104.79
   4   0  -3 2346.47  104.79
  -4   0   3 2347.97  105.79
  -4   0   3 2302.27  104.69
  -4   0   3 2298.47  105.19
   3   0  -3 1732.73   77.99
  -3   0   3 1772.82   78.29
   3   0  -3 1746.53   78.19
   3   0  -3 1655.13   78.19
  -3   0   3 1761.02   78.49
  -3   0   3 1693.83   77.99
   3   0  -3 1737.33   78.19
  -2   0   3    6.30    2.10
   2   0  -3    4.10    1.90
  -2   0   3    4.20    2.20
  -1   0   3   80.69    5.30
  -1   0   3   94.99    5.70
   1   0  -3   93.09    5.70
   1   0  -3   89.19    5.40
   1   0  -3   91.29    5.70
  -1   0   3   88.89    5.60
   0   0  -3   53.19    3.50
   0   0   3   55.49    3.80
   0   0  -3   51.09    3.50
   0   0  -3   49.10    4.60
   0   0  -3   54.79    3.60
   0   0   3   52.59    3.60
   0   0   3   55.59    3.40
   0   0   3   60.09    4.30
  -1   0  -3 1491.05   65.89
  -1   0  -3 1449.85   65.99
   1   0   3 1493.75   65.89
   1   0   3 1438.06   65.79
  -1   0  -3 1461.75   65.89
   1   0   3 1471.05   66.09
   2   0   3 1364.86   60.59
   2   0   3 1356.96   61.09
  -2   0  -3 1341.47   60.59
   2   0   3 1302.57   60.59
  -2   0  -3 1367.16   61.09
  -2   0  -3 1329.97   60.69
   3   0   3  335.07   16.70
   3   0   3  354.76   17.80
  -3   0  -3  354.06   16.80
   3   0   3  337.57   16.60
  -3   0  -3  350.36   17.30
   4   0   3   -3.70    4.30
  -4   0  -3    6.20    4.00
  -4   0  -3   -2.40    3.40
  -5   0  -3   37.80    6.30
  -5   0  -3   35.40    5.90
   5   0   3   35.90    6.90
   6   0   3  136.09   14.10
  -6   0  -3  117.79   12.80
  -7   0  -3   34.70    9.40
   7   0   3   22.30    9.60
   8   0   3   18.30   15.60
  -7  -1   3   41.00   10.10
   7  -1  -3   42.10   11.90
   7  -1  -3   13.40   10.80
   7   1  -3   33.50    9.20
   7   1  -3   30.60   11.60
   6  -1  -3   13.40    8.50
  -6  -1   3    8.80    7.50
   6  -1  -3    3.60    8.00
  -6   1   3    5.70    7.30
   6   1  -3    7.50    8.60
   5  -1  -3 2366.26  106.89
   5  -1  -3 2302.47  106.89
  -5   1   3 2428.76  106.99
  -5   1   3 2297.37  107.09
  -4  -1   3 1077.79   53.69
  -4  -1   3 1199.68   54.39
   4   1  -3 1202.88   53.79
   4   1  -3 1183.78   53.89
  -3  -1   3 3500.65  155.18
  -3  -1   3 3428.36  155.28
   3   1  -3 3411.46  155.38
   3   1  -3 3532.75  155.48
  -2  -1   3  164.58    8.80
  -2  -1   3  166.48   10.60
   2  -1  -3  143.39    8.40
   2  -1  -3  140.29    8.50
   2  -1  -3  155.48    8.70
   2   1  -3  160.28    8.50
   2   1  -3  161.08    8.60
  -2   1   3  151.48    8.80
  -2   1   3  165.28    9.10
  -2   1   3  160.98   11.60
  -2   1   3  144.99    8.30
   2   1  -3  161.78    8.20
  -4  -1  -3    4.50    3.80
   4  -1   3   18.40    3.40
   4  -1   3   18.90    4.90
  -4  -1  -3    4.40    4.20
  -4   1  -3   17.10    4.50
  -5  -1  -3   43.30    6.70
  -5  -1  -3   44.30    8.70
   5   1   3   52.39    9.70
   6  -1   3  243.28   15.70
   6  -1   3  220.18   17.40
  -6   1  -3  222.48   15.60
  -7  -1  -3  130.69   16.80
  -7   1  -3  107.79   14.80
   7   1   3  145.59   16.50
   8  -1   3    6.90   12.60
   8   1   3  -10.20   13.10
   8  -2  -3   16.10   16.30
   8   2  -3   81.29   16.20
   7  -2  -3  152.28   20.80
   7  -2  -3  156.18   20.00
  -7   2   3  135.19   19.80
  -7   2   3  203.58   18.40
   5  -2  -3  308.97   17.80
   5  -2  -3  294.47   18.10
  -5  -2   3  240.28   17.20
   5   2  -3  235.38   17.00
  -5   2   3  301.47   18.10
  -5   2   3  281.27   17.00
   5   2  -3  221.08   16.10
   4  -2  -3  368.16   19.90
   4  -2  -3  356.56   19.70
  -4   2   3  362.56   20.00
  -4   2   3  352.76   18.90
   3  -2  -3 1001.40   44.60
   3  -2  -3  898.91   44.00
   3  -2  -3  959.60   44.30
  -3   2   3  999.30   44.70
  -3   2   3  955.40   44.00
  -3   2   3  899.51   44.40
  -2  -2  -3  136.59    9.20
  -2  -2  -3  137.99    8.00
  -2  -2  -3  154.08    8.90
   2   2   3  141.39    7.70
   2   2   3  145.49    7.60
  -4  -2  -3  463.05   24.20
   4  -2   3  517.35   23.00
   4  -2   3  485.15   22.90
   4  -2   3  495.35   24.80
  -4  -2  -3  462.95   24.20
   4   2   3  462.45   25.00
  -4   2  -3  502.15   24.10
  -7  -2  -3   34.40   10.50
   7   2   3   22.40   10.10
  -7   2  -3   17.20    8.50
   8  -3  -3   43.90   26.80
   8   3  -3   14.20   16.00
   7  -3  -3   56.39   14.00
   7  -3  -3   57.49   13.80
  -7   3   3   85.79   17.00
  -7   3   3   46.00   13.10
   6  -3  -3  135.99   25.00
   6  -3  -3   93.89   15.40
  -6   3   3  134.09   14.70
  -6   3   3   93.89   15.80
   5  -3  -3   10.90    7.60
   5  -3  -3   18.80    8.50
  -5  -3   3   26.10    7.40
  -5   3   3   20.40    6.90
   5   3  -3   29.60    6.90
   4  -3  -3   93.59   11.00
   4  -3  -3   97.59   11.90
  -4   3   3   92.09    9.70
  -4   3   3   97.09   11.20
  -2  -3   3  834.82   39.90
  -2  -3   3  844.22   38.90
  -2  -3   3  872.81   39.50
  -2  -3   3  870.41   39.80
   2   3  -3  885.71   39.70
   2   3  -3  831.62   39.70
   2   3  -3  826.22   39.20
   2   3  -3  890.01   39.50
   0  -3   3 1937.21   82.59
   0  -3   3 1699.73   82.89
   0  -3   3 1855.61   82.19
   0  -3   3 1820.72   82.49
   0   3  -3 1895.91   82.19
   0   3  -3 1803.42   82.49
   0   3  -3 1893.31   82.49
   0   3  -3 1809.42   82.49
   0   3  -3 1771.92   82.49
   0   3  -3 1903.01   82.89
  -3  -3  -3  262.97   14.40
  -3  -3  -3  246.78   13.70
   3   3   3  265.47   15.50
   3   3   3  238.18   13.00
   6  -3   3   35.80    7.40
   6  -3   3   61.59   13.10
  -6  -3  -3   38.30    8.80
   6   3   3   18.20    8.60
  -6   3  -3   36.70    7.70
   7  -3   3   36.10   10.70
  -7  -3  -3   35.20   12.30
  -7  -3  -3   34.00   10.50
  -7   3  -3   34.90    9.00
   8   4  -3   20.30   17.70
   7  -4  -3  145.89   23.40
   7  -4  -3  173.58   22.80
  -7   4   3  138.89   21.80
  -7   4   3  158.18   20.60
   6  -4  -3  285.87   22.60
   6  -4  -3  271.97   24.00
  -6   4   3  284.47   20.60
  -6   4   3  279.87   21.60
  -5  -4   3  168.98   15.90
   5  -4  -3  180.68   16.80
   5  -4  -3  173.18   17.80
  -5   4   3  173.48   16.40
  -5   4   3  191.28   14.90
   5   4  -3  180.68   14.60
   4  -4  -3   62.19   12.50
   4  -4  -3   63.29   12.40
  -4   4   3   63.69   11.30
  -4   4   3   70.49   10.00
   3  -4  -3   39.20    7.30
   3  -4  -3   51.89   10.00
   3  -4  -3   34.70    6.50
  -3   4   3   39.50    7.40
  -3   4   3   33.90    6.50
  -1  -4   3 1095.79   49.70
  -1  -4   3 1092.09   50.29
  -1  -4   3 1069.89   50.19
   1   4  -3 1140.79   49.90
   1   4  -3 1077.39   49.50
   1   4  -3 1079.69   50.39
   1   4  -3 1041.70   49.90
   1   4  -3 1125.09   51.49
   1   4  -3 1123.99   49.70
   0  -4   3 2061.99   94.49
   0  -4   3 2142.19   94.79
   0  -4   3 2058.39   94.69
   0   4  -3 2021.10   94.79
   0   4  -3 2081.39   94.69
   0   4  -3 2181.98   94.79
   0   4  -3 2155.28   95.49
   0   4  -3 2181.28   94.49
  -2  -4  -3    5.10    4.30
   2  -4   3   13.70    2.80
   2  -4   3   15.60    4.20
   2   4   3    4.50    5.80
  -2   4  -3   13.90    3.60
  -2   4  -3   12.20    3.30
   3  -4   3   79.69    9.00
  -3   4  -3   91.29    7.80
  -3   4  -3   91.39    7.70
  -4  -4  -3  973.60   45.60
  -4  -4  -3  876.01   44.60
   4   4   3  999.90   46.90
  -7  -4  -3    3.10   13.20
  -7  -4  -3   -4.60   11.10
   7  -4   3    1.80   11.40
   7   4   3   18.60   10.50
  -7   4  -3   12.20    8.90
   7  -5  -3   13.20   16.10
  -7  -5   3   66.19   14.50
  -7   5   3    7.40   13.90
   6  -5  -3  296.97   24.80
   6  -5  -3  269.37   24.30
  -6   5   3  250.47   21.60
  -6   5   3  259.27   21.50
   4  -5  -3  229.28   17.30
   4  -5  -3  211.48   17.90
  -4   5   3  225.88   15.30
  -4   5   3  204.58   16.50
   2  -5  -3  268.07   17.50
   2  -5  -3  294.17   19.20
  -2  -5   3  277.07   15.30
  -2  -5   3  275.97   15.10
   2   5  -3  289.57   16.40
  -2   5   3  277.47   17.00
  -1  -5   3 3685.33  166.08
  -1  -5   3 3802.42  166.28
  -1  -5   3 3807.32  167.38
   1   5  -3 3660.83  166.28
   1   5  -3 3725.53  166.08
   1   5  -3 3775.92  166.08
   1   5  -3 3420.06  166.28
   1   5  -3 3827.72  167.28
   0  -5   3  906.61   43.90
   0  -5   3  920.51   42.40
   0  -5  -3  929.91   44.00
   0  -5  -3  923.11   45.40
   0  -5   3  932.91   42.20
   0   5  -3  877.91   42.50
   0   5  -3  914.81   42.50
   0   5   3  934.11   45.40
   0   5  -3  969.30   42.30
   0   5  -3  940.11   42.40
   0   5   3  929.51   43.60
  -2  -5  -3   58.69    9.00
   2  -5   3   49.10    8.20
  -2   5  -3   50.09    6.50
  -2   5  -3   57.49    6.70
   2   5   3   68.59   12.20
   4  -5   3  286.27   19.00
  -4   5  -3  311.87   17.60
  -4   5  -3  300.87   17.20
   6  -5   3   58.69   11.80
  -6   5  -3   82.69   13.70
  -6   5  -3   91.99   14.90
   7  -5   3  175.18   22.00
  -7   5  -3  173.08   18.20
  -7   5  -3  142.09   21.50
  -7  -6   3   13.30   16.40
   7   6  -3   -3.30   13.80
   6  -6  -3   53.69   15.30
  -6  -6   3   33.00   12.80
  -6   6   3   44.10   12.40
   6   6  -3   31.90   12.00
  -6   6   3   57.29   13.80
   4  -6  -3  175.68   18.70
   4  -6  -3  175.98   18.50
  -4   6   3  178.28   16.10
  -4   6   3  161.48   15.00
  -2  -6   3  591.74   30.10
  -2  -6   3  650.73   30.50
   2   6  -3  610.44   30.10
   2   6  -3  664.23   32.20
  -1  -6   3  719.23   35.80
  -1  -6   3  759.92   33.90
   1   6  -3  658.33   33.80
   1   6  -3  729.13   33.70
   1   6  -3  711.53   33.50
   1   6  -3  728.43   35.80
   1  -6   3  149.99   12.60
   1  -6   3  145.09    9.90
   1  -6   3  155.98    9.10
  -1   6  -3  141.89   10.20
  -1   6  -3  173.88   10.10
  -1   6  -3  154.88   10.10
  -1   6  -3  144.79    9.50
   2  -6   3  984.80   47.80
  -2   6  -3  998.30   45.80
  -2   6  -3  982.20   46.10
   3  -6   3  615.64   32.10
  -3   6  -3  598.94   30.10
  -3   6  -3  623.24   30.00
   4  -6   3  587.54   36.70
  -4   6  -3  659.93   31.90
  -4   6  -3  652.93   32.20
   5  -6   3    7.50    9.40
  -5   6  -3   -3.80    7.10
  -5   6  -3   14.30    7.30
   6  -6   3   10.50   10.60
  -6  -6  -3    4.60   12.20
   6   6   3    3.80   15.10
  -6   6  -3    0.00    9.20
  -6   6  -3    1.30    9.50
  -7   6  -3   24.10   13.60
   6  -7  -3   32.70   18.60
  -6  -7   3   10.50   12.80
   6   7  -3   20.00   12.60
  -4  -7   3  162.48   15.30
   4  -7  -3  162.88   19.10
  -4  -7   3  134.59   16.30
   4  -7  -3  202.38   23.20
   4   7  -3  163.08   16.70
  -4   7   3  164.08   16.40
   3  -7  -3   94.89   14.70
   3  -7  -3   99.09   16.10
  -3  -7   3   96.69   12.00
  -3  -7   3  127.19   12.50
  -3   7   3  106.39   14.40
   3   7  -3  127.19   15.80
   3   7  -3  105.99   12.40
  -2  -7   3   63.99    9.20
  -2  -7   3   87.89   10.00
   2   7  -3   78.19    9.30
   2   7  -3   82.99    9.20
   2   7  -3   69.19   13.70
   1  -7   3 1556.94   70.39
   1  -7   3 1577.64   73.29
  -1   7  -3 1554.14   71.09
  -1   7  -3 1672.93   70.79
  -1   7  -3 1391.96   70.69
   2  -7   3  730.23   37.30
  -2   7  -3  713.33   34.30
  -2   7  -3  716.23   34.90
   3  -7   3   91.99   17.70
  -3   7  -3   61.79   11.00
   3   7   3  111.99   17.50
  -3   7  -3   78.79   10.60
   4  -7   3   19.30    9.40
  -4   7  -3    8.50   10.70
   5  -7   3   36.60   11.40
   5   7   3   24.60   12.70
  -5   7  -3   49.50    9.50
  -5   7  -3   55.89    9.70
   6  -7   3  142.19   21.50
  -6   7  -3  132.99   18.50
  -6   7  -3  120.29   18.30
   6   8  -3   -4.20   14.40
  -5  -8   3    6.30    9.90
   5   8  -3   17.00   12.60
  -4  -8   3  112.09   15.50
   4  -8  -3  121.59   18.50
  -4  -8   3   93.19   17.80
   4   8  -3  101.89   18.60
   4   8  -3  109.89   16.60
  -4   8   3  134.89   17.40
   1  -8  -3   25.40    9.90
   1  -8  -3   34.10   11.70
  -1  -8   3   24.50   10.40
  -1  -8   3   22.10    6.50
  -1   8   3   35.30    9.50
  -1   8   3   27.30   12.50
   1   8  -3   27.00   11.90
   1   8  -3   24.60    6.60
   0  -8  -3  161.38   16.20
   0  -8  -3  191.48   22.00
   0   8   3  129.19   17.30
   0   8   3  131.89   20.70
  -1  -8  -3  142.59   16.30
   1   8   3  120.09   17.60
   1   8   3  142.39   19.00
   2  -8   3  152.08   17.70
  -2   8  -3  150.18   12.20
  -2   8  -3  132.89   12.90
   3  -8   3  189.68   18.20
  -3   8  -3  163.58   14.30
  -3   8  -3  155.28   13.70
   4  -8   3   13.90    9.90
  -4  -8  -3   25.90   10.80
  -4   8  -3    3.50    8.20
  -4   8  -3   -4.90    7.50
   4   8   3    2.90   12.80
   5  -8   3  115.09   20.30
  -5   8  -3  161.28   16.30
  -5   8  -3  178.08   17.90
  -6   8  -3  112.59   21.10
   5   9  -3   48.30   15.70
  -4  -9   3   87.79   16.90
   4   9  -3   64.79   14.90
  -3  -9   3   56.09   11.20
   3   9  -3   36.40   13.90
   2  -9  -3  130.19   22.80
   2  -9  -3  117.99   20.30
  -2  -9   3   91.79   14.80
  -2   9   3  139.19   23.80
  -2   9   3  144.49   19.00
  -1  -9   3   48.90   12.70
   1  -9  -3    8.50   13.50
   1  -9  -3   20.30   11.40
   1   9  -3   42.40    9.90
   1   9  -3   44.80   12.40
  -1   9   3   24.30   14.00
   0  -9  -3   35.70   15.30
   0  -9  -3   48.60   12.60
   0   9   3   54.39   14.30
   1  -9   3   31.70   11.50
   1  -9   3   21.10    7.80
  -1  -9  -3   54.49   11.70
   1   9   3   39.80   13.40
   1   9   3   39.30   13.20
   2  -9   3  227.28   22.70
  -2   9  -3  228.68   17.00
  -2   9  -3  217.18   16.80
   3  -9   3   20.40   10.90
  -3   9  -3   10.40   12.10
  -3   9  -3   -7.30    7.20
   4  -9   3   28.20   12.00
  -4   9  -3   19.00    8.90
  -3 -10   3    8.20   11.80
   3  10  -3    1.00   15.40
  -2 -10   3   34.10   11.00
   2  10  -3   -3.50   13.20
   2  10  -3    1.10   10.20
  -1 -10   3  129.49   23.20
  -1 -10   3  107.89   16.70
   1  10  -3   71.79   11.10
   1  10  -3   95.29   16.50
   0 -10   3  270.07   24.90
   0 -10   3  298.27   25.10
   0  10  -3  262.97   25.10
   0  10  -3  278.67   20.20
   1 -10   3  128.89   20.00
  -1  10  -3   94.99   14.90
   2 -10   3   87.29   16.00
  -2  10  -3   56.49    9.90
   3 -10   3    8.60   13.90
  -3  10  -3  -12.90    8.10
  -2 -11   3   14.10   14.10
   1  11  -3  104.79   14.50
   0  11  -3   48.60   11.80
  -1  11  -3   21.10   11.00
   8   0  -4   41.10   14.60
   7   0  -4   99.39   17.10
  -7   0   4  153.38   17.20
   7   0  -4  140.39   22.20
  -6   0   4   38.90    8.30
  -6   0   4   47.40    9.30
   6   0  -4   58.49   13.20
   6   0  -4   64.19   11.70
   5   0  -4  107.39   11.00
   5   0  -4  100.79   11.30
  -5   0   4   98.49   11.70
  -5   0   4   83.39   11.60
   4   0  -4   15.90    4.70
   4   0  -4   16.30    4.90
  -4   0   4   16.20    5.40
  -4   0   4   12.90    5.50
  -4   0   4   16.00    5.10
  -3   0   4  842.82   37.50
   3   0  -4  727.03   38.20
  -3   0   4  822.92   37.20
   3   0  -4  776.92   37.00
   2   0  -4 4398.36  195.38
  -2   0   4 4702.33  195.58
  -2   0   4 4116.59  195.18
   2   0  -4 4427.66  195.38
  -2   0   4 4376.86  195.58
   2   0  -4 4189.48  195.28
   1   0  -4 3127.69  136.19
  -1   0   4 2955.70  135.89
   1   0  -4 3115.59  135.99
  -1   0   4 2936.01  135.99
   1   0  -4 3110.09  135.89
  -1   0   4 2974.70  135.89
   0   0   4  898.51   40.20
   0   0  -4  893.41   40.30
   0   0   4  911.31   40.70
   0   0  -4  865.61   40.60
   0   0  -4  811.82   40.20
   0   0  -4  901.31   40.30
   0   0   4  919.61   40.40
   1   0   4   17.90    3.60
  -1   0  -4   14.30    2.90
  -1   0  -4   10.50    2.50
  -1   0  -4   13.60    2.60
   1   0   4   11.60    2.20
  -1   0  -4   15.00    2.70
   1   0   4   12.80    2.60
  -2   0  -4   85.29    5.50
  -2   0  -4   85.99    7.20
   2   0   4   83.29    5.30
  -2   0  -4   75.79    5.40
   2   0   4   81.79    5.20
   2   0   4   93.69    7.20
   3   0   4 1941.71   90.79
   3   0   4 2074.89   90.79
  -3   0  -4 1891.01   91.49
   3   0   4 2093.19   91.69
  -3   0  -4 2081.99   91.09
  -4   0  -4  322.37   16.90
  -4   0  -4  319.97   17.60
   4   0   4  346.07   18.40
  -5   0  -4   98.29    9.70
  -5   0  -4   93.79   10.40
   5   0   4   81.39   11.00
   6   0   4   15.80    7.40
  -6   0  -4   18.20    6.90
  -7   0  -4   17.50    9.20
   7   0   4   20.20   10.60
   8  -1  -4    7.40   14.60
   8   1  -4   41.20   12.80
  -7  -1   4  223.48   19.00
   7   1  -4  196.28   18.00
   7   1  -4  146.59   30.00
   6  -1  -4  204.18   18.40
   6  -1  -4  198.38   17.50
  -6   1   4  205.18   16.90
  -6   1   4  226.58   17.00
   3  -1   4 1126.59   52.19
   3  -1   4 1127.49   50.99
  -3   1  -4 1119.09   50.99
  -3   1  -4 1136.19   51.69
   4  -1   4  625.04   30.60
   4  -1   4  576.84   28.90
  -4   1  -4  629.54   30.10
  -4   1  -4  649.04   29.30
  -5  -1  -4  127.19   11.20
  -5  -1  -4  106.09   11.00
   5   1   4  112.49   11.80
  -6  -1  -4    2.70    7.00
  -6  -1  -4   -3.00    6.80
   6  -1   4    9.60    7.50
   6   1   4  -10.70    7.10
  -6   1  -4   11.90    6.70
   8  -2  -4   -4.50   17.30
   7  -2  -4   29.40   12.50
   7  -2  -4   29.50   13.00
  -7   2   4   38.70   11.00
   7   2  -4   56.69   13.10
   7   2  -4   54.79   10.10
  -7   2   4   35.50   11.40
   1  -2  -4  195.88   12.30
  -1  -2   4  234.48   12.00
  -1  -2   4  239.18   10.50
   1  -2  -4  190.38   11.80
  -1   2   4  184.08   11.30
   1   2  -4  218.78   10.20
  -1   2   4  171.48   11.30
  -1   2   4  201.78   12.30
   1   2  -4  219.28   10.80
   1   2  -4  239.68   10.50
   0  -2   4 4415.76  189.28
   0  -2   4 4582.64  189.48
   0  -2   4 4590.44  189.38
   0  -2  -4 3810.32  190.18
   0   2  -4 4590.04  189.38
   0   2   4 3510.25  189.88
   0   2  -4 4201.48  189.08
   0   2  -4 4514.75  189.48
   0   2  -4 4497.65  189.48
   0   2   4 3728.03  190.28
   2  -2   4  802.72   36.60
   2  -2   4  756.42   36.00
   2  -2   4  818.02   35.90
  -2   2  -4  808.32   36.30
  -2   2  -4  738.13   35.70
  -2   2  -4  753.22   36.20
  -2   2  -4  806.62   36.30
  -5  -2  -4   60.29   10.10
  -5  -2  -4   57.09   10.20
   5   2   4   48.90   12.10
  -6  -2  -4  179.48   15.80
  -6  -2  -4  163.68   15.80
   6   2   4  189.48   16.00
  -7  -2  -4    4.70    9.80
   7  -2   4   39.80   11.40
   7   2   4    3.20    9.60
   7  -3  -4    4.50   14.40
   7  -3  -4    2.70   13.20
  -7  -3   4    6.20   10.70
   7   3  -4    6.20    9.10
  -7   3   4   16.50   11.40
   7   3  -4   21.90   12.60
  -7   3   4  -13.00   12.00
   6  -3  -4   26.40   11.00
  -6  -3   4   14.10    8.80
   6   3  -4   12.80    9.20
  -6   3   4   35.10   10.40
   6   3  -4   16.80    7.10
   5  -3  -4  362.76   22.40
   5  -3  -4  344.87   21.80
  -5   3   4  343.17   21.10
  -5   3   4  347.87   22.30
   4  -3  -4  461.45   24.30
  -4  -3   4  365.06   22.90
   4  -3  -4  447.06   23.70
  -4   3   4  457.45   23.80
  -4   3   4  478.25   23.10
   4   3  -4  369.16   21.70
  -2  -3   4  842.92   37.30
  -2  -3   4  781.82   38.10
   2   3  -4  830.22   37.90
   2   3  -4  819.02   37.80
   2   3  -4  790.82   37.20
   2   3  -4  791.12   37.50
   2   3  -4  856.31   37.50
  -1  -3   4  428.96   21.00
  -1  -3   4  452.65   21.40
  -1  -3   4  460.25   20.70
   1   3  -4  457.85   21.30
   1   3  -4  412.56   20.80
   1   3  -4  445.16   21.00
   1   3  -4  434.06   20.90
   1   3  -4  438.56   20.60
   1   3  -4  441.66   20.60
   1  -3   4  351.66   16.70
   1  -3   4  343.77   17.50
   1  -3   4  345.97   17.30
  -1   3  -4  331.87   16.50
  -1   3  -4  362.66   17.10
  -1   3  -4  342.67   17.00
  -1   3  -4  361.26   17.00
   2  -3   4  705.53   33.30
   2  -3   4  671.13   32.40
  -2   3  -4  693.93   33.00
  -2   3  -4  728.63   32.50
  -2   3  -4  672.43   32.90
  -2   3  -4  744.23   32.90
  -7  -3  -4    1.70   11.40
  -7   3  -4   42.80    9.00
   7   3   4    4.90   10.20
   7  -4  -4   13.30   16.70
   7  -4  -4    0.90   14.20
  -7  -4   4   17.50   11.50
  -7   4   4   20.50   13.40
   7   4  -4    2.00   12.70
  -7   4   4   14.40   12.90
   7   4  -4    7.80    9.40
   6  -4  -4   42.60   12.50
  -6  -4   4   55.09   10.80
   6  -4  -4   31.50   13.00
   6   4  -4   59.59    9.90
  -6   4   4   39.60   11.10
  -6   4   4   33.50   11.00
   5  -4  -4  189.98   18.30
   5  -4  -4  192.08   18.70
  -5   4   4  198.88   17.20
  -5   4   4  177.08   16.70
   4  -4  -4  400.36   22.60
   4  -4  -4  364.96   22.50
  -4   4   4  365.16   22.10
  -4   4   4  359.36   20.90
   3  -4  -4  442.96   25.10
   3  -4  -4  436.36   24.90
  -3  -4   4  490.45   23.90
  -3   4   4  430.76   23.30
  -3   4   4  436.76   24.50
   3   4  -4  512.75   22.90
  -2  -4   4  590.84   28.10
  -2  -4   4  612.64   28.40
  -2  -4   4  572.44   28.80
   2   4  -4  603.94   29.00
   2   4  -4  595.94   27.80
   2   4  -4  608.44   28.70
  -1  -4   4  130.49    8.30
  -1  -4   4  136.09    8.50
  -1  -4   4  130.39    8.00
   1   4  -4  118.69    7.70
   1   4  -4  122.19    7.20
   1   4  -4  124.59    8.60
   1   4  -4  133.99    8.40
   1   4  -4  134.19    7.50
   1   4  -4  121.29    9.30
   0  -4   4  574.64   25.50
   0  -4   4  544.45   25.90
   0  -4   4  565.54   26.00
   0   4  -4  535.65   26.00
   0   4  -4  544.45   26.00
   0   4  -4  560.34   26.00
   0   4  -4  524.45   25.70
   0   4  -4  573.64   25.50
   0   4  -4  564.44   26.40
   1  -4   4 1094.79   51.39
   1  -4   4 1112.39   51.89
   1  -4   4 1140.59   51.09
  -1   4  -4 1125.69   51.09
  -1   4  -4 1181.98   51.19
  -1   4  -4 1062.49   51.39
   3  -4   4  100.19    9.90
  -3   4  -4  109.19    8.80
  -3   4  -4  109.69    8.30
   4  -4   4  240.58   16.00
  -4   4  -4  221.88   14.50
  -4   4  -4  243.38   14.10
  -5  -4  -4  265.27   18.00
  -5  -4  -4  253.97   17.80
   5   4   4  267.17   19.30
   6  -4   4  197.98   18.40
  -6  -4  -4  149.59   18.30
  -6   4  -4  183.88   14.80
  -6   4  -4  188.18   15.90
   7  -4   4  177.88   21.10
  -7   4  -4  176.38   17.00
   7  -5  -4   43.30   30.20
  -7  -5   4   16.10   13.40
   7   5  -4   11.30   13.60
   7   5  -4    3.90   11.00
  -6  -5   4   54.19   11.60
   6  -5  -4    7.00   13.40
   6  -5  -4   28.50   13.70
  -6   5   4    5.40   11.80
   5  -5  -4   61.29   12.00
   5  -5  -4   75.09   17.00
  -5  -5   4   42.00    9.90
   5   5  -4   37.00    8.70
  -5   5   4   58.09   10.60
   4  -5  -4  657.73   35.50
   4  -5  -4  667.13   34.80
  -4   5   4  638.54   33.30
  -4   5   4  681.43   34.60
  -1  -5   4  322.57   17.30
  -1  -5   4  307.87   15.70
   1  -5  -4  257.57   19.90
  -1  -5   4  305.57   15.40
  -1  -5   4  303.47   15.30
   1   5  -4  321.67   17.40
   1   5  -4  271.67   15.30
   1   5  -4  321.87   15.60
   1   5  -4  293.37   15.00
  -1   5   4  263.77   20.60
   1   5  -4  301.67   15.10
   0  -5   4 1434.26   61.39
   0  -5   4 1362.86   61.79
   0  -5  -4 1404.46   64.99
   0  -5  -4 1290.87   63.29
   0  -5   4 1310.87   62.79
   0  -5   4 1393.86   61.79
   0   5  -4 1406.76   61.79
   0   5   4 1255.67   62.89
   0   5  -4 1322.77   61.89
   0   5   4 1373.56   64.69
   0   5  -4 1356.76   61.69
   0   5  -4 1381.46   61.39
  -1  -5  -4 1245.68   58.99
   1  -5   4 1244.18   58.59
   1  -5   4 1202.58   57.29
  -1   5  -4 1289.47   57.49
   1   5   4 1247.68   60.09
  -1   5  -4 1312.07   57.49
   1   5   4 1263.97   58.39
   2  -5   4  549.25   28.40
  -2   5  -4  548.35   27.00
  -2   5  -4  594.24   27.40
   3  -5   4  806.62   39.70
  -3   5  -4  805.42   38.30
  -3   5  -4  825.72   38.50
   4  -5   4  113.69   13.10
  -4   5  -4  126.49   11.90
  -4   5  -4  131.09   10.80
   6  -5   4  259.97   22.10
  -6   5  -4  289.37   20.00
  -6   5  -4  290.87   19.20
   7  -5   4   43.00   13.20
  -7   5  -4   42.10   12.90
  -7  -6   4    3.30   17.90
   7   6  -4   12.10   14.80
  -4  -6   4   82.59   12.90
  -4   6   4  101.79   15.10
   1  -6   4  269.17   17.60
  -1   6  -4  284.27   15.50
   1   6   4  330.47   18.90
  -1   6  -4  263.27   15.30
   2  -6   4   57.49   11.20
  -2   6  -4   64.49    8.00
  -2   6  -4   71.39    8.60
   4  -6   4  222.38   19.10
  -4   6  -4  229.88   15.80
  -4   6  -4  228.68   15.50
   5  -6   4  194.98   18.30
  -5   6  -4  161.48   15.60
  -5   6  -4  199.48   15.70
   6  -6   4   21.60   10.70
  -6   6  -4    2.50    9.40
  -6   6  -4   10.90    9.10
  -7   6  -4   -4.00   13.30
   7   7  -4    8.00   21.40
  -6  -7   4  121.09   21.70
   6   7  -4   73.99   14.00
  -5  -7   4   37.00   11.10
   5   7  -4   55.09   12.30
  -4  -7   4    8.10    8.80
  -4  -7   4    2.20    7.60
   4  -7  -4   16.70   14.00
   4  -7  -4   33.00   12.20
   4   7  -4   15.60   11.60
  -4   7   4   25.30   10.40
  -2  -7   4  226.68   14.30
  -2  -7   4  205.08   13.90
   2  -7  -4  170.38   21.40
   2   7  -4  207.38   13.80
  -2   7   4  201.68   22.40
   2   7  -4  233.48   17.50
   2   7  -4  216.98   13.40
   2  -7   4   37.60    8.60
  -2   7  -4   40.00    6.50
  -2   7  -4   40.60    6.40
   4  -7   4  162.08   17.20
  -4   7  -4  132.89   13.50
  -4   7  -4  152.38   14.30
   5  -7   4   37.90   10.80
  -5   7  -4   35.70    9.10
  -5   7  -4   25.90    9.00
   6  -7   4   46.40   12.50
  -6   7  -4   40.30   11.10
  -6   7  -4   28.10   10.60
   6   8  -4   29.50   14.40
  -5  -8   4   21.70   10.40
  -5  -8   4   40.70   13.40
   5   8  -4   40.20   13.30
  -4  -8   4    0.90   14.90
  -4  -8   4   -7.90    8.40
   4  -8  -4   38.20   15.70
   4   8  -4    4.70   10.80
   4   8  -4    4.70   18.90
  -1  -8   4  283.77   16.80
  -1  -8   4  284.37   21.40
   1   8  -4  277.37   16.90
   1   8  -4  282.17   21.10
   1   8  -4  257.37   16.30
  -1  -8  -4    2.30   10.40
   1  -8   4   19.70   12.50
   1   8   4    8.10   12.60
  -1   8  -4   19.60    8.00
   1   8   4  -27.50   15.90
  -1   8  -4   16.60    6.50
   3  -8   4  155.18   18.10
  -3  -8  -4  170.38   18.70
  -3   8  -4  169.08   14.40
  -3   8  -4  153.48   13.70
   4  -8   4   18.60   10.50
  -4   8  -4   14.50    8.90
   5  -8   4  131.89   20.80
  -5   8  -4   91.19   16.50
  -5   8  -4  102.39   15.30
  -6   8  -4   73.89   18.70
   5   9  -4  -12.70   15.00
  -4  -9   4   10.50   10.80
   4   9  -4    0.50   13.10
  -2  -9   4  187.38   17.50
   2  -9  -4  212.38   23.70
  -2   9   4  245.48   26.50
   2   9  -4  183.88   16.80
  -2   9   4  249.28   23.10
   2   9  -4  175.68   22.40
  -1  -9   4  155.88   14.00
  -1  -9   4  128.69   20.20
   1  -9  -4  135.79   20.80
   1  -9  -4  146.49   25.60
  -1   9   4  136.19   25.00
   1   9  -4  153.08   20.10
   1   9  -4  102.29   13.50
   0   9   4  104.19   22.60
   1  -9   4  162.78   17.10
   1  -9   4  158.48   20.70
  -1   9  -4  130.89   13.70
  -1   9  -4  146.19   14.10
   2  -9   4   78.09   13.70
  -2   9  -4   70.49   12.60
  -2   9  -4   90.39   12.50
   3  -9   4  273.67   22.50
  -3   9  -4  214.68   18.90
  -3   9  -4  219.38   17.00
  -4   9  -4   55.59    9.80
  -4   9  -4   69.09   11.80
  -5   9  -4   77.89   13.30
  -4 -10   4  180.78   31.40
   4  10  -4  204.88   29.90
  -3 -10   4   42.10   12.40
   3  10  -4    8.20   15.40
  -2 -10   4   43.90   11.70
   2  10  -4   48.70   10.60
   2  10  -4   46.20   15.10
  -1 -10   4   10.10    9.90
  -1 -10   4    7.60   14.50
   1  10  -4    8.60   13.50
   1  10  -4    7.40    8.90
   0 -10   4  124.39   22.20
   0  10  -4  111.09   22.10
   0  10  -4  119.19   15.50
   1 -10   4   54.39   14.20
  -1  10  -4   34.60    9.30
   2 -10   4  219.48   26.30
  -2  10  -4  254.27   18.50
   3 -10   4   59.19   15.00
  -3  10  -4   43.20    9.80
  -2 -11   4    6.70   13.80
  -1 -11   4   38.80   19.10
   1  11  -4   30.70   18.90
   1  11  -4   11.20   11.50
   0 -11   4    8.20   15.40
   0  11  -4   -9.00   10.60
   0  11  -4   21.40   16.80
  -1  11  -4   60.79   12.00
   8   0  -5   -4.10   17.00
   7   0  -5   15.20   14.70
   7   0  -5   -6.40   10.40
  -6   0   5  176.58   16.70
   6   0  -5  179.98   16.30
  -6   0   5  157.48   15.90
   6   0  -5  186.68   16.70
   5   0  -5  510.95   26.50
  -5   0   5  510.25   26.90
  -5   0   5  473.95   26.00
   5   0  -5  493.15   25.70
  -4   0   5  227.58   14.80
  -4   0   5  228.08   14.60
   4   0  -5  239.68   14.60
  -3   0   5  434.56   22.30
  -3   0   5  462.35   22.60
   3   0  -5  438.56   22.30
   2   0  -5  555.94   26.40
  -2   0   5  505.55   25.70
   2   0  -5  536.45   25.90
  -2   0   5  558.44   26.00
   2   0  -5  526.35   25.50
   1   0  -5 2052.79   95.79
  -1   0   5 2212.98   95.99
  -1   0   5 2097.99   96.09
   1   0  -5 2168.78   96.49
  -1   0   5 2137.89   95.99
   1   0  -5 2121.99   95.89
   0   0   5  253.27   12.80
   0   0   5  274.37   12.60
   0   0  -5  233.08   12.20
   0   0  -5  237.68   12.30
   0   0  -5  255.57   12.20
   0   0  -5  257.97   12.90
   1   0   5 1442.36   62.69
   1   0   5 1361.16   62.49
  -1   0  -5 1336.17   62.39
  -1   0  -5 1441.96   62.39
  -1   0  -5 1327.77   62.19
   1   0   5 1411.76   62.29
   1   0   5 1346.17   62.19
  -1   0  -5 1384.86   62.49
   2   0   5   65.69    6.80
  -2   0  -5   66.89    5.80
  -2   0  -5   56.79    5.00
   2   0   5   65.59    5.00
   2   0   5   54.59    4.40
  -2   0  -5   52.49    4.90
  -3   0  -5   11.80    3.60
  -3   0  -5   10.30    3.90
   3   0   5   13.90    4.40
   4   0   5 1104.89   52.29
  -4   0  -5 1105.59   51.49
  -4   0  -5 1103.09   50.89
  -5   0  -5  205.68   14.10
   5   0   5  196.08   15.30
  -5   0  -5  203.68   13.40
   6   0   5  233.48   17.50
  -6   0  -5  227.28   16.50
  -6   0  -5  234.88   17.20
  -7   0  -5    5.60    9.10
   7   0   5   25.90    9.30
   8  -1  -5   30.40   25.40
  -7  -1   5    3.90    9.90
   7  -1  -5   -2.40   11.10
   7   1  -5    3.80   12.40
  -7   1   5    1.00   11.10
  -7   1   5    7.50   10.50
   7   1  -5    4.00    9.30
   6  -1  -5   15.90    9.60
   6  -1  -5   17.30    9.00
   6   1  -5   56.59    9.40
  -6   1   5   16.90    9.20
   4  -1  -5  859.81   40.30
   4  -1  -5  793.72   39.20
  -4   1   5  854.01   40.20
  -4   1   5  820.52   40.00
   3  -1  -5  388.26   20.70
  -3  -1   5  386.96   19.60
  -3  -1   5  395.16   20.40
  -3   1   5  416.56   20.50
  -3   1   5  389.56   20.50
   3   1  -5  374.46   19.70
  -2  -1   5  245.28   12.50
  -2  -1   5  240.58   13.30
  -2  -1   5  209.38   11.70
   2   1  -5  224.88   12.40
   2   1  -5  242.38   12.00
   2   1  -5  244.38   11.80
   1  -1  -5  805.62   37.20
   1  -1  -5  770.02   36.10
   1  -1  -5  774.82   36.40
  -1   1   5  782.92   36.80
  -1   1   5  773.52   36.20
  -1   1   5  810.72   36.80
   0  -1   5  668.73   30.00
   0  -1   5  653.83   29.90
   0  -1   5  714.53   30.40
   0   1  -5  644.04   30.00
   0   1  -5  623.74   30.20
   0   1  -5  615.34   29.90
   0   1  -5  645.44   29.80
   3  -1   5  374.36   18.00
  -3  -1  -5  308.47   17.20
  -3  -1  -5  300.37   17.10
   3  -1   5  346.97   16.20
   3   1   5  309.17   18.20
  -3   1  -5  373.46   16.30
   3   1   5  278.17   16.30
  -3   1  -5  380.36   17.40
  -6  -1  -5  158.38   15.00
  -6  -1  -5  181.78   15.50
   6   1   5  159.28   16.30
  -7  -1  -5  101.09   17.00
  -7  -1  -5  105.69   17.70
   7   1   5  118.19   15.40
   7  -2  -5   63.59   14.90
  -7   2   5  101.39   19.80
  -7   2   5  108.19   18.90
   5  -2  -5   73.89   12.40
   5  -2  -5   92.09   13.50
  -5   2   5   68.39   12.70
  -5   2   5   71.89   12.60
   2  -2  -5  232.88   13.10
   2  -2  -5  204.68   12.30
   2  -2  -5  231.68   14.20
  -2   2   5  234.18   13.70
  -2   2   5  237.78   12.80
  -2   2   5  203.68   12.70
  -1  -2  -5  681.93   31.40
  -1  -2  -5  691.63   32.00
  -1  -2  -5  595.64   31.40
   1   2   5  700.93   32.10
   1   2   5  645.14   31.50
   1   2   5  719.33   32.40
  -3  -2  -5  125.99    9.60
  -3  -2  -5  108.99    8.60
   3   2   5  106.19    7.70
   3   2   5  118.99   10.50
  -4  -2  -5   89.49    9.80
  -4  -2  -5   76.49    9.40
   4   2   5   87.89   11.10
  -6  -2  -5   50.79    9.50
   6  -2   5   30.60    7.20
   6  -2   5   37.00    8.80
  -6   2  -5   35.40    7.80
   6   2   5   56.09   12.60
  -7  -2  -5   41.70   11.10
  -7  -2  -5   54.19   12.20
   7   2   5   40.50   11.20
   7  -3  -5   73.19   16.30
   7   3  -5   37.20   16.50
   6  -3  -5   89.29   18.60
  -6  -3   5   67.29   11.00
   6  -3  -5   82.99   17.20
  -6   3   5  105.29   16.30
  -6   3   5   71.99   11.80
   6   3  -5   64.59   14.80
   6   3  -5   67.89   12.60
  -2  -3   5 2082.99   89.39
  -2  -3   5 1911.41   90.09
   2   3  -5 1922.21   89.19
   2   3  -5 2022.20   89.59
   0  -3   5  583.54   26.50
   0  -3   5  616.04   26.70
   0  -3   5  525.35   26.60
   0   3  -5  572.94   26.60
   0   3  -5  558.64   26.30
   0   3  -5  564.24   26.40
   0   3  -5  559.24   26.60
   0   3  -5  525.55   26.00
   0   3  -5  613.74   26.10
  -2  -3  -5  655.13   33.40
   2  -3   5  737.33   32.50
   2  -3   5  681.13   33.00
  -2   3  -5  722.03   32.40
  -2   3  -5  714.83   32.70
   2   3   5  666.23   34.40
   3  -3   5 1235.18   59.49
  -3   3  -5 1337.67   58.49
  -3   3  -5 1274.47   58.89
  -6  -3  -5   11.30    8.70
  -6  -3  -5   -1.30    8.60
   6  -3   5    1.50    7.70
  -6   3  -5   10.90    6.70
   6   3   5    6.10    8.10
  -7  -3  -5   41.90   11.80
  -7  -3  -5   49.30   12.80
  -7  -4   5   62.09   13.60
   7  -4  -5   34.40   18.20
  -7   4   5   28.70   13.80
   7   4  -5   65.99   11.50
  -7   4   5   68.59   15.90
   6  -4  -5  217.88   24.00
   6  -4  -5  212.48   23.00
  -6   4   5  245.38   21.30
  -6   4   5  233.78   20.60
  -5  -4   5   32.50    8.70
   5  -4  -5   27.70   10.70
   5  -4  -5   33.80   10.80
   5   4  -5   33.10    7.50
   5   4  -5   32.10    7.80
  -5   4   5    9.40    8.80
   3  -4  -5  383.36   24.30
  -3  -4   5  482.05   20.80
   3  -4  -5  385.96   23.60
  -3  -4   5  459.35   22.30
   3   4  -5  472.45   21.00
  -3   4   5  359.06   21.90
  -3   4   5  366.86   23.20
  -1  -4   5  896.81   41.20
  -1  -4   5  914.21   40.80
   1   4  -5  906.61   41.10
   1   4  -5  900.21   40.60
   1   4  -5  770.32   40.70
   1   4  -5  918.81   41.70
   1   4  -5  902.01   41.20
   0  -4   5  648.14   32.50
   0  -4   5  696.13   32.00
   0  -4   5  714.93   32.20
   0   4  -5  675.53   32.10
   0   4  -5  701.53   31.50
   0   4  -5  714.83   32.40
   0   4  -5  678.73   32.10
   1  -4   5  122.09    8.00
   1  -4   5  115.19    6.90
   1  -4   5  125.29    9.10
  -1   4  -5  122.99    7.90
  -1   4  -5  123.49    8.00
  -1   4  -5  122.59    8.20
   2  -4   5 1484.65   69.99
   2  -4   5 1555.74   69.29
  -2   4  -5 1521.25   69.19
  -2   4  -5 1529.95   69.39
   3  -4   5  665.53   32.90
  -3   4  -5  663.33   31.80
  -3   4  -5  662.83   31.50
   5  -4   5   69.39   12.70
  -5   4  -5   66.99   10.50
  -5   4  -5   50.79    8.30
   6  -4   5   26.80    9.20
  -6  -4  -5    9.30    9.60
  -6   4  -5   12.40    8.10
  -6   4  -5   12.20    7.70
   6   4   5    8.80    9.60
   7  -4   5   47.80   11.60
  -7   4  -5   43.50   10.00
  -7  -5   5   35.60   14.60
   7   5  -5   17.00   12.40
   6  -5  -5   73.19   15.60
  -6  -5   5   39.70   12.60
  -6   5   5   59.29   13.10
  -6   5   5   73.89   14.10
   5  -5  -5  110.29   20.00
   5  -5  -5   93.89   18.30
  -5   5   5   61.09   11.40
  -5   5   5   78.89   12.30
   4  -5  -5    9.30    9.50
  -4  -5   5   61.89   12.10
   4  -5  -5   14.90   10.70
  -2  -5   5  381.86   20.30
   2  -5  -5  482.05   24.60
  -2  -5   5  379.46   21.40
  -2  -5   5  388.16   20.70
  -2   5   5  469.15   23.60
   2   5  -5  392.26   21.30
   2   5  -5  389.86   21.30
  -1  -5   5 1021.40   46.70
  -1  -5   5  992.30   47.00
  -1  -5   5 1074.69   46.70
  -1  -5   5 1019.10   47.70
   1   5  -5  957.40   46.40
   1   5  -5  991.00   46.80
   1   5  -5 1038.30   47.70
   1   5  -5 1022.40   47.70
   1   5  -5 1007.90   46.60
   3  -5   5  596.64   29.40
  -3  -5  -5  497.65   29.60
   3   5   5  495.85   31.30
  -3   5  -5  614.84   28.10
  -3   5  -5  619.54   27.80
  -4  -5  -5   58.49    9.40
   4  -5   5   59.79   11.80
  -4   5  -5   66.79   10.20
   4   5   5   69.19   15.80
  -4   5  -5   63.39    9.40
   5  -5   5   20.50    8.90
  -5  -5  -5    4.60    8.00
  -5   5  -5   13.40    7.10
   5   5   5   -2.90    9.00
  -5   5  -5   15.10    7.40
   6  -5   5   75.49   16.90
  -6   5  -5   57.89   10.20
  -6   5  -5   84.49   13.30
   7  -5   5   65.69   14.50
   6  -6  -5   15.50   30.00
  -6  -6   5    2.10   12.30
   6   6  -5   32.20   12.00
   5  -6  -5  160.88   24.10
   5  -6  -5  187.78   25.90
  -5   6   5  154.18   19.00
   3  -6  -5   27.20   19.10
   3  -6  -5   19.40   10.50
  -3  -6   5   18.50    6.10
  -3  -6   5   26.50    7.00
  -3   6   5    5.80    8.40
   3   6  -5   20.80    7.30
  -2  -6   5  653.73   30.70
  -2  -6   5  628.74   30.80
   2  -6  -5  547.05   35.30
  -2  -6   5  646.04   30.20
  -2   6   5  576.34   35.70
   2   6  -5  649.43   30.00
   2   6  -5  664.83   31.80
   2   6  -5  639.54   30.80
   1  -6   5  251.27   16.40
  -1   6  -5  233.98   14.00
  -1   6  -5  250.57   14.20
  -3  -6  -5   87.69   14.10
   3  -6   5  136.49   13.30
  -3   6  -5  121.19   11.00
  -3   6  -5  121.39   10.60
  -4  -6  -5  164.38   17.50
   4  -6   5  183.58   16.20
   4   6   5  153.58   19.10
  -4   6  -5  182.58   14.80
  -4   6  -5  178.48   17.50
  -5   6  -5   77.39   13.10
  -5   6  -5  100.99   13.60
   6  -6   5  369.76   26.20
  -6   6  -5  360.86   23.10
  -6   6  -5  341.07   23.60
  -7   6  -5    9.20   13.50
  -6  -7   5   39.30   13.70
   6   7  -5   -7.90   13.10
   5  -7  -5   19.60   17.10
  -5  -7   5    1.60   10.60
   5   7  -5   -9.00   10.40
   4  -7  -5   68.99   16.00
   4  -7  -5   75.59   14.50
  -4   7   5   69.89   12.10
  -3  -7   5  426.26   24.70
  -3  -7   5  429.76   24.30
   3   7  -5  476.15   26.50
   3   7  -5  448.36   24.80
  -2  -7   5    4.50    5.80
   2  -7  -5   29.40   10.90
  -2  -7   5    3.20    5.70
  -2  -7   5   -5.90    8.70
   2   7  -5    6.90    5.90
  -2   7   5    4.10    9.50
   2   7  -5    6.30    5.30
   2   7  -5   -4.10    8.00
   2  -7   5  437.36   25.40
  -2   7  -5  426.66   22.50
  -2   7  -5  402.36   22.20
   4  -7   5   27.20   10.00
  -4   7  -5   33.00    8.30
  -4   7  -5   30.00    7.70
   5  -7   5  733.13   40.40
  -5   7  -5  764.62   38.30
  -5   7  -5  737.23   38.30
   6  -7   5   32.20   12.10
  -6   7  -5   27.60   10.90
  -6  -8   5   -9.50   22.50
   6   8  -5    9.40   14.60
  -5  -8   5   70.99   14.60
   5   8  -5  111.89   20.20
  -4  -8   5   87.79   16.90
   4  -8  -5   41.90   17.80
  -4  -8   5   64.99   10.90
   4  -8  -5   53.49   16.50
   4   8  -5   89.19   16.60
   4   8  -5   85.19   12.80
   3  -8  -5   -3.70   13.60
   3  -8  -5   11.30   15.80
  -3   8   5   21.80   17.00
  -1  -8   5   59.49   11.10
  -1  -8   5   45.10    7.60
   1  -8  -5   58.69   13.40
   1   8  -5   51.59   11.10
   1   8  -5   73.79   10.20
  -1   8   5   83.49   16.50
  -1   8   5   39.20   12.20
   1   8  -5   59.49   10.60
   0  -8   5  131.99   17.70
   0  -8   5  123.19   11.20
   0   8  -5  140.79   11.80
   0   8   5  121.89   19.40
   0   8  -5  140.69   12.20
   0   8   5  139.99   22.90
   1  -8   5  345.37   24.90
  -1   8  -5  355.06   19.90
  -3  -8  -5   33.20   12.80
   3  -8   5   47.00   10.80
  -3   8  -5   28.90    7.50
   3   8   5   44.50   15.90
   4  -8   5  379.36   28.00
  -4   8  -5  425.06   24.30
  -4   8  -5  375.56   23.20
   5  -8   5  119.59   20.70
  -5   8  -5   90.59   15.40
  -5   8  -5   80.99   16.50
   5   9  -5   19.20   15.60
  -4  -9   5  105.49   17.90
   4   9  -5  130.99   21.70
   3  -9  -5   25.00   17.00
   3   9  -5   10.70   13.40
   2  -9  -5  -26.60   14.70
  -2  -9   5   12.40    9.00
   2   9  -5    8.90    8.00
   2   9  -5    9.40    8.00
   2   9  -5    2.50   11.20
  -1  -9   5  233.68   22.80
  -1  -9   5  213.48   16.90
   1   9  -5  246.88   22.10
   1   9  -5  238.68   16.90
   1   9  -5  225.38   17.00
   0  -9   5  107.19   12.70
   0  -9   5  112.19   19.30
   0  -9  -5  131.99   22.00
   0   9  -5  110.89   13.00
   0   9   5   76.99   18.50
   0   9   5   68.39   16.00
   0   9  -5  117.89   12.90
   1  -9   5  521.55   33.10
  -1   9  -5  522.25   27.50
  -1   9  -5  498.45   27.40
   2  -9   5  140.09   19.30
  -2   9  -5  115.99   13.50
  -2   9  -5  104.59   13.60
   3  -9   5  204.08   21.50
  -3   9  -5  184.08   17.10
  -3   9  -5  176.58   15.40
   4  -9   5   38.50   12.40
  -4   9  -5   33.20   11.30
  -4   9  -5   29.50    9.40
  -5   9  -5   10.90   12.10
  -4 -10   5  -12.40   13.00
   4  10  -5   -2.80   16.70
  -3 -10   5   -4.60   11.60
   3  10  -5  -19.10   15.00
  -2 -10   5  129.79   18.40
   2  10  -5  131.99   17.80
   2  10  -5  140.39   24.40
  -1 -10   5   42.70   15.30
  -1 -10   5   23.70   13.70
   1  10  -5   47.20   10.10
   1  10  -5   58.39   15.30
   0 -10   5  116.49   22.80
   0  10  -5  118.79   23.30
   0  10  -5   96.19   15.50
   1 -10   5   51.79   15.30
  -1  10  -5   56.19    9.50
   2 -10   5   45.20   15.40
  -2  10  -5   49.40    9.30
   3 -10   5   17.20   13.60
  -3  10  -5   -3.80    8.40
  -3 -11   5    1.10   14.60
  -2 -11   5   35.80   17.40
   2  11  -5   31.60   19.90
  -1 -11   5   59.69   19.20
   1  11  -5   29.00   17.50
   1  11  -5   30.90   12.10
   0 -11   5   47.00   16.90
   0  11  -5   26.20   16.40
   0  11  -5   27.10   11.10
   1 -11   5   17.40   15.10
  -7   0   6  178.28   21.10
  -7   0   6  203.48   20.10
   7   0  -6  190.48   20.60
   6   0  -6    0.60    8.90
  -6   0   6    8.00    9.10
  -6   0   6    2.30    8.30
   5   0  -6   63.89   11.90
  -5   0   6   76.19   13.80
  -5   0   6   69.39   11.70
   4   0  -6   30.50    6.70
  -4   0   6   27.70    6.90
  -4   0   6   23.40    6.30
   3   0  -6 1047.20   49.20
  -3   0   6 1012.40   49.00
  -3   0   6 1095.79   49.40
  -2   0   6 1093.09   50.29
  -2   0   6 1125.39   50.39
   2   0  -6 1019.80   49.90
   2   0  -6 1111.99   50.59
   1   0  -6    6.00    4.20
  -1   0   6    3.90    3.80
  -1   0   6    5.00    2.60
   1   0  -6    6.20    3.80
   1   0  -6    8.70    2.70
  -1   0   6    7.40    3.30
   0   0  -6  227.48   11.70
   0   0   6  238.58   12.30
   0   0  -6  223.58   11.50
   0   0  -6  236.28   13.00
   1   0   6  240.08   12.20
   1   0   6  209.68   11.20
  -1   0  -6  214.18   11.50
  -1   0  -6  212.98   11.20
  -1   0  -6  231.98   11.90
  -1   0  -6  228.58   12.30
   1   0   6  220.98   12.00
  -2   0  -6  773.52   34.00
   2   0   6  734.43   34.50
  -2   0  -6  763.82   34.10
   2   0   6  675.03   33.70
   2   0   6  692.83   33.50
   3   0   6  810.92   39.60
  -3   0  -6  851.51   38.80
  -3   0  -6  830.82   39.00
   4   0   6 1535.05   71.79
  -4   0  -6 1519.55   70.39
  -4   0  -6 1573.44   71.09
  -5   0  -6  141.19   12.50
  -5   0  -6  137.89   11.60
   6   0   6   11.30    7.60
  -6   0  -6   11.10    7.90
  -6   0  -6    4.20    7.20
  -7   0  -6   37.20   10.30
   7   0   6   35.40   10.20
  -7  -1   6   57.29   12.20
   7  -1  -6   80.09   14.80
  -7   1   6   99.89   18.70
   6  -1  -6  192.38   19.50
  -6   1   6  212.08   18.60
  -6   1   6  218.08   18.90
   5  -1  -6   -0.10   13.50
  -5  -1   6    5.00    6.60
  -5  -1   6   -0.30    7.50
  -5   1   6   19.00    7.80
   5   1  -6    6.30    6.40
  -5   1   6   15.90   11.50
  -4  -1   6  365.96   18.80
   4  -1  -6  296.77   20.00
  -4  -1   6  398.46   20.00
   4   1  -6  357.26   18.80
  -4   1   6  301.97   19.90
  -4   1   6  305.37   19.50
   2  -1  -6  995.40   39.10
  -2  -1   6  768.82   38.80
   2   1  -6  739.53   39.80
   0  -1  -6    1.90    4.00
   0  -1  -6   11.00    3.00
   0   1   6    9.90    3.70
   0   1   6    5.00    3.40
   2  -1   6 1071.29   49.60
  -2  -1  -6 1223.08   49.20
   2  -1   6  976.40   48.70
   2  -1   6  980.30   48.80
   2   1   6 1128.99   48.70
   2   1   6 1193.18   50.09
  -2   1  -6 1014.70   48.70
  -2   1  -6 1058.29   48.70
  -2   1  -6  997.20   49.10
  -2   1  -6 1076.09   49.20
   3  -1   6 1067.89   50.89
   3  -1   6 1129.69   52.29
  -3   1  -6 1146.59   51.29
  -3   1  -6 1135.49   51.79
   5  -1   6 1002.90   49.30
  -5   1  -6 1007.90   46.30
  -5   1  -6  957.60   50.59
   6  -1   6   48.00    9.90
  -6  -1  -6   69.19   13.40
  -6  -1  -6   66.69   14.60
  -6   1  -6   74.19   12.50
   6   1   6   85.89   14.60
  -7  -1  -6   28.90   11.00
  -7  -1  -6   -1.30   10.60
   7  -1   6   17.00    9.50
   7   1   6   14.50    9.50
  -7   1  -6   22.80    9.90
  -7  -2   6   54.79   11.80
  -7   2   6   68.09   14.20
   7   2  -6   43.00   11.00
   6  -2  -6  926.91   49.99
   6  -2  -6 1071.09   50.99
  -6   2   6 1005.40   49.60
  -6   2   6  995.70   49.99
  -5  -2   6   82.69   10.60
  -5  -2   6   68.89   12.20
  -5   2   6  115.99   18.80
   5   2  -6   57.49   10.20
   2  -2  -6  293.87   16.60
   2  -2  -6  331.17   18.40
  -2   2   6  331.47   17.90
  -2   2   6  318.17   17.00
   0  -2   6 1411.76   60.29
   0  -2   6 1347.37   59.99
   0  -2   6 1403.06   60.29
   0   2  -6 1382.76   60.39
   0   2  -6 1433.26   60.29
   0   2  -6 1291.67   60.29
   0   2  -6 1291.37   59.99
   0   2   6 1070.49   60.99
   1  -2   6  721.53   34.30
   1  -2   6  786.02   34.70
   1  -2   6  765.32   34.40
  -1   2  -6  764.52   34.70
  -1   2  -6  729.43   34.30
  -1   2  -6  737.93   34.20
  -1   2  -6  713.83   34.00
   2  -2   6 4157.38  176.28
   2  -2   6 4091.99  175.58
  -2   2  -6 3583.54  175.28
  -2   2  -6 4089.09  175.88
  -2   2  -6 3704.03  175.88
  -5  -2  -6   77.89   11.30
  -5  -2  -6   79.09   11.30
   5   2   6   65.29   12.50
  -7  -2  -6   17.90   11.20
  -7  -2  -6   13.50   11.90
   7   2   6   18.00   16.10
  -7  -3   6   33.70   12.00
   7  -3  -6  -11.10   16.00
  -7   3   6  -20.90   16.00
  -7   3   6   37.10   13.60
   7   3  -6   16.50    9.50
   5  -3  -6  594.24   32.60
   5  -3  -6  620.24   33.40
  -5   3   6  591.04   32.10
  -5   3   6  568.24   32.90
  -4  -3   6  387.16   20.40
  -4  -3   6  395.86   22.70
   4   3  -6  395.66   21.20
  -2  -3   6   81.49    7.00
  -2  -3   6   77.79    9.00
   2   3  -6   79.29    7.20
  -1  -3   6  641.44   29.30
   1  -3  -6  522.65   30.60
  -1  -3   6  632.84   28.60
   1   3  -6  644.34   28.40
   1   3  -6  641.44   28.60
   1   3  -6  643.74   29.20
   1   3  -6  622.84   29.50
  -1   3   6  516.05   30.50
   0  -3   6 1021.30   49.40
   0  -3  -6 1154.78   50.99
   0  -3   6 1060.79   49.40
   0   3  -6  998.10   49.40
   0   3  -6  993.60   49.50
   0   3  -6 1082.69   49.00
   0   3   6 1267.07   50.69
   1  -3   6 9723.73  433.46
   1  -3   6 9920.71  433.06
   1  -3   6 9578.24  433.26
  -1   3  -6 9377.56  432.96
  -1   3  -6 9999.00  433.16
   2  -3   6    8.90    3.30
   2  -3   6    6.50    3.80
  -2  -3  -6    7.40    5.10
  -2   3  -6    9.10    3.60
   2   3   6    8.60    6.40
  -2   3  -6   10.20    3.50
   3  -3   6  363.96   18.20
   3  -3   6  354.06   19.50
  -3   3  -6  362.06   18.10
  -3   3  -6  349.37   18.60
   5  -3   6   80.99   17.20
  -5  -3  -6   47.40    8.50
  -5  -3  -6   43.50    8.30
   5   3   6   46.80    9.80
   7  -3   6   40.10   10.60
  -7   3  -6   22.50    9.80
   7  -4  -6    5.80   17.60
  -7  -4   6   31.30   14.40
   7   4  -6   16.90   10.10
   6  -4  -6   28.10   14.30
  -6  -4   6    6.10   10.30
  -6   4   6   13.00   12.50
   6   4  -6    1.80    8.00
   6   4  -6   -4.50   10.40
  -6   4   6   17.80   10.60
   5  -4  -6  331.47   23.70
   5  -4  -6  321.37   24.60
  -5   4   6  325.67   22.10
  -5   4   6  288.47   22.60
  -3  -4   6   42.00    7.10
  -3  -4   6   57.79    9.80
   3   4  -6   40.90    7.80
  -1  -4   6  893.51   40.00
  -1  -4   6  837.22   40.30
   1   4  -6  845.92   40.10
   1   4  -6  882.71   39.70
   1   4  -6  844.92   39.50
   0  -4   6 1157.58   49.20
   0  -4   6 1086.79   49.50
   0  -4  -6  919.91   50.79
   0   4  -6 1113.49   49.30
   0   4  -6 1107.09   48.50
   0   4   6 1046.90   51.59
   0   4   6  990.40   50.39
   0   4  -6 1072.59   49.10
   0   4  -6 1128.79   48.50
   1  -4   6  300.87   15.20
   1  -4   6  291.97   16.00
  -1   4  -6  288.87   15.10
  -1   4  -6  295.87   15.10
  -1   4  -6  287.57   15.40
   2  -4   6 1448.85   66.79
   2  -4   6 1449.95   65.89
  -2   4  -6 1466.05   65.89
  -2   4  -6 1416.06   65.99
   3  -4   6   97.69   10.10
  -3  -4  -6   59.79   11.80
   3   4   6   66.79   13.70
  -3   4  -6   94.59    8.40
  -3   4  -6   90.79    8.80
   4  -4   6  244.48   16.70
  -4   4  -6  246.78   15.30
  -4   4  -6  233.38   14.40
   5  -4   6  293.87   19.90
  -5   4  -6  290.47   17.50
  -5   4  -6  276.77   18.60
   6  -4   6   77.49   15.20
  -6   4  -6   39.40    9.30
  -6   4  -6   53.89    8.80
   7  -4   6   36.90   11.70
   6  -5  -6   31.20   15.60
  -6  -5   6   26.80   11.90
   6   5  -6   31.10    9.30
   6   5  -6   51.49   11.80
   5  -5  -6  191.68   24.60
   5  -5  -6  170.48   20.80
  -5   5   6  171.48   18.00
  -4  -5   6  146.59   14.80
   3  -5  -6   48.30   11.70
   3  -5  -6   53.69   10.80
  -3  -5   6   48.90    8.30
  -3  -5   6   43.90    6.10
  -3   5   6   30.10    8.80
   3   5  -6   61.69    8.70
  -1  -5   6    5.50    3.90
   1  -5  -6    5.20    9.30
  -1  -5   6   12.60    5.10
   1  -5  -6   18.70    8.20
  -1  -5   6   10.60    4.90
  -1   5   6    1.80    7.40
   1   5  -6    6.70    3.40
   1   5  -6    9.50    4.60
   1   5  -6   12.10    4.50
  -1   5   6   -2.20    9.30
   0  -5   6 1114.19   49.80
   0  -5   6 1012.20   50.29
   0   5  -6 1061.69   49.00
   0   5  -6 1099.89   49.70
   0   5  -6 1135.59   49.00
   0   5  -6 1051.49   49.60
   3  -5   6  369.86   21.60
  -3   5  -6  375.66   20.00
  -3   5  -6  374.76   19.70
   6  -5   6  115.09   17.90
  -6   5  -6  108.09   14.30
  -6   5  -6   91.99   15.80
   6  -6  -6   99.69   26.80
  -6  -6   6   59.79   13.00
   6   6  -6   74.09   17.50
   6   6  -6   84.29   15.50
   5  -6  -6   25.00   17.70
   5  -6  -6   63.09   15.50
   5   6  -6   41.00    9.60
   4  -6  -6  235.68   23.80
   4  -6  -6  274.27   25.60
  -4  -6   6  331.67   31.10
  -4   6   6  229.78   20.50
  -2  -6   6 1139.09   52.69
  -2  -6   6 1119.49   53.29
   2   6  -6 1132.59   53.19
   2   6  -6 1157.78   53.49
   2   6  -6 1132.99   52.49
   0  -6   6   23.30    6.90
   0  -6   6   20.30    4.70
   0  -6  -6   -5.00    8.40
   0   6  -6   15.70    4.70
   0   6   6    2.80   21.90
   0   6  -6    9.00    4.00
   0   6   6   11.50    8.60
   1  -6   6  173.48   14.10
   1  -6   6  178.18   11.50
  -1   6  -6  174.78   11.50
   1   6   6  185.98   20.90
  -1   6  -6  159.48   11.80
   1   6   6  189.28   16.10
   3  -6   6   53.19   12.20
  -3   6  -6   67.99    9.70
  -3   6  -6   61.69    9.20
   5  -6   6   88.29   16.10
  -5   6  -6   77.89   13.80
  -5   6  -6   77.59   13.90
   6  -6   6   -5.70   10.60
  -6   6  -6   -6.20   10.00
  -6   6  -6   10.20    8.80
  -6  -7   6   27.00   14.70
   5  -7  -6  117.19   18.40
  -5  -7   6   93.69   14.30
   5   7  -6   61.99   14.00
   4  -7  -6   86.09   17.40
   4  -7  -6   77.89   15.40
  -2  -7   6  167.78   13.00
  -2  -7   6  176.98   12.50
  -2  -7   6  171.38   14.00
  -2  -7   6  164.88   17.50
   2   7  -6  152.48   16.20
   2   7  -6  163.88   13.50
   2   7  -6  164.68   12.60
  -1  -7   6  180.18   12.60
  -1  -7   6  182.88   17.00
  -1  -7   6  183.78   12.70
   1   7  -6  202.88   13.30
   1   7  -6  166.48   17.10
   1   7  -6  180.08   12.80
   0  -7   6  435.86   21.70
   0  -7   6  416.96   25.60
   0   7  -6  427.36   22.60
   0   7  -6  443.76   22.50
   0   7  -6  422.16   21.60
   2  -7   6   83.79   14.20
  -2   7  -6   61.29    9.50
  -2   7  -6   70.29   10.90
   3  -7   6  449.86   27.90
  -3   7  -6  440.66   23.40
  -3   7  -6  406.46   26.40
   4  -7   6  109.99   16.30
  -4   7  -6  107.49   12.90
  -4   7  -6  106.99   13.60
   5  -7   6  205.18   20.60
  -5   7  -6  193.48   18.20
  -5   7  -6  214.18   18.30
   6  -7   6   24.10   13.20
  -6   7  -6   13.70   10.20
  -6   7  -6   -5.80   10.80
  -6  -8   6    1.10   17.30
  -5  -8   6   -7.80   13.30
   5   8  -6  -14.20   13.50
   5   8  -6   14.00   13.80
   4  -8  -6   80.39   25.80
  -4  -8   6   92.49   17.40
   4   8  -6   90.79   17.50
   4   8  -6   88.89   12.70
  -3  -8   6  158.48   16.00
  -3  -8   6  195.18   25.20
   3   8  -6  184.28   24.80
   3   8  -6  162.08   19.50
   3   8  -6  172.58   15.00
   1  -8  -6   72.19   19.20
  -1  -8   6  100.99   11.50
  -1   8   6   95.99   18.10
   1   8  -6  116.39   11.60
   1   8  -6   89.29   16.90
   0  -8  -6   24.30   11.70
   0  -8   6   30.50    6.70
   0  -8   6   54.59   11.40
   0   8   6   17.80   14.20
   0   8  -6   41.10    7.00
   0   8   6   11.50   12.40
   0   8  -6   38.50    7.50
  -1  -8  -6  101.99   19.30
   1  -8   6   99.39   16.80
  -1   8  -6   92.69   12.10
  -1   8  -6  105.39   10.90
   2  -8   6  210.48   19.70
  -2  -8  -6  170.38   21.90
  -2   8  -6  175.08   15.30
   2   8   6  229.48   26.90
  -2   8  -6  189.08   14.30
   3  -8   6  344.27   24.20
  -3   8  -6  305.77   19.50
  -3   8  -6  313.67   20.00
   4  -8   6  252.27   22.90
  -4   8  -6  237.28   18.10
  -4   8  -6  264.87   19.10
   5  -8   6    8.50   12.00
  -5   8  -6   14.20   10.40
   5   9  -6   23.00   15.90
  -4  -9   6   41.70   11.90
   4   9  -6   29.20   13.90
   4   9  -6   48.90   11.90
  -3  -9   6   57.09   11.20
   3   9  -6   57.19   14.50
   3   9  -6   91.99   15.80
   2   9  -6   43.30   11.00
   2   9  -6   32.70   10.00
   2   9  -6   31.90   12.20
  -1  -9   6   32.70    8.70
  -1  -9   6   47.50   12.40
   1   9  -6   41.30    8.30
   1   9  -6   40.10   12.20
   1   9  -6   21.80    8.50
   0  -9   6    6.00    7.50
   0  -9   6   26.20   11.70
   0   9   6    9.30   15.90
   0   9  -6   16.20    7.30
   0   9  -6    9.10    7.90
   1  -9   6  180.48   23.30
  -1   9  -6  190.88   15.90
  -1   9  -6  197.38   15.20
   2  -9   6  290.17   25.40
  -2   9  -6  278.37   19.60
  -2   9  -6  301.77   18.90
   3  -9   6   32.90   12.30
  -3   9  -6    8.20    9.40
  -3   9  -6    9.70    7.70
   4  -9   6  110.19   21.10
  -4   9  -6   69.29   12.80
  -4   9  -6   66.79   11.10
  -5   9  -6   37.60   13.50
   4  10  -6    8.60   16.50
  -3 -10   6   30.90   12.50
   3  10  -6   38.80   16.50
  -2 -10   6   17.50   11.10
   2  10  -6   40.30   10.30
   2  10  -6   12.90   14.80
  -1 -10   6   12.30   11.20
  -1 -10   6    7.80   14.70
   1  10  -6   41.50   14.80
   1  10  -6   33.00    9.50
   0 -10   6  170.88   26.10
   0  10  -6  180.58   16.90
   0  10  -6  160.88   26.20
   1 -10   6  120.29   24.50
  -1  10  -6   78.99   12.20
  -1  10  -6  120.39   14.70
   2 -10   6   15.10   14.50
  -2  10  -6   26.80    9.10
  -2  10  -6   10.20   10.20
   3 -10   6  130.59   24.40
  -3  10  -6  127.49   15.40
  -3  10  -6  123.49   19.40
  -3 -11   6   17.70   14.40
   2  11  -6   22.10   18.20
  -1 -11   6   57.69   19.10
   1  11  -6   25.60   17.80
   1  11  -6    8.70   11.60
   0 -11   6   63.09   18.20
   0  11  -6   45.50   11.80
   0  11  -6   45.40   18.10
   1 -11   6  179.28   27.50
  -1  11  -6  168.88   18.10
   7   0  -7   19.00   11.70
  -7   0   7   20.30   12.40
  -7   0   7   26.90   11.40
  -6   0   7  132.39   17.10
  -6   0   7  171.38   17.40
   6   0  -7  142.79   16.70
  -5   0   7  211.68   17.00
  -5   0   7  201.88   16.20
   5   0  -7  212.88   16.60
  -4   0   7 2995.20  133.29
  -4   0   7 2825.42  132.79
   4   0  -7 2971.50  133.29
  -3   0   7   15.00    5.40
   3   0  -7   11.40    5.80
  -3   0   7   18.40    5.90
  -2   0   7  161.38   11.20
   2   0  -7  147.39   11.40
  -2   0   7  148.29   10.60
   1   0  -7   75.79    6.60
   1   0  -7   89.59    8.90
  -1   0   7   83.89    7.90
   1   0  -7   81.09    7.50
  -1   0   7   80.79    7.70
   0   0   7 1333.67   58.59
   0   0  -7 1328.37   59.09
   0   0  -7 1218.98   58.19
   0   0  -7 1251.97   58.29
  -1   0  -7  308.97   16.10
  -1   0  -7  313.87   16.00
  -1   0  -7  297.57   15.40
  -1   0  -7  315.67   15.70
   1   0   7  321.87   15.80
   1   0   7  286.57   15.10
  -1   0  -7  311.77   15.70
  -2   0  -7  224.98   12.50
   2   0   7  212.68   11.80
  -2   0  -7  235.08   12.70
   2   0   7  224.78   13.30
   2   0   7  201.78   11.40
   3   0   7  170.18   12.30
  -3   0  -7  159.58   11.50
  -3   0  -7  173.08   10.90
  -4   0  -7    7.90    6.00
   4   0   7    9.40    6.40
  -4   0  -7    8.20    5.00
   5   0   7   48.90    9.30
  -5   0  -7   54.09    9.70
  -6   0  -7  112.79   15.20
  -6   0  -7  106.29   13.90
   6   0   7  119.79   14.70
  -7   0  -7   10.10   10.50
   7   0   7   26.40   10.30
  -7  -1   7   10.50   11.00
   7  -1  -7   28.10   14.10
  -7   1   7   19.20   15.00
   7   1  -7   24.00   11.30
  -7   1   7   23.80   12.70
   3  -1  -7  195.08   14.50
  -3  -1   7  185.78   13.50
  -3  -1   7  171.48   12.50
  -3   1   7  216.88   14.00
   3   1  -7  165.78   12.90
  -3   1   7  193.88   13.80
   1  -1  -7  638.54   31.00
   1  -1  -7  655.13   32.30
   1  -1  -7  671.63   31.10
  -1   1   7  688.43   32.00
  -1   1   7  653.93   31.30
   0  -1   7 1432.76   62.29
   0  -1   7 1386.26   62.49
   0   1  -7 1283.47   62.09
   0   1  -7 1432.36   62.69
   0   1  -7 1298.97   61.99
   3  -1   7    6.80    3.70
   3  -1   7    8.30    5.30
  -3   1  -7   16.60    4.90
  -3   1  -7   12.10    3.90
  -5  -1  -7  414.86   23.00
  -5  -1  -7  419.86   23.70
   5   1   7  428.86   24.90
   6  -1   7    8.70    8.20
  -6  -1  -7   21.50    9.00
  -6  -1  -7   14.10    8.70
   6   1   7   23.90    9.50
  -6   1  -7   19.10    8.00
  -7  -1  -7   34.80   12.70
   7  -1   7   15.80    9.80
  -7  -1  -7   61.79   12.80
   7   1   7   45.90   15.60
  -7   1  -7   32.40   11.10
  -7  -2   7   51.69   13.80
   6  -2  -7  109.49   19.70
  -6   2   7  149.99   18.50
  -6   2   7  105.79   18.70
  -5  -2   7  156.18   15.00
   5  -2  -7  104.89   16.60
  -5  -2   7  148.89   13.30
   5   2  -7  143.49   13.40
  -5   2   7  124.09   15.40
   3   2  -7  658.63   28.20
  -3   2   7  478.45   28.90
   2  -2  -7  812.82   37.50
  -2  -2   7  705.63   37.30
  -2  -2   7  686.13   38.00
   2  -2  -7  893.81   39.20
  -2   2   7  889.61   37.80
   2   2  -7  667.83   37.20
  -2   2   7  916.51   38.70
  -1  -2   7 1334.17   61.49
  -1  -2   7 1284.17   60.99
  -1  -2   7 1365.16   61.09
   1   2  -7 1373.46   61.19
   1   2  -7 1341.67   61.39
   2  -2   7  995.80   45.40
   2  -2   7  956.50   44.60
  -2   2  -7  955.70   44.90
  -5  -2  -7   74.39   12.80
  -5  -2  -7   65.59   12.60
   5   2   7   77.79   13.30
  -7  -2  -7   -9.60   12.00
   7  -2   7   18.60    9.80
  -7  -2  -7   -2.80   12.70
  -7   2  -7   22.80   10.50
   7   3  -7   15.20   10.80
   6  -3  -7   60.39   14.30
  -6  -3   7   55.89   11.40
  -6   3   7   61.69   11.60
  -6   3   7   52.69   13.90
   6   3  -7   65.99   12.90
  -5  -3   7    4.70    8.50
  -5  -3   7    4.00    6.80
   5  -3  -7   12.60   11.60
   5  -3  -7   29.80   11.20
   5   3  -7    5.80    6.70
  -5   3   7   26.20    8.90
  -5   3   7   20.10    9.90
   3  -3  -7 1147.19   55.49
   3  -3  -7 1192.88   55.19
  -3   3   7 1170.08   55.19
  -3   3   7 1120.79   54.29
  -2  -3   7  317.77   17.00
   2  -3  -7  267.87   18.20
   2  -3  -7  260.47   18.10
  -2  -3   7  301.77   15.30
  -2   3   7  252.87   18.70
  -2   3   7  279.17   17.70
   2   3  -7  309.67   15.60
   3  -3   7  519.05   25.30
   3  -3   7  511.15   26.60
  -3   3  -7  517.35   25.90
  -3   3  -7  520.65   25.20
  -5  -3  -7   99.59   14.10
   5  -3   7   94.99   13.40
  -5  -3  -7   92.09   13.70
   5   3   7   85.99   15.30
  -5   3  -7   94.09   12.40
   6  -3   7   33.80    9.60
  -6   3  -7   38.40    8.50
   6   3   7   69.99   15.70
   7   4  -7   52.79   13.30
  -6  -4   7   20.10   10.80
   6  -4  -7   27.60   14.10
  -6   4   7   21.60   11.90
   6   4  -7   16.90    8.00
  -6   4   7  -10.40   13.40
  -5  -4   7   12.80    9.00
   5  -4  -7   10.70   11.70
   5   4  -7    8.20    7.00
  -5   4   7   29.20   10.00
  -5   4   7   22.10   11.60
   4  -4  -7  322.47   24.80
   4  -4  -7  350.36   23.50
  -4   4   7  362.16   22.20
  -4   4   7  332.07   22.10
   3  -4  -7  807.32   41.10
   3  -4  -7  812.02   41.40
  -3   4   7  810.32   40.60
   1  -4  -7  108.49   16.40
  -1  -4   7  150.28    9.60
  -1  -4   7  141.99   10.60
   1   4  -7  151.08    9.30
   1   4  -7  148.99    8.60
   1   4  -7  154.48   10.30
  -1   4   7  113.79   15.60
   3  -4   7  450.55   24.70
   3  -4   7  474.95   23.40
  -3   4  -7  460.65   23.30
  -3   4  -7  471.55   24.00
  -4  -4  -7    9.10    7.60
   4  -4   7    9.20    6.90
  -4   4  -7    1.80    9.80
   4   4   7    1.40    9.00
  -4   4  -7    8.10    5.20
   5  -4   7   16.10    7.90
  -5  -4  -7    5.60    8.60
   5   4   7    5.90   10.50
  -5   4  -7   11.80    6.50
  -5   4  -7    2.70    6.90
   6  -4   7  328.57   23.00
  -6   4  -7  309.67   20.70
   7  -4   7   44.40   14.40
   5  -5  -7   48.50   13.30
  -5   5   7   35.90   11.70
  -3  -5   7  198.68   16.00
  -3  -5   7  189.78   13.30
   3   5  -7  200.48   13.70
   2  -5  -7  382.76   25.80
  -2  -5   7  392.26   21.50
  -2  -5   7  386.36   20.40
   2  -5  -7  406.96   25.10
  -2   5   7  403.86   23.90
   2   5  -7  404.26   20.50
   2   5  -7  376.06   21.30
  -2   5   7  387.86   25.90
  -1  -5   7   12.00    5.30
   1  -5  -7   28.40    9.30
   1  -5  -7   15.20   11.10
  -1  -5   7    6.50    4.10
  -1  -5   7   15.30    5.60
   1   5  -7   16.30    5.00
   1   5  -7    9.20    4.10
  -1   5   7   23.70   11.80
   1   5  -7    4.70    4.50
  -1   5   7   34.10   10.70
   0  -5   7  190.38   11.80
   0  -5   7  197.48   13.10
   0   5  -7  204.58   11.90
   0   5  -7  188.18   10.70
   0   5  -7  188.28   10.60
   2  -5   7  519.35   27.70
   2  -5   7  538.45   26.40
  -2   5  -7  539.95   26.60
  -2   5  -7  547.35   26.60
   3  -5   7  631.94   33.50
  -3   5  -7  665.23   32.30
  -3   5  -7  656.73   31.90
   4  -5   7    5.20    7.90
  -4  -5  -7    4.60    8.20
  -4   5  -7   10.60    5.80
  -4   5  -7   14.10    6.60
   5  -5   7   -4.90    8.70
  -5  -5  -7    7.20    9.70
  -5   5  -7    6.10    7.40
   5   5   7   -3.30   11.60
  -5   5  -7    4.30    8.30
   6  -5   7   45.20   11.90
  -6   5  -7   20.80    9.80
  -6   5  -7   31.00    9.10
  -6  -6   7   30.70   13.00
   6   6  -7    2.00    9.50
  -5  -6   7  147.39   19.80
   5  -6  -7  144.29   25.80
   5   6  -7  128.29   16.30
   5   6  -7  151.98   16.10
   4  -6  -7    2.50   13.00
  -4  -6   7   21.20    9.80
   4  -6  -7   15.90   15.30
   4   6  -7   31.60    8.40
   4   6  -7   31.00    8.10
  -4   6   7   25.20   10.30
   3  -6  -7  159.98   22.10
  -3  -6   7  139.89   11.80
   3  -6  -7  105.09   19.40
  -3  -6   7  149.19   14.90
   3   6  -7  155.98   12.80
   3   6  -7  141.69   14.80
  -3   6   7  125.49   17.00
  -2  -6   7  370.36   19.90
  -2  -6   7  364.66   21.00
   2   6  -7  365.86   20.80
   2   6  -7  375.76   20.80
   1  -6  -7   86.99   16.20
   1  -6  -7   94.39   21.50
  -1   6   7   79.59   15.20
   2  -6   7  191.88   16.00
  -2   6  -7  197.08   13.60
  -2   6  -7  208.48   13.40
   3  -6   7  110.39   14.00
  -3  -6  -7  138.59   16.00
  -3   6  -7  111.59   11.00
  -3   6  -7  102.49   12.00
   3   6   7  128.69   21.30
   5  -6   7   89.89   16.50
  -5   6  -7   89.29   14.20
  -5   6  -7   67.59   10.10
   6  -6   7   50.29   12.50
  -6   6  -7   39.50   11.00
  -6   6  -7   55.59   10.60
  -6  -7   7   10.40   15.80
  -5  -7   7   36.90   12.80
   5   7  -7   23.70   12.50
   5   7  -7   47.30   11.20
  -4  -7   7   69.19   12.10
   4   7  -7   71.89   12.20
   4   7  -7   89.99   14.70
  -1  -7   7  758.92   39.00
  -1  -7   7  751.72   36.80
   1   7  -7  783.12   39.30
   1   7  -7  758.62   36.80
   1   7  -7  753.22   37.10
   0  -7   7  518.85   26.30
   0  -7   7  523.65   29.50
   0   7  -7  478.15   25.20
   0   7  -7  535.35   26.40
   0   7  -7  540.65   26.80
   1  -7   7   73.09   14.10
  -1   7  -7   64.89    9.60
  -1   7  -7   57.49    8.00
   3  -7   7    3.20    9.10
  -3  -7  -7    8.40   12.40
  -3   7  -7   11.00    6.30
   3   7   7   24.30   15.20
  -3   7  -7    5.70    6.80
   4  -7   7  140.99   17.90
  -4   7  -7  149.29   14.30
  -4   7  -7  150.58   14.80
   5  -7   7  261.07   23.00
  -5   7  -7  234.98   19.80
  -5   7  -7  268.77   19.90
  -6   7  -7  103.09   19.40
  -5  -8   7   94.89   16.10
   5   8  -7  110.99   16.00
  -4  -8   7  111.29   18.30
   4   8  -7  121.29   23.30
   4   8  -7   77.89   12.90
   3  -8  -7  -30.30   18.50
  -3  -8   7    4.10    8.70
  -3  -8   7    4.50    7.20
   3   8  -7    3.50   10.90
   3   8  -7    4.70    8.60
  -3   8   7   -2.50   21.30
   3   8  -7   -7.20    7.60
  -2  -8   7    3.60   11.20
   2  -8  -7   51.89   18.50
   2  -8  -7   66.99   19.70
   2   8  -7    9.70   10.00
   2   8  -7    6.30   10.00
  -2   8   7   50.39   18.90
  -1  -8   7  256.87   20.70
  -1   8   7  199.38   24.20
  -1   8   7  182.88   28.60
   1   8  -7  262.87   16.80
   1   8  -7  287.37   16.50
   1   8  -7  227.28   21.40
   0  -8   7   57.09   11.80
   0  -8  -7   57.59   14.30
   0   8   7   23.80   17.40
   0   8   7   30.50   14.10
   0   8  -7   47.00    8.20
   1  -8   7  135.39   17.80
  -1   8  -7  108.89   11.50
  -1   8  -7  108.79   12.50
   1   8   7   70.79   19.10
   2  -8   7   10.60   10.40
  -2   8  -7    4.70    8.20
  -2   8  -7   22.20    6.70
   3  -8   7   75.39   13.20
  -3   8  -7   77.39   13.00
  -3   8  -7   87.49   12.10
   4  -8   7  146.69   21.40
  -4   8  -7  171.18   16.80
  -4   8  -7  181.48   16.20
   5  -8   7   68.59   14.50
  -5   8  -7   54.89   12.10
  -5   8  -7   62.89   11.10
  -5  -9   7   10.60   15.30
   5   9  -7  -21.40   14.70
  -4  -9   7   10.90   12.10
   4   9  -7    2.50   13.10
   4   9  -7   14.50   11.40
   3   9  -7   -5.90   12.70
   3   9  -7   16.80   10.00
   3   9  -7   -1.50    9.10
   2   9  -7   57.39   13.20
   2   9  -7   52.79    9.20
   2   9  -7   60.89   10.40
  -1  -9   7  440.56   28.60
   1   9  -7  405.56   23.60
   1   9  -7  415.16   28.30
   1   9  -7  380.06   28.40
   0  -9   7  157.98   21.60
   0   9  -7  152.18   14.20
   1  -9   7   34.30   13.60
  -1   9  -7   46.80    9.20
  -1   9  -7   44.30    8.10
   2  -9   7    8.20   12.20
  -2   9  -7   11.00    7.30
   3  -9   7   98.49   21.00
  -3   9  -7   59.39   10.80
  -3   9  -7   67.59   12.50
   4  -9   7   90.59   20.80
  -4   9  -7   54.49   12.10
  -4   9  -7   60.99   10.10
   4  10  -7  -20.30   17.90
   3  10  -7   -9.70   16.00
   2  10  -7  213.18   20.60
   2  10  -7  174.28   26.40
   2  10  -7  189.38   18.80
  -1 -10   7  136.09   24.50
   1  10  -7  156.58   23.60
   1  10  -7  120.69   17.60
   1  10  -7  136.69   16.50
   0 -10   7   68.39   17.20
   0  10  -7   82.29   15.00
   0  10  -7   89.19   18.70
   0  10  -7   78.59   15.80
   1 -10   7   13.00   15.50
  -1  10  -7  -17.60    9.60
  -1  10  -7   14.70    8.40
   2 -10   7   17.40   15.90
  -2  10  -7   32.00    8.70
  -2  10  -7   14.50   10.20
   3 -10   7   71.39   16.20
  -3  10  -7   81.69   14.70
  -3  10  -7   50.09   12.80
  -4  10  -7   88.49   15.70
   3  11  -7  -18.70   25.40
   2  11  -7   57.09   13.00
   2  11  -7   43.70   19.30
  -1 -11   7   97.89   20.70
   1  11  -7  108.79   19.50
   1  11  -7  100.19   20.20
   0 -11   7    5.40   18.10
   0  11  -7   22.90   11.00
   0  11  -7  -21.70   18.00
   1 -11   7    5.80   17.70
  -1  11  -7    5.80   11.50
   7   0  -8   34.40   14.30
   6   0  -8   37.30   11.90
  -6   0   8   48.60   11.10
  -6   0   8   54.19   11.20
   5   0  -8   81.69   14.40
  -5   0   8  105.19   15.20
  -5   0   8   80.39   14.00
   4   0  -8   11.90    8.00
  -4   0   8    7.10    6.90
  -4   0   8    6.40    7.50
  -3   0   8  592.34   29.90
   3   0  -8  589.84   30.30
  -3   0   8  576.84   29.60
  -2   0   8  964.80   46.10
  -2   0   8 1017.70   46.40
   2   0  -8  947.91   46.50
   1   0  -8  159.08   11.10
  -1   0   8  178.18   11.70
   1   0  -8  168.28   12.80
  -1   0   8  179.88   11.90
   0   0  -8 2535.05  126.39
   0   0   8 2944.21  126.99
   0   0  -8 2961.30  127.39
   0   0  -8 2838.52  126.69
  -1   0  -8  555.74   29.00
   1   0   8  629.94   29.30
   1   0   8  668.33   29.80
  -1   0  -8  616.34   29.70
   1   0   8  592.14   28.80
  -1   0  -8  611.14   29.20
  -1   0  -8  618.84   29.20
   2   0   8  782.72   38.70
  -2   0  -8  854.91   39.40
   2   0   8  834.82   39.90
  -2   0  -8  874.71   39.50
  -3   0  -8  266.77   16.10
  -3   0  -8  278.47   15.40
   3   0   8  277.67   17.00
   4   0   8   69.89   11.90
  -4   0  -8   59.59    8.20
  -4   0  -8   55.29    9.10
   5   0   8   -5.30    7.60
  -5   0  -8    7.70    5.90
  -5   0  -8    5.60    7.20
  -6   0  -8  172.98   17.30
   6   0   8  157.98   16.90
  -6   0  -8  145.39   16.10
  -7   0  -8   21.60   12.10
   7   1  -8    6.00   12.20
  -7   1   8   17.00   13.50
  -5  -1   8   10.20    8.10
  -5  -1   8   14.00    8.70
   5  -1  -8   16.50    9.50
  -5   1   8   13.50    9.00
   5   1  -8    4.50    8.10
  -5   1   8   -0.70    8.30
   4  -1  -8  185.48   18.80
  -4   1   8  200.48   16.40
  -4   1   8  171.98   18.00
  -3  -1   8  608.14   32.90
  -3  -1   8  585.34   32.40
   3  -1  -8  708.83   34.10
  -3   1   8  723.33   33.30
   3   1  -8  588.94   32.70
  -3   1   8  749.53   33.20
  -2  -1   8  366.56   19.60
  -2  -1   8  338.57   18.50
   2   1  -8  332.17   19.00
   1  -1  -8 1391.16   58.49
  -1  -1   8 1057.19   58.79
   1  -1  -8 1456.25   60.09
   1  -1  -8 1340.77   58.59
  -1   1   8 1447.36   59.49
  -1   1   8 1410.06   58.89
   1   1  -8 1059.49   58.89
   1   1  -8 1070.89   58.49
   2  -1   8  667.83   29.90
  -2  -1  -8  559.44   29.00
  -2  -1  -8  581.44   29.70
   2  -1   8  631.94   29.40
   2  -1   8  592.54   28.50
  -2   1  -8  657.23   29.30
   2   1   8  577.14   30.40
  -2   1  -8  654.53   28.90
   2   1   8  513.15   28.40
  -3  -1  -8  224.58   14.50
  -3  -1  -8  224.08   14.30
   3   1   8  239.78   16.40
  -4  -1  -8   38.70    6.90
   4  -1   8   42.00    7.80
  -4  -1  -8   29.20    7.20
  -4   1  -8   36.00    7.00
   4   1   8   33.90    8.40
  -4   1  -8   38.30    7.70
   5  -1   8   51.39    9.60
  -5   1  -8   62.59    9.60
  -5   1  -8   61.39    9.40
  -6  -1  -8   25.30    9.00
  -6  -1  -8    3.40    9.50
   6   1   8    8.00   10.00
   7  -1   8  153.58   25.40
  -7   1  -8  174.98   21.60
   7   2  -8    4.00   11.30
  -7   2   8   55.69   17.90
  -5  -2   8  180.48   16.00
  -5  -2   8  194.48   17.40
   5   2  -8  173.78   15.70
   3  -2  -8  294.97   19.80
  -3  -2   8  311.87   18.60
  -3  -2   8  298.77   17.40
   3   2  -8  300.17   17.60
  -3   2   8  302.67   18.50
  -3   2   8  291.77   19.10
  -1  -2   8  521.55   25.70
   1  -2  -8  528.75   27.70
  -1  -2   8  515.75   26.30
   1   2  -8  516.25   25.90
   1   2  -8  548.75   26.10
  -1   2   8  530.85   27.00
   0  -2   8  449.56   22.90
   0  -2   8  478.45   23.10
   0   2  -8  463.35   23.20
   0   2  -8  504.65   23.70
   1  -2   8  415.76   20.60
   1  -2   8  419.26   20.60
   1  -2   8  418.06   21.00
  -1   2  -8  418.06   21.00
  -1   2  -8  424.56   20.40
  -1   2  -8  412.86   22.40
  -4  -2  -8   35.50    7.40
  -4  -2  -8   28.20    7.00
   4   2   8   37.00    9.20
  -6  -2  -8   62.69   11.90
   6  -2   8   65.39   14.30
  -6  -2  -8   54.89   10.50
   6   2   8   51.79   11.50
  -6   2  -8   61.19    9.90
   7  -2   8   16.80   11.70
  -7  -2  -8   11.30   14.20
   6  -3  -8   40.20   15.40
  -6  -3   8   51.89   11.40
   6   3  -8   67.69   13.50
  -6   3   8   45.10   13.80
  -5  -3   8  206.88   16.40
  -5  -3   8  183.38   17.60
   5   3  -8  196.48   16.00
  -1  -3   8  656.33   29.50
   1  -3  -8  520.55   32.00
  -1  -3   8  666.33   30.50
   1   3  -8  680.23   29.70
   1   3  -8  650.53   30.00
  -1   3   8  563.54   31.50
  -1   3   8  556.84   31.20
   1  -3   8  454.65   23.30
   1  -3   8  477.85   22.90
  -1   3  -8  446.56   22.40
  -1   3  -8  479.05   23.20
   2  -3   8   40.10    7.80
  -2  -3  -8   43.40    8.10
   2  -3   8   33.10    4.90
  -2   3  -8   35.20    5.60
   2   3   8   54.99   10.00
  -5  -3  -8   73.99   14.70
   5   3   8   66.19   12.60
  -6  -4   8    4.40   10.90
   6   4  -8   29.40    9.50
  -5  -4   8  109.89   15.60
   5  -4  -8  123.99   20.00
   5   4  -8  104.79   13.20
  -4  -4   8  170.48   16.10
  -4  -4   8  144.39   13.10
   4   4  -8  161.08   14.10
   3  -4  -8   37.90   10.90
  -3   4   8   34.70    8.50
  -3   4   8   26.30   11.70
  -2  -4   8  175.08   13.40
  -2  -4   8  166.48   11.10
  -2   4   8  125.69   14.80
   2   4  -8  168.78   11.60
   2   4  -8  164.68   12.70
  -1  -4   8 1335.27   63.29
  -1  -4   8 1419.36   64.29
   1   4  -8 1371.66   63.09
   1   4  -8 1409.26   63.89
   0  -4   8  238.68   13.70
   0  -4  -8  221.28   24.40
   0   4  -8  230.58   12.70
   0   4   8  223.68   17.30
   0   4  -8  284.37   16.70
   0   4  -8  231.28   13.90
   0   4   8  261.87   19.70
   2  -4   8   19.30    5.90
  -2  -4  -8   12.60    7.60
   2  -4   8   17.70    4.60
  -2   4  -8   18.00    4.90
   2   4   8    2.30    9.80
  -2   4  -8   21.00    5.30
   3  -4   8  319.77   19.10
   3  -4   8  316.77   17.30
  -3   4  -8  307.07   18.20
  -3   4  -8  305.27   17.30
   4  -4   8  609.14   33.60
  -4   4  -8  621.24   31.90
  -4   4  -8  612.94   32.60
   4   4   8  762.02   37.20
   5  -4   8  125.29   14.70
  -5   4  -8   94.99   12.20
  -5   4  -8  123.29   13.10
   6  -4   8  283.17   21.90
  -6   4  -8  293.47   20.40
   6   5  -8   99.89   14.90
  -5  -5   8  177.48   19.00
   5  -5  -8  205.38   24.40
   5   5  -8  119.79   15.50
   3  -5  -8   30.40   11.60
   3  -5  -8   20.10   12.10
  -3   5   8   13.10    8.90
  -3   5   8   -0.90   12.80
  -1  -5   8  311.07   17.40
  -1  -5   8  316.17   18.60
   1   5  -8  326.17   18.10
   1   5  -8  320.07   16.90
   0  -5   8  451.65   22.70
   0  -5   8  478.95   22.10
   0  -5  -8  367.16   25.90
   0   5   8  382.96   25.30
   0   5  -8  440.06   21.80
   0   5   8  407.96   28.40
   0   5  -8  470.55   22.20
   0   5  -8  429.36   20.90
   2  -5   8  299.47   18.60
   2  -5   8  286.17   17.00
  -2   5  -8  320.27   17.60
  -2   5  -8  303.77   16.90
   3  -5   8  566.24   30.80
  -3   5  -8  597.14   29.00
  -3   5  -8  579.14   29.60
  -4  -5  -8  121.69   17.00
  -4   5  -8  134.69   12.50
  -4   5  -8  149.49   13.10
  -5  -5  -8  101.49   17.80
   5  -5   8   57.09   11.40
  -5   5  -8   80.09   12.40
  -5   5  -8   72.89   13.30
   6  -5   8   11.40   11.00
  -6   5  -8   -3.00    9.00
  -6   5  -8    8.00    9.60
  -6  -6   8   43.10   15.00
   6   6  -8   27.20   11.00
  -5  -6   8    8.20   12.10
   5   6  -8   -3.10    8.70
  -4  -6   8   71.19   11.60
  -4  -6   8   50.29    8.50
   4   6  -8   61.69    9.60
  -3  -6   8   80.69   11.30
   3   6  -8  105.29   12.00
   3   6  -8   94.29   14.70
  -3   6   8   46.10   21.40
  -1  -6   8  236.48   14.40
  -1  -6   8  227.28   16.40
   1   6  -8  232.38   14.20
   1   6  -8  221.48   15.10
   0  -6   8 1616.64   72.59
   0  -6   8 1499.65   73.29
   0   6  -8 1573.34   72.59
   0   6  -8 1626.04   72.49
   2  -6   8  955.70   45.40
   2  -6   8  944.11   47.20
  -2   6  -8  962.20   45.70
  -2   6  -8  971.30   45.50
   4  -6   8   85.69   15.30
  -4   6  -8   72.89   12.50
  -4   6  -8   83.59   11.80
   5  -6   8   48.80   11.80
  -5   6  -8   54.59    9.70
  -5   6  -8   73.69   13.40
   6  -6   8    8.80   12.60
  -6   6  -8   35.20   11.30
  -5  -7   8    3.90   12.60
   5   7  -8   -7.40    9.20
  -4  -7   8   52.79    9.10
  -4  -7   8   61.39   12.20
   4   7  -8   70.89   11.70
   4   7  -8   49.00   10.20
  -3  -7   8   15.70    8.80
  -3  -7   8   23.50    7.50
   3   7  -8   26.10    9.60
   3   7  -8    6.40    8.40
   3   7  -8   16.60    7.00
   3   7  -8   10.40    8.90
  -2  -7   8   60.49   10.80
  -2  -7   8   58.39    9.60
   2   7  -8   60.29   13.20
   2   7  -8   57.39    8.00
   2   7  -8   64.39   13.80
   2   7  -8   65.69   11.60
  -1  -7   8 1043.30   48.70
  -1  -7   8 1005.90   50.29
   1   7  -8 1024.50   48.70
   1   7  -8 1018.60   49.00
   1   7  -8 1038.70   50.39
   1   7  -8 1036.90   48.20
   0   7   8   86.59   18.10
   1  -7   8 1724.43   79.99
   1  -7   8 1718.43   81.69
  -1   7  -8 1751.72   80.09
  -1   7  -8 1759.32   80.09
   2  -7   8  196.08   18.90
  -2   7  -8  187.98   13.90
  -2   7  -8  178.48   17.70
   3  -7   8   14.30   10.20
  -3   7  -8   27.90    7.40
  -3   7  -8   13.70    7.80
   4  -7   8   63.29   12.30
  -4   7  -8   64.99   10.00
  -4   7  -8   88.29   13.00
   5  -7   8  165.28   21.10
  -5   7  -8  169.18   17.30
  -5   7  -8  147.79   17.80
  -6   7  -8   10.50   12.40
  -5  -8   8   43.20   15.40
   5   8  -8   33.40   14.50
  -4  -8   8    9.80   11.10
   4   8  -8    2.80   12.80
   4   8  -8    0.70   10.60
   4   8  -8  -11.00   10.60
  -3  -8   8   45.10   10.30
  -3  -8   8   36.00    9.00
   3   8  -8   36.00   11.80
   3   8  -8   27.40   13.50
   3   8  -8   49.00    9.90
  -2  -8   8  526.95   29.60
   2   8  -8  552.54   31.10
   2   8  -8  517.45   29.00
  -1  -8   8   12.50   10.10
   1   8  -8   13.00    9.90
   1   8  -8   -3.70    7.20
   1   8  -8   -3.80   10.60
  -1   8   8    9.30   18.70
   1  -8   8   76.69   17.60
  -1   8  -8   65.79   11.10
  -1   8  -8   66.79   11.90
   2  -8   8  396.76   28.00
  -2   8  -8  406.56   22.70
  -2   8  -8  406.16   23.40
   3  -8   8  105.19   20.70
  -3   8  -8   76.19   13.50
  -3   8  -8  119.49   12.80
   4  -8   8  185.58   22.80
  -4   8  -8  173.18   16.70
  -4   8  -8  179.08   17.70
   5  -8   8   57.09   14.70
  -5   8  -8   51.29   11.50
  -5   8  -8   48.40   11.80
  -5  -9   8   27.30   22.00
  -4  -9   8   46.60   13.40
   4   9  -8   66.09   13.10
   3   9  -8  216.58   20.20
   3   9  -8  199.48   24.40
   3   9  -8  197.38   18.50
   2   9  -8   11.80    8.50
   2   9  -8    1.40    9.30
   2   9  -8   -8.00   12.10
  -1  -9   8   62.19   14.50
   1   9  -8   55.89    9.60
   1   9  -8   58.19    9.80
   1   9  -8   55.89   13.20
   0  -9   8   39.70   13.50
   0   9  -8   45.20    8.70
   0   9  -8   45.50    9.20
   1  -9   8  315.87   27.90
  -1   9  -8  310.77   20.90
  -1   9  -8  300.37   19.80
   2  -9   8  168.28   22.70
  -2   9  -8  135.79   13.80
  -2   9  -8   91.19   15.90
   3  -9   8   20.50   13.60
  -3   9  -8   -1.50    9.30
  -3   9  -8    9.20    7.90
   4  -9   8   12.70   14.10
  -4   9  -8   17.50   11.10
  -4   9  -8   -0.80    9.50
   3  10  -8   92.19   18.70
   3  10  -8  117.69   20.90
   2  10  -8   11.00   10.00
   2  10  -8   27.10   11.50
   2  10  -8   19.10   15.40
  -1 -10   8   26.80   15.20
   1  10  -8   24.70    9.70
   1  10  -8   43.80   15.20
   1  10  -8   12.90   10.80
   0 -10   8   79.99   17.70
   0  10  -8   82.39   19.30
   0  10  -8   81.49   11.80
   0  10  -8   89.19   14.80
   1 -10   8   84.19   18.30
  -1  10  -8   89.89   14.60
  -1  10  -8   94.49   16.60
   2 -10   8    9.50   15.40
  -2  10  -8   26.60    9.00
  -2  10  -8    1.60   11.10
   3 -10   8   57.29   16.30
  -3  10  -8   33.30   12.10
   2  11  -8   -4.80   12.60
   2  11  -8   -6.50   18.80
  -1 -11   8   19.90   19.30
   1  11  -8   14.90   18.70
   1  11  -8   20.60   12.00
   0 -11   8   14.20   19.20
   0  11  -8   29.70   11.00
   0  11  -8   -1.30   18.80
   1 -11   8  217.28   33.60
  -7   0   9   35.00   15.20
  -6   0   9  112.09   19.30
  -6   0   9  140.09   18.90
   6   0  -9   95.99   18.30
  -5   0   9  115.19   17.10
   5   0  -9  150.88   16.40
  -5   0   9  133.89   16.20
   4   0  -9  114.29   14.30
  -4   0   9   95.09   17.60
  -3   0   9  224.18   16.60
  -3   0   9  204.38   15.20
   3   0  -9  193.68   16.20
  -2   0   9   57.89   10.10
   2   0  -9   62.19   11.10
   2   0  -9   65.19   10.00
  -2   0   9   59.29    8.40
  -1   0   9  864.71   40.80
   1   0  -9  849.32   41.30
  -1   0   9  870.51   40.90
   1   0  -9  834.52   40.20
   0   0   9 4696.93  203.08
   0   0  -9 4631.04  203.38
   0   0  -9 4251.67  202.48
  -1   0  -9   -3.80    4.70
  -1   0  -9    4.70    4.30
   1   0   9    5.70    5.10
  -1   0  -9    4.00    5.20
   1   0   9    7.70    4.80
  -2   0  -9  447.96   22.40
  -2   0  -9  427.66   22.30
   2   0   9  443.96   23.10
   2   0   9  408.16   21.60
  -3   0  -9  227.48   14.50
   3   0   9  245.18   16.50
  -3   0  -9  235.28   15.10
  -4   0  -9   11.40    7.10
  -4   0  -9   12.20    6.00
   4   0   9    7.10    8.40
   5   0   9   76.99   15.20
  -5   0  -9   84.19   14.10
  -5   0  -9   96.19   12.10
  -6   0  -9   29.20   10.60
   6   0   9   28.80   10.40
  -7  -1   9   28.10   20.20
  -7   1   9   27.30   18.10
  -6  -1   9  220.88   20.70
   6  -1  -9  219.78   22.10
  -6  -1   9  212.98   20.80
   6   1  -9  159.68   18.60
  -6   1   9  205.38   20.20
  -6   1   9  188.28   22.60
  -4  -1   9  150.18   18.00
   4  -1  -9  152.08   16.00
  -4  -1   9  108.19   13.80
  -4   1   9  147.99   15.10
  -4   1   9  128.59   15.90
  -3  -1   9   48.20    7.60
  -3  -1   9   39.90    9.20
   3   1  -9   47.10    8.30
  -5  -1  -9  227.48   18.40
  -5  -1  -9  203.18   20.40
   5   1   9  251.97   20.30
  -6  -1  -9   10.10    9.40
  -6  -2   9   96.69   17.70
  -6  -2   9   72.69   12.90
   6   2  -9   57.39   11.30
  -4  -2   9  218.38   17.90
  -4  -2   9  196.58   16.70
   4  -2  -9  244.18   19.60
  -4   2   9  265.57   18.40
   4   2  -9  191.28   18.60
  -4   2   9  248.78   18.00
  -1  -2   9  149.49   11.80
  -1  -2   9  112.39   10.40
   1   2  -9  134.79   10.80
   1   2  -9  131.89   11.50
   2  -2   9  842.12   39.40
   2  -2   9  816.72   38.50
   2  -2   9  774.22   38.80
  -2   2  -9  825.02   38.20
  -2   2  -9  836.82   39.00
  -4  -2  -9  104.39   13.80
   4  -2   9  121.79   13.60
  -4  -2  -9   90.49   13.00
   4   2   9   81.39   15.60
  -4   2  -9  110.09   15.80
  -5  -2  -9  104.69   15.60
  -5  -2  -9   89.89   15.20
   5   2   9  123.79   17.20
  -6  -3   9   53.49   11.90
  -6  -3   9   53.69   11.50
   6   3  -9   52.99   10.50
  -5  -3   9   22.50    9.50
  -5   3   9   41.90   12.70
  -4  -3   9  183.28   17.10
  -4  -3   9  154.48   14.80
   4   3  -9  150.58   16.60
  -3  -3   9  104.49   11.40
  -3  -3   9   98.19   14.10
   3  -3  -9  122.19   14.90
  -3   3   9   83.59   14.60
  -3   3   9  144.59   14.80
   3   3  -9  117.99   12.00
  -2  -3   9  603.84   30.10
  -2  -3   9  619.34   31.50
   2   3  -9  606.64   30.90
   2   3  -9  622.04   30.50
  -1  -3   9  158.88   12.80
   1  -3  -9  193.58   21.50
  -1  -3   9  144.49   10.90
   1   3  -9  148.39   11.90
   1   3  -9  154.78   11.90
   1  -3   9  894.81   44.30
   1  -3   9  974.40   45.10
   1  -3   9  943.11   45.20
  -1   3  -9  943.11   44.80
  -1   3  -9  980.30   45.50
  -1   3  -9 1071.69   46.60
   2  -3   9  285.17   16.40
   2  -3   9  308.57   17.40
  -2   3  -9  302.27   17.10
   3  -3   9  519.45   26.00
   3  -3   9  512.05   27.40
  -3   3  -9  525.65   26.70
  -3   3  -9  504.25   25.60
   4  -3   9   38.20    6.50
   4  -3   9   44.50    8.90
  -4  -3  -9   53.89    9.70
  -4   3  -9   42.60    7.90
   4   3   9   48.60   11.60
  -4   3  -9   37.30    6.50
   6  -3   9   -1.70    9.70
  -6  -3  -9   37.00   11.30
  -6   3  -9   10.90    8.90
  -6  -4   9   31.30   11.10
  -6  -4   9    5.90   18.00
   6   4  -9   11.00    9.50
   5  -4  -9   58.89   14.50
  -5  -4   9   32.60    8.80
   5   4  -9   24.70    9.00
  -4  -4   9  890.11   44.80
  -4  -4   9  972.90   47.50
   4   4  -9  936.01   45.50
  -3  -4   9  428.26   25.30
  -3  -4   9  416.46   22.60
   3   4  -9  426.16   23.00
  -1  -4   9   44.20    7.80
  -1  -4   9   40.60    7.40
   1  -4  -9   24.10    9.10
   1   4  -9   38.70    6.70
  -1   4   9   30.70   10.40
   1   4  -9   41.70    6.30
  -1   4   9   23.70    8.80
   1  -4   9  405.16   21.60
   1  -4   9  406.56   20.90
  -1   4  -9  413.16   21.60
   3  -4   9   -3.50    5.30
   3  -4   9    7.90    6.90
  -3   4  -9   -0.10    5.40
   3   4   9   32.40   12.60
  -3   4  -9   -6.20    6.30
   4  -4   9   18.70    8.50
  -4  -4  -9   20.00    9.60
   4   4   9   -4.20   12.00
  -4   4  -9   10.20    7.00
  -4   4  -9   13.60    6.40
  -5  -4  -9   16.60   11.50
   5  -4   9   17.70    9.00
  -5   4  -9   16.10    7.70
  -5   4  -9   11.80    7.20
   5   4   9   18.90   13.30
   6  -4   9   38.30   10.70
  -6   4  -9   28.30    9.50
  -6  -5   9  118.99   22.00
   6   5  -9   78.49   15.90
  -5  -5   9  557.14   33.30
   5   5  -9  502.25   29.10
   4  -5  -9  144.29   21.90
  -4  -5   9  109.29   13.50
  -4  -5   9  100.69   17.00
  -4   5   9  145.69   19.90
   4   5  -9  116.79   13.70
  -3  -5   9  138.09   15.90
   3  -5  -9  176.08   20.20
  -3  -5   9  149.69   13.00
   3   5  -9  158.28   13.40
   3   5  -9  139.59   14.50
  -1  -5   9   13.50    5.20
   1  -5  -9   24.80   10.20
  -1   5   9   25.90    9.50
   1   5  -9   21.90    6.50
   1   5  -9   15.80    5.10
  -1   5   9   11.90   12.40
   0  -5   9  640.74   30.90
   0   5  -9  633.64   31.10
   0   5  -9  651.03   30.50
   0   5  -9  609.54   29.90
   3  -5   9  245.58   18.30
   3  -5   9  232.08   15.20
  -3   5  -9  231.38   16.20
  -3   5  -9  225.98   15.30
  -4   5  -9   60.09   11.50
   5  -5   9  199.88   20.40
  -5   5  -9  198.58   16.20
  -5   5  -9  192.48   16.40
   6  -5   9  115.89   20.10
  -6   5  -9   65.69   14.80
  -6   5  -9   91.09   17.80
   6   6  -9   44.30   15.60
  -5  -6   9   34.50   13.20
   5   6  -9   34.00   10.10
  -4  -6   9    2.00    8.20
  -4  -6   9   12.40   10.60
   4   6  -9   16.20    8.90
   4   6  -9   20.00   10.30
  -3  -6   9   19.80    7.60
  -3  -6   9   38.80    9.50
   3   6  -9   35.50    9.30
   3   6  -9   33.90    8.20
  -1  -6   9  250.57   15.80
   1   6  -9  261.37   16.70
   1   6  -9  257.37   15.50
   2  -6   9  161.08   15.70
   2  -6   9  152.78   12.30
  -2   6  -9  145.69   17.40
  -2   6  -9  140.09   12.50
   3  -6   9   27.80    9.50
  -3   6  -9   19.40    7.10
  -3   6  -9   18.60    7.40
   4  -6   9  690.53   37.80
  -4   6  -9  699.03   34.90
  -4   6  -9  671.13   35.10
   5  -6   9   64.89   13.10
  -5   6  -9   55.49   10.00
  -5   6  -9   75.89   14.90
   6  -6   9   91.89   15.90
  -6   6  -9  133.29   19.70
  -5  -7   9   18.60   14.20
   5   7  -9   34.30   11.10
   5   7  -9   42.50   13.70
  -4  -7   9   27.10   13.70
  -4  -7   9   38.30   11.80
   4   7  -9   33.30   10.60
   4   7  -9   42.20   11.10
  -3  -7   9    2.80    9.10
  -3  -7   9   -0.70    7.50
   3   7  -9   -1.60   10.40
   3   7  -9   -2.30    8.00
  -2  -7   9    4.60    8.30
  -2  -7   9   -7.60    6.40
   2   7  -9   -2.20    7.10
   2   7  -9   14.70    8.00
  -1  -7   9  198.58   14.90
  -1  -7   9  209.78   18.30
   1   7  -9  203.38   17.40
  -1   7   9  269.77   23.80
   1   7  -9  199.08   18.60
   1   7  -9  201.88   14.70
   1   7  -9  209.78   14.70
   1  -7   9  288.17   21.50
   1  -7   9  284.37   18.50
  -1   7  -9  277.27   17.50
  -1   7  -9  274.27   18.20
   2  -7   9   29.70    6.60
   2  -7   9   22.50   10.30
  -2   7  -9   29.30    7.60
  -2   7  -9   19.80    6.90
   3  -7   9  245.68   22.40
  -3   7  -9  272.77   17.70
  -3   7  -9  269.47   18.50
   4  -7   9   57.69   12.50
  -4   7  -9   52.49    9.30
  -4   7  -9   52.19    9.30
   5  -7   9  128.99   21.30
  -5   7  -9  146.59   17.60
  -5   7  -9  142.89   17.10
  -6   7  -9   27.50   13.20
  -5  -8   9  -13.00   15.20
   5   8  -9   -6.00   19.60
   5   8  -9  -13.50   12.20
  -4  -8   9   54.39   12.80
  -4  -8   9   42.90   10.70
   4   8  -9   36.80   11.30
   4   8  -9   26.20   11.20
   4   8  -9   29.70   10.00
  -3  -8   9   -2.10   10.40
  -3  -8   9   11.20    8.50
   3   8  -9   -0.40    9.20
   3   8  -9   -3.00   11.90
   3   8  -9    0.00    8.30
   3   8  -9   17.50    9.50
  -2  -8   9  474.85   26.40
   2   8  -9  457.25   26.00
   2   8  -9  488.15   28.40
   2   8  -9  479.05   26.70
   2   8  -9  459.05   26.90
  -1  -8   9   74.19   16.70
  -1  -8   9   58.09    8.90
   1   8  -9   57.29    8.90
   1   8  -9   60.09   11.80
   1   8  -9   82.49   12.70
   1   8  -9   50.39   12.50
   0  -8   9  401.56   28.00
   0  -8   9  415.16   23.00
   0   8  -9  408.66   23.60
   0   8  -9  394.66   23.10
   1  -8   9  123.09   19.20
  -1   8  -9   92.69   13.40
  -1   8  -9  124.09   12.30
   2  -8   9    6.20   11.90
  -2   8  -9   -6.80    6.90
  -2   8  -9   -1.70    7.90
   3  -8   9   75.59   14.90
  -3   8  -9   85.39   12.50
  -3   8  -9   62.09   10.70
   4  -8   9  133.89   22.40
  -4   8  -9  110.19   15.90
   5  -8   9   33.40   16.20
  -5   8  -9    0.60   11.20
  -4  -9   9    1.90   13.20
   4   9  -9   11.20   12.90
   4   9  -9   -3.10   12.30
  -3  -9   9   82.89   16.20
   3   9  -9  125.29   19.00
   3   9  -9  108.99   18.60
   3   9  -9   80.79   11.90
  -2  -9   9   65.59   10.30
   2   9  -9   61.89   10.40
   2   9  -9   79.49   19.50
   2   9  -9   76.09   14.20
   2   9  -9   79.19   16.00
  -1  -9   9  117.89   14.70
  -1  -9   9  106.79   27.40
   1   9  -9  131.79   18.30
   1   9  -9  133.69   16.00
   1   9  -9  134.39   15.00
   1   9  -9  122.09   20.00
   0  -9   9   70.19   15.10
   0   9  -9   83.39   13.30
   0   9  -9   77.09   10.90
   1  -9   9    6.90   13.90
  -1   9  -9    4.20    8.90
  -1   9  -9    8.50    7.40
   2  -9   9   72.49   15.00
  -2   9  -9   53.39    9.10
  -2   9  -9   44.80   10.50
   3  -9   9  414.86   31.60
  -3   9  -9  375.56   23.70
  -3   9  -9  388.86   24.60
   4  -9   9   73.09   16.90
  -4   9  -9   63.89   12.80
  -4   9  -9   96.59   16.90
   3  10  -9   48.60   14.20
   3  10  -9   55.89   14.80
   3  10  -9   46.60   13.10
   2  10  -9   70.29   17.10
   2  10  -9   50.59   11.50
   2  10  -9   66.69   12.60
  -1 -10   9   34.10   16.20
   1  10  -9   57.49   16.10
   1  10  -9   39.50   11.60
   1  10  -9   30.00   10.30
   0 -10   9  -11.00   15.50
   0  10  -9  -14.00    9.80
   1 -10   9  -26.40   16.30
  -1  10  -9    8.70   10.80
  -1  10  -9   16.90    9.10
   2 -10   9  305.47   31.50
  -2  10  -9  261.57   23.40
  -2  10  -9  300.27   20.60
  -3  10  -9  109.59   19.30
   2  11  -9   39.00   24.90
   2  11  -9   47.20   14.10
  -1 -11   9   11.90   19.50
   1  11  -9   27.70   12.10
   1  11  -9   26.20   19.60
   0 -11   9   -5.90   20.10
   0  11  -9  -19.30   19.60
   1 -11   9   -0.80   20.20
  -1  11  -9   -6.00   16.00
  -2  11  -9   32.70   17.90
  -6   0  10   30.90   12.60
   6   0 -10    3.20   12.00
  -6   0  10   -2.60   12.40
  -5   0  10   76.59   12.20
  -5   0  10   95.79   16.60
   5   0 -10   84.69   16.20
  -4   0  10  397.76   24.80
  -4   0  10  427.86   25.90
   4   0 -10  426.26   25.50
  -3   0  10  205.08   17.70
   3   0 -10  210.38   18.30
  -3   0  10  221.48   17.60
  -2   0  10   19.80    7.60
  -2   0  10    9.90    6.90
   2   0 -10   14.50    6.90
   2   0 -10   13.10    8.00
  -1   0  10    4.80    5.60
   1   0 -10   18.00    5.70
   1   0 -10   -2.40    6.60
   0   0 -10   15.60    6.90
   0   0  10   11.80    5.90
   0   0 -10   10.00    5.10
   1   0  10  440.76   22.30
   1   0  10  423.16   22.30
  -1   0 -10  402.46   22.60
  -1   0 -10  415.86   21.80
   2   0  10  691.03   34.90
  -2   0 -10  730.93   35.70
  -2   0 -10  748.73   35.50
   2   0  10  741.83   36.20
  -3   0 -10   28.40    6.40
  -3   0 -10   27.50    7.00
   3   0  10   32.70    8.90
  -4   0 -10  156.28   13.50
  -4   0 -10  157.48   16.70
   4   0  10  130.89   17.60
  -5   0 -10   99.69   13.30
  -5   0 -10   96.09   15.70
   5   0  10   85.69   13.10
  -6   0 -10  168.08   20.20
   6   0  10  162.68   20.60
  -7  -1  10    5.80   17.40
   6  -1 -10   27.90   15.50
  -6  -1  10   61.19   12.80
  -6  -1  10   40.60   12.50
  -6   1  10   17.50   13.80
  -6   1  10   28.20   12.50
   6   1 -10   35.60   12.10
  -5  -1  10  226.08   19.60
  -5  -1  10  222.08   19.40
   5   1 -10  206.88   18.90
  -4  -1  10  172.68   16.40
  -4  -1  10  190.98   18.30
   4  -1 -10  194.28   18.00
  -4   1  10  205.68   17.10
   4   1 -10  165.28   16.60
  -4   1  10  219.28   19.00
   3  -1 -10  315.17   21.50
  -3   1  10  338.97   20.90
  -3   1  10  316.17   21.40
  -1  -1  10  151.88   12.60
  -1  -1  10  142.89   13.20
   1   1 -10  135.99   13.30
   1   1 -10  151.78   11.90
   0  -1  10  218.48   13.60
   0  -1 -10  174.68   13.00
   0  -1 -10  209.98   15.90
   0   1 -10  212.58   14.20
   0   1 -10  196.28   12.70
   0   1  10  199.28   14.60
  -1  -1 -10  357.06   20.80
  -1  -1 -10  337.77   18.90
   1   1  10  344.57   20.50
   1   1  10  355.66   20.20
  -6  -1 -10   15.80   12.50
   6  -1  10   -2.40   10.90
  -6   1 -10    0.70   10.10
   6   1  10    7.30   12.50
  -6  -2  10   19.80   13.10
  -6  -2  10   21.10   11.20
   6   2 -10    7.90   10.40
  -6   2  10   27.90   15.50
  -5  -2  10  219.28   21.00
  -5  -2  10  273.77   20.90
   5   2 -10  224.88   18.60
  -2  -2  10  161.48   13.60
  -2  -2  10  163.18   15.20
   2  -2 -10  216.78   13.80
   2   2 -10  149.29   14.20
  -2   2  10  213.78   15.20
   2   2 -10  151.18   14.50
  -2   2  10  220.98   15.90
  -1  -2  10  305.37   17.50
  -1  -2  10  315.67   18.90
   1   2 -10  298.17   17.80
   1   2 -10  293.47   18.50
   1  -2  10  412.56   21.60
  -1   2 -10  418.66   22.10
  -1   2 -10  431.56   22.00
   2  -2  10  325.67   18.90
   2  -2  10  316.67   17.80
  -2   2 -10  326.67   17.50
  -2   2 -10  319.57   18.30
   3  -2  10   55.09   12.00
   3  -2  10   51.59    9.20
  -3   2 -10   63.89   10.60
  -3   2 -10   68.59    8.30
  -4  -2 -10   89.39   14.30
   4  -2  10   54.69   11.10
   4   2  10   70.29   11.90
  -4   2 -10   64.29   12.10
   5  -2  10   65.99   11.50
  -6  -2 -10    6.80   10.70
   6  -2  10   12.60   10.60
  -6   2 -10   17.90   10.30
  -6  -3  10  124.79   20.90
   6   3 -10  117.79   17.20
   5  -3 -10   68.39   14.30
  -5  -3  10   57.09   11.00
  -5  -3  10   75.79   12.70
   5   3 -10   38.70   10.50
  -5   3  10   60.09   12.00
   4  -3 -10   23.90   10.80
  -4   3  10   26.50    9.30
  -3  -3  10  352.46   19.90
  -3  -3  10  282.57   27.40
   3   3 -10  329.87   20.20
   3   3 -10  319.87   23.20
  -2  -3  10  396.26   22.60
  -2  -3  10  427.26   24.30
   2   3 -10  392.26   23.40
   2   3 -10  395.96   23.20
  -2   3  10  500.65   25.40
  -1  -3  10  792.22   39.40
  -1  -3  10  849.91   40.70
   1   3 -10  820.52   39.90
   1   3 -10  840.52   40.00
   3  -3  10  247.98   15.20
   3  -3  10  232.38   17.20
  -3   3 -10  242.68   14.90
   5  -3  10   -5.60    9.50
  -5  -3 -10    6.70   10.40
   5   3  10   -6.00   12.20
  -5   3 -10    3.30    8.10
   6  -3  10   40.60   11.70
  -6   3 -10   36.50   10.70
  -6  -4  10   60.29   13.40
   6   4 -10   53.79   11.80
  -5  -4  10   41.10   10.10
  -5  -4  10   54.99   12.90
   5   4 -10   41.90    9.80
  -4  -4  10   55.29   11.30
  -4  -4  10   53.99   12.40
   4   4 -10   67.29   13.20
  -3  -4  10  159.08   13.30
  -3  -4  10  153.08   16.20
   3   4 -10  123.69   15.10
   3   4 -10  144.79   14.20
   2  -4 -10  238.48   19.50
  -2  -4  10  192.08   16.40
  -2  -4  10  189.28   13.90
   2   4 -10  198.08   15.20
  -2   4  10  237.18   18.80
   2   4 -10  198.88   15.30
  -1  -4  10  391.76   21.20
   1   4 -10  407.46   22.00
   1   4 -10  404.16   22.10
   0  -4  10  176.58   12.40
   0  -4 -10  191.98   18.10
   0   4  10  160.98   17.00
   0   4 -10  192.88   12.80
   0   4  10  163.78   19.20
   0   4 -10  172.88   13.20
   1  -4  10   10.50    5.10
   1  -4  10   11.90    6.20
  -1  -4 -10    9.90    9.10
  -1   4 -10    4.80    6.00
   1   4  10    2.80   15.90
   1   4  10   12.40    9.20
   3  -4  10   85.79   13.00
   3  -4  10   76.39   10.30
  -3  -4 -10   95.49   16.30
  -3   4 -10   74.19   10.40
  -3   4 -10   70.39   11.40
   3   4  10   84.09   19.40
   4  -4  10  305.37   19.30
   4  -4  10  316.27   21.50
  -4   4 -10  325.17   19.70
  -4   4 -10  320.47   19.00
   5  -4  10  200.58   18.60
  -5   4 -10  168.08   15.80
  -5   4 -10  149.09   22.80
   6  -4  10   29.30   11.80
   6   5 -10   15.10   11.40
  -5  -5  10  273.17   20.90
  -5  -5  10  259.67   24.20
   5   5 -10  259.47   20.50
  -4  -5  10   -2.50    9.90
   4   5 -10    6.60    8.40
   4   5 -10    0.30    9.70
  -3  -5  10  418.06   25.70
  -3  -5  10  414.16   23.30
   3   5 -10  427.96   23.80
   3   5 -10  401.96   24.40
  -2  -5  10  206.68   22.90
   2  -5 -10  296.77   21.90
  -2  -5  10  241.98   16.00
   2   5 -10  256.27   16.60
   2   5 -10  223.08   18.20
  -2   5  10  273.87   21.80
   0   5  10   71.99   14.70
   2  -5  10   34.80    8.30
   2  -5  10   39.60    6.70
   2   5  10    7.10   13.70
  -2   5 -10   34.90    8.30
  -2   5 -10   39.20    6.70
   3  -5  10  666.13   33.70
   3  -5  10  656.93   35.80
  -3   5 -10  672.33   33.70
  -3   5 -10  700.33   34.40
   4  -5  10  122.89   17.80
  -4   5 -10  137.09   13.70
  -4   5 -10  131.49   13.40
   5  -5  10    3.30   10.90
  -5   5 -10    9.80    8.00
  -5   5 -10    6.80    8.40
   6  -5  10   10.50   13.40
  -5  -6  10   24.40   13.10
   5   6 -10   30.00   10.10
  -4  -6  10  458.45   29.10
  -4  -6  10  419.76   26.50
   4   6 -10  490.75   26.80
   4   6 -10  448.96   27.60
  -3  -6  10  271.27   20.50
   3   6 -10  240.18   19.10
  -2  -6  10   81.29   12.10
  -2  -6  10  102.49   15.10
   2   6 -10  100.89   12.60
  -2   6  10   73.69   18.60
   2   6 -10  117.59   13.50
  -1  -6  10  122.49   12.50
   1   6 -10  152.38   12.80
   1   6 -10  169.78   13.90
   0  -6 -10  201.58   21.50
   0   6  10  242.98   27.60
   0   6  10  191.38   22.30
   1  -6  10   90.59   10.40
   1  -6  10  105.29   14.90
  -1  -6 -10   51.49   17.90
  -1   6 -10   89.79   13.20
  -1   6 -10  106.89   11.60
   1   6  10   72.09   16.90
   2  -6  10  256.57   19.50
   2  -6  10  234.58   16.80
  -2   6 -10  250.17   17.10
  -2   6 -10  242.68   16.00
   3  -6  10  103.89   12.40
   3  -6  10  133.49   17.00
  -3   6 -10   96.79   13.40
  -3   6 -10  113.09   12.50
   4  -6  10  157.48   19.30
  -4   6 -10  154.38   14.90
  -4   6 -10  132.69   14.50
   5  -6  10    4.70   11.80
  -5   6 -10    7.30    8.70
  -5   6 -10   -6.40    9.00
  -6   6 -10   23.40   12.70
  -5  -7  10   30.80   15.40
   5   7 -10   38.30   11.60
   5   7 -10   67.59   15.60
  -4  -7  10  156.08   21.10
  -4  -7  10  145.49   16.90
   4   7 -10  153.08   18.90
   4   7 -10  188.28   18.10
  -3  -7  10  195.88   16.50
  -3  -7  10  190.88   19.60
   3   7 -10  207.08   18.00
   3   7 -10  211.98   17.70
  -2  -7  10  109.19   13.70
   2   7 -10  144.29   14.30
   2   7 -10  175.78   15.70
  -1  -7  10   74.49   15.60
  -1  -7  10   57.39    8.40
   1   7 -10   68.79   11.80
   1   7 -10   60.89    9.50
   1   7 -10   59.69   11.00
   0  -7  10   45.00    7.80
   0  -7  10   56.19   11.10
   0   7  10   83.09   16.50
   0   7 -10   47.60    8.00
   0   7 -10   68.99   12.40
   1  -7  10  138.99   13.00
   1  -7  10  156.48   17.90
  -1   7 -10  151.28   12.80
  -1   7 -10  122.69   13.80
   2  -7  10  243.58   21.90
   2  -7  10  229.58   16.10
  -2   7 -10  222.78   16.10
  -2   7 -10  240.98   17.10
   3  -7  10  268.07   23.30
  -3   7 -10  261.17   18.90
  -3   7 -10  267.97   18.40
   4  -7  10    9.90   11.80
  -4   7 -10   -4.00    8.10
  -4   7 -10    6.60    8.40
   5  -7  10   35.90   13.90
  -5   7 -10   28.90   10.80
  -6   7 -10   26.20   13.50
  -4  -8  10   99.59   17.80
  -4  -8  10   90.49   14.40
   4   8 -10   80.49   12.10
   4   8 -10  132.29   19.00
   4   8 -10   77.69   13.40
  -3  -8  10   59.09   10.40
  -3  -8  10   56.09   12.50
   3   8 -10   51.49   10.20
   3   8 -10   43.10   11.20
   3   8 -10   51.39   11.50
  -2  -8  10    6.80    8.30
   2   8 -10    7.90    9.20
   2   8 -10    7.40   11.60
   2   8 -10   20.30    9.60
   2   8 -10   11.90    8.30
  -1  -8  10   13.00    8.10
  -1  -8  10   21.70   10.90
   1   8 -10   15.90    7.80
   1   8 -10   25.30    8.40
   1   8 -10   20.50    7.70
   0  -8  10  102.99   20.70
   0  -8  10  137.79   13.50
   0   8 -10  131.29   13.60
   0   8 -10  149.79   15.00
   1  -8  10  276.87   18.50
   1  -8  10  310.17   24.80
  -1   8 -10  270.77   18.50
  -1   8 -10  296.27   19.50
   2  -8  10   94.89   20.60
  -2   8 -10   74.69   14.00
  -2   8 -10   65.99   12.50
   3  -8  10   73.89   15.30
  -3   8 -10   79.89   13.20
  -3   8 -10   72.29   11.00
   4  -8  10    6.20   13.90
  -4   8 -10   18.20    9.00
  -4   8 -10    6.50    9.50
  -5   8 -10   43.20   14.10
  -4  -9  10   54.99   15.90
   4   9 -10   64.09   14.50
   4   9 -10   81.99   21.10
  -3  -9  10    0.90   10.40
   3   9 -10  -10.60   12.10
   3   9 -10    3.90   10.40
   3   9 -10   17.60   11.90
  -2  -9  10    5.30    8.80
   2   9 -10   -8.00   10.10
   2   9 -10  -10.60    9.30
   2   9 -10   -9.30   10.70
  -1  -9  10   28.30   14.30
  -1  -9  10   29.40    9.00
   1   9 -10   22.50   23.20
   1   9 -10   40.00   10.30
   1   9 -10   23.90    9.50
   0  -9  10  179.18   16.20
   0   9 -10  200.98   16.30
   0   9 -10  190.88   18.20
   1  -9  10   69.89   16.40
  -1   9 -10   70.59   11.20
  -1   9 -10   74.29   13.40
   2  -9  10   75.19   15.70
  -2   9 -10   46.90    9.40
  -2   9 -10   48.10   11.00
   3  -9  10   41.70   15.20
  -3   9 -10   26.90    9.20
  -3   9 -10    8.40   11.00
   4  -9  10   27.80   17.50
   3  10 -10   23.20   14.30
   3  10 -10   17.70   12.60
   3  10 -10  -22.50   23.00
   2  10 -10   15.10   10.80
   2  10 -10   14.10   12.20
  -1 -10  10   60.69   18.20
   1  10 -10   61.89   12.60
   1  10 -10   84.59   17.60
   1  10 -10   59.89   12.00
   0 -10  10  246.08   30.00
   0  10 -10  224.18   18.60
   0  10 -10  164.38   19.90
   1 -10  10   -9.00   18.30
  -1  10 -10   21.00   11.20
  -1  10 -10   24.60    9.60
   2 -10  10   76.69   18.80
   3 -10  10   25.70   18.80
   1  11 -10  209.58   24.40
   0 -11  10   63.79   23.30
   0  11 -10   48.80   14.60
   0  11 -10   56.39   23.50
   1 -11  10  -10.70   21.60
  -1  11 -10  -10.90   13.40
  -6   0  11  179.68   23.10
   5   0 -11   80.79   13.50
  -5   0  11  135.59   20.50
  -5   0  11  104.99   18.10
  -4   0  11    6.00   11.60
   4   0 -11   12.70    9.90
  -4   0  11    4.70    9.20
  -3   0  11  211.08   22.80
   3   0 -11  221.58   19.70
  -3   0  11  226.88   17.80
   3   0 -11  223.38   18.60
  -2   0  11  258.07   18.40
   2   0 -11  232.38   23.30
  -2   0  11  257.57   17.80
   2   0 -11  247.48   17.00
  -1   0  11  378.96   22.20
   1   0 -11  396.66   21.50
   1   0 -11  399.16   23.10
   0   0 -11   18.00    6.30
   0   0 -11   36.00    8.50
   0   0  11   31.20    7.70
   1   0  11    4.50    6.30
  -1   0 -11   14.10    6.90
  -1   0 -11    6.20    6.00
   2   0  11    2.90    5.80
  -2   0 -11    2.50    6.70
   2   0  11    8.90    7.50
  -2   0 -11    6.90    7.00
   3   0  11  310.57   21.90
  -3   0 -11  313.47   18.80
  -3   0 -11  294.77   19.20
  -4   0 -11  210.78   16.30
  -4   0 -11  211.48   17.40
   4   0  11  184.28   20.40
  -5   0 -11    5.40   10.30
   5   0  11   -0.90   11.10
  -5   0 -11    9.80   10.10
  -6   0 -11   30.80   13.00
  -6  -1  11   47.00   13.80
   2  -1 -11  257.67   17.10
   2  -1 -11  245.58   19.00
  -2   1  11  247.48   18.50
  -2   1  11  285.07   18.80
  -1  -1  11   87.69   12.00
   1   1 -11   93.29   11.10
   1   1 -11   83.79   12.70
   0  -1 -11  119.49   14.50
   0  -1 -11  110.59   11.70
   0   1  11  123.39   13.20
   3  -1  11  928.41   46.20
   3  -1  11  985.30   48.00
  -3   1 -11  974.90   46.30
  -3   1 -11 1029.20   47.30
  -5   1 -11   80.79   12.30
   6  -1  11   -0.10   13.00
  -6   1 -11    7.70   11.90
  -6  -2  11   16.10   14.10
   5  -2 -11   75.69   17.90
  -5  -2  11   41.90   13.10
  -5  -2  11   22.80   12.10
  -5   2  11   70.89   16.80
  -5   2  11   65.99   12.10
   2  -2 -11  254.27   18.90
  -2  -2  11  245.38   16.60
   2  -2 -11  221.18   16.50
  -2  -2  11  254.97   18.30
  -2   2  11  231.48   18.70
   2   2 -11  236.38   17.80
  -2   2  11  204.98   18.00
   2   2 -11  242.38   16.70
  -1  -2  11  128.09   12.10
   1   2 -11  132.49   12.20
   1   2 -11  106.39   13.90
   0  -2  11  219.48   14.60
   0   2 -11  226.38   14.70
   0   2 -11  235.88   15.70
   2  -2  11  210.18   15.80
   2  -2  11  212.98   14.80
  -2   2 -11  225.48   14.40
  -2   2 -11  237.58   15.50
   3  -2  11  127.59   14.60
   3  -2  11  122.19   12.00
  -3   2 -11  145.69   11.10
  -3   2 -11  142.39   15.40
  -4  -2 -11  264.97   20.10
   4   2  11  241.38   22.20
  -5  -2 -11   35.60   11.50
   5  -2  11   42.40   11.20
   5   2  11   24.00   13.40
   6  -2  11  190.18   22.50
  -6   2 -11  174.18   20.80
  -6  -3  11  -10.70   13.10
  -5  -3  11  138.39   18.90
  -5  -3  11  133.09   16.20
   5   3 -11  115.09   16.60
   4  -3 -11  172.58   20.10
  -4  -3  11  224.08   18.00
  -4   3  11  157.98   18.90
   4   3 -11  220.18   17.40
  -3  -3  11  255.37   17.70
  -3  -3  11  257.07   20.00
   3   3 -11  215.28   23.20
   3   3 -11  223.98   18.30
   2  -3 -11   89.59   16.30
  -2  -3  11  142.39   21.00
  -2  -3  11  131.29   12.80
   2   3 -11  130.99   14.30
   2   3 -11  130.59   20.20
   0  -3  11  474.85   23.40
   0  -3 -11  420.86   27.20
   0   3  11  396.66   26.70
   0   3  11  408.56   26.50
   0   3 -11  491.45   24.30
   0   3 -11  474.55   23.80
   3  -3  11   24.70    8.60
   3  -3  11   22.70    6.50
  -3  -3 -11   17.50    9.50
  -3   3 -11   37.80    8.10
   3   3  11   17.70   11.90
   4  -3  11   14.70    7.30
  -4  -3 -11   28.10   10.40
   4  -3  11   21.90    9.50
   4   3  11    9.20   13.30
  -4   3 -11   22.60    8.30
  -4   3 -11   27.40    7.20
   5  -3  11  468.45   29.90
  -5   3 -11  468.55   27.50
   6  -3  11   33.60   13.10
  -6  -4  11   15.30   13.60
  -5  -4  11   88.79   17.30
  -5  -4  11   95.19   14.50
   5   4 -11   74.09   12.30
  -4  -4  11   43.50    9.60
  -4  -4  11   57.49   11.70
   4   4 -11   48.40   10.70
   4   4 -11   44.30   10.60
  -3  -4  11  119.09   13.20
   3  -4 -11  107.59   19.60
  -3  -4  11  118.39   15.90
   3   4 -11   92.59   17.70
  -3   4  11  104.99   17.80
   3   4 -11   92.49   14.40
  -2  -4  11  122.79   12.20
  -2  -4  11  124.69   14.90
   2   4 -11  119.39   13.70
   2   4 -11  110.89   13.90
  -1  -4  11  138.59   11.90
   1   4 -11  145.59   14.00
   1   4 -11  137.99   15.10
  -1  -4 -11  218.78   21.20
   1  -4  11  290.57   16.20
  -1   4 -11  281.47   17.60
   1   4  11  216.18   21.70
   1   4  11  265.57   24.20
  -3  -4 -11   16.30   10.90
   3  -4  11    6.70    6.30
   3  -4  11   10.50    8.40
  -3   4 -11    6.10    6.40
   3   4  11   14.00   14.40
  -3   4 -11    2.20    7.20
   4  -4  11   77.89   14.90
   4   4  11   63.49   15.70
  -4   4 -11   54.29    9.30
   5  -4  11   48.00   11.40
  -5   4 -11   51.89    9.70
  -5   4 -11   54.59    9.70
   6  -4  11   27.10   12.50
  -5  -5  11   13.20   12.40
  -5  -5  11    9.50   10.50
   5   5 -11   -1.00   10.00
  -4  -5  11   68.39   12.50
   4   5 -11   47.20   10.70
   4   5 -11   91.29   15.20
  -3  -5  11  304.77   19.90
  -3  -5  11  306.57   21.70
   3   5 -11  304.17   20.90
   3   5 -11  277.67   20.50
  -2  -5  11    3.00    8.90
  -2   5  11   -4.10   11.10
   2   5 -11   -3.00    7.90
   2   5 -11    9.80    7.80
   0  -5  11  396.26   21.90
   0   5 -11  390.16   22.50
   0   5 -11  399.86   22.10
   1  -5  11  140.89   14.30
   1  -5  11  126.99   11.40
  -1  -5 -11  125.49   19.60
   1   5  11  117.69   21.20
   1   5  11   88.19   16.70
  -1   5 -11  118.79   12.80
   2  -5  11   66.79   13.90
  -2  -5 -11   86.79   17.80
   2   5  11   37.60   17.40
  -2   5 -11   58.09    8.80
   3  -5  11  137.59   13.80
   3  -5  11  149.19   17.50
  -3   5 -11  154.38   13.40
  -3   5 -11  133.29   14.10
   4  -5  11  159.28   20.10
  -4   5 -11  142.99   14.60
  -4   5 -11  154.68   14.40
   5  -5  11   34.30   13.30
  -5   5 -11   28.00    9.60
  -5   5 -11   45.10    9.30
  -5  -6  11   58.19   19.80
  -5  -6  11   40.90   12.90
   5   6 -11   75.69   12.40
  -4  -6  11  572.34   33.60
  -4  -6  11  539.95   31.80
   4   6 -11  558.54   31.80
   4   6 -11  574.64   32.00
  -3  -6  11   -5.90    9.60
  -3  -6  11   -6.90    8.00
   3   6 -11    1.20    8.70
   3   6 -11    7.00    8.80
  -2  -6  11  363.76   24.10
  -2  -6  11  357.96   21.80
   2   6 -11  358.56   22.80
   2   6 -11  370.16   22.20
  -1  -6  11  476.95   26.10
   1   6 -11  497.05   27.00
   1   6 -11  489.35   26.40
   0  -6  11    3.40    6.10
   0   6 -11   10.30    7.50
   0   6  11   21.20   14.60
   0   6 -11   19.80    7.60
   1  -6  11  182.58   13.70
   1  -6  11  175.28   17.90
  -1   6 -11  177.18   14.50
  -1   6 -11  173.78   13.50
   1   6  11  126.59   31.60
   2  -6  11   87.79   11.80
   2  -6  11   80.59   16.10
  -2   6 -11   86.99   11.80
  -2   6 -11   67.19   12.50
   3  -6  11  264.57   17.70
   3  -6  11  315.37   31.70
  -3   6 -11  221.58   18.20
  -3   6 -11  247.18   17.80
   4  -6  11  181.08   21.70
  -4   6 -11  211.58   16.70
  -4   6 -11  182.18   17.10
   5  -6  11   52.29   14.30
  -5   6 -11   65.19   11.20
   5   7 -11  185.98   21.60
  -4  -7  11    1.30   11.80
  -4  -7  11   -6.60    9.80
   4   7 -11    0.90   10.70
   4   7 -11  -17.30   10.50
  -3  -7  11  -12.50    8.40
  -3  -7  11   -2.20   10.70
   3   7 -11    8.30    9.50
   3   7 -11   16.70    9.90
  -2  -7  11  133.39   14.50
   2   7 -11  160.78   16.70
   2   7 -11  160.28   16.30
  -1  -7  11   72.19   12.40
   1   7 -11   80.19   10.60
   1   7 -11   90.29   13.60
   0  -7  11  143.49   13.80
   0   7 -11  175.98   15.60
   0   7 -11  158.38   13.50
   1  -7  11    6.80   10.00
   1  -7  11   -9.70    5.90
  -1   7 -11  -10.90    7.70
   2  -7  11   64.39   13.10
   2  -7  11   64.39   11.50
  -2   7 -11   63.49    9.80
  -2   7 -11   50.49    8.70
   3  -7  11  221.38   22.90
  -3   7 -11  182.28   19.10
  -3   7 -11  212.58   16.80
   4  -7  11   97.19   21.90
  -4   7 -11   85.79   15.10
  -4   7 -11   77.79   14.50
  -5   7 -11   54.49   11.90
  -4  -8  11   -3.10   11.40
  -4  -8  11    3.80   13.30
   4   8 -11   -1.50   11.30
   4   8 -11  -13.00   16.40
  -3  -8  11   41.20   10.40
  -3  -8  11   32.80   12.70
   3   8 -11   35.20    9.80
   3   8 -11   53.59   11.30
   3   8 -11   51.79   11.50
  -2  -8  11  435.16   26.10
   2   8 -11  451.45   29.10
   2   8 -11  415.66   25.70
   2   8 -11  467.95   27.00
  -1  -8  11   57.59    9.60
   1   8 -11   65.89   10.30
   1   8 -11   82.89   15.60
   1   8 -11   43.60    9.20
   0  -8  11   29.80    8.30
   0  -8  11   22.00   13.20
   0   8 -11   29.70    8.20
   0   8 -11   35.70    9.60
   1  -8  11   13.10   12.60
   1  -8  11   -6.60    6.80
   2  -8  11  128.19   13.70
   2  -8  11  155.38   22.80
  -2   8 -11  132.29   13.90
  -2   8 -11  114.39   15.40
   3  -8  11   64.49   16.20
  -3   8 -11   45.50   10.60
  -3   8 -11   55.79   10.10
   4  -8  11   58.79   16.80
  -4   8 -11   81.19   16.00
   4   9 -11   27.00   14.10
  -3  -9  11   59.19   12.50
   3   9 -11   58.29   12.00
   3   9 -11   63.39   13.60
   3   9 -11   77.79   14.10
  -2  -9  11   20.10   10.50
   2   9 -11   26.80   11.60
   2   9 -11   35.20    9.80
  -1  -9  11  264.67   20.00
   1   9 -11  240.88   19.90
   1   9 -11  268.57   21.20
   0  -9  11   -1.50   15.80
   0  -9  11    0.60    8.00
   0   9 -11   -5.10    8.30
   0   9 -11    6.80   10.00
   1  -9  11   49.40   17.30
  -1   9 -11   40.80   10.40
  -1   9 -11   33.40    8.70
   2  -9  11   56.99   16.90
  -2   9 -11   42.30    9.60
  -2   9 -11   31.70   10.40
   3  -9  11   87.09   18.10
  -3   9 -11   85.39   15.20
  -3   9 -11   51.89   13.30
   4  -9  11  -10.00   30.10
  -3 -10  11   39.20   13.30
   3  10 -11   22.90   13.80
  -2 -10  11  167.48   20.30
   2  10 -11  183.78   22.70
   2  10 -11  171.58   20.60
   1  10 -11   18.30   10.60
   1  10 -11   -5.10   12.30
   0 -10  11   24.80   21.10
   0  10 -11  -13.60   11.30
   0  10 -11   -4.30   10.00
   1 -10  11   29.60   19.80
  -1  10 -11   45.80   11.70
  -1  10 -11   23.00   12.60
   2 -10  11  144.99   31.90
   3 -10  11   59.29   35.20
   1 -11  11  134.19   25.30
   5   0 -12  189.48   21.40
  -5   0  12  260.07   22.50
  -5   0  12  223.48   25.60
  -4   0  12  235.08   23.50
   4   0 -12  274.57   21.40
   4   0 -12  244.98   22.10
  -4   0  12  268.47   20.80
  -3   0  12   96.89   15.20
   3   0 -12  105.09   16.10
   3   0 -12   89.29   16.30
  -3   0  12  123.29   17.00
   2   0 -12  254.07   17.90
  -2   0  12  240.28   19.90
   2   0 -12  258.27   19.20
  -2   0  12  253.77   18.20
   1   0 -12  150.58   13.70
  -1   0  12  115.09   14.90
   1   0 -12  145.29   15.00
   0   0 -12  254.77   17.80
   0   0 -12  299.67   20.10
  -1   0 -12  414.36   22.90
   1   0  12  415.76   23.90
  -1   0 -12  409.36   24.10
   2   0  12   98.29   15.10
  -2   0 -12   79.69   13.50
   2   0  12   88.59   12.50
  -2   0 -12   70.99   13.00
   3   0  12   27.10   11.10
  -3   0 -12   22.90    7.90
  -4   0 -12   46.00   10.50
   4   0  12   17.90   11.80
  -4   0 -12   40.40    9.40
   5   0  12   23.30   12.60
  -5   0 -12   25.40   12.20
  -5  -1  12  269.67   23.30
  -5  -1  12  267.17   25.90
   5   1 -12  266.47   23.20
   4  -1 -12  257.87   21.10
   4  -1 -12  237.68   22.40
  -4   1  12  255.47   20.50
  -4   1  12  214.28   24.00
  -2  -1  12  126.79   21.80
  -2  -1  12  149.69   15.80
   2   1 -12  138.49   16.10
   2   1 -12  127.69   21.60
  -1  -1  12  333.57   20.80
   1   1 -12  326.07   21.10
   1   1 -12  328.07   20.00
   0  -1 -12  168.88   16.60
   0  -1 -12  163.78   14.50
   0   1  12  164.18   16.40
  -1  -1 -12   85.99   14.30
  -1  -1 -12   76.19   12.30
   1   1  12   73.79   13.50
   1   1  12   63.69   14.10
  -3  -1 -12   24.20   10.60
   3  -1  12   36.40    9.70
  -3  -1 -12   22.00    8.60
   3  -1  12   34.10    7.50
   3   1  12   37.20   11.00
  -3   1 -12   33.40    8.80
  -3   1 -12   38.90    7.30
   4  -1  12   96.49   17.80
  -4   1 -12  100.69   15.90
  -4   1 -12   88.39   15.30
   5  -1  12    8.70   12.70
   5   1  12   14.10   15.50
  -5   1 -12    4.30   11.20
  -6  -2  12   67.49   16.50
  -5  -2  12  127.29   20.60
  -5  -2  12   78.59   15.60
   5   2 -12  103.69   17.90
   4  -2 -12   43.40   12.70
  -4  -2  12   55.59   12.50
  -4  -2  12   62.39   11.50
   4   2 -12   57.89   11.70
  -4   2  12   85.99   16.40
   4   2 -12   65.59   11.80
  -3  -2  12  110.09   15.50
  -3  -2  12  140.39   17.40
   3   2 -12  134.69   16.20
   3   2 -12  129.29   16.60
   0  -2  12  407.16   22.90
   0   2 -12  415.96   23.30
   0   2 -12  418.66   23.00
   2  -2  12   37.20    8.50
  -2  -2 -12   23.50    9.50
   2  -2  12   38.50    7.60
  -2   2 -12   42.80    7.70
   2   2  12   22.30    9.70
   2   2  12   31.10   13.60
   3  -2  12  187.98   17.40
   3  -2  12  182.78   14.60
  -3   2 -12  182.68   16.10
  -3   2 -12  190.98   13.80
  -4  -2 -12    7.30    9.90
   4  -2  12    4.60   10.00
   4  -2  12    7.40    7.50
  -4   2 -12    5.30    7.50
  -4   2 -12    4.30    8.80
   4   2  12   34.00   13.40
   5  -2  12  188.68   21.70
  -5   2 -12  186.48   19.50
  -6  -3  12   79.39   17.00
  -5  -3  12   -3.40   11.80
  -5  -3  12   -2.30   12.60
   5   3 -12  -16.30   10.50
  -4  -3  12   -4.90    9.60
  -4  -3  12   -8.60   10.70
   4   3 -12   20.50   10.50
   4   3 -12   -7.80   10.10
  -2  -3  12  885.71   44.80
  -2  -3  12  857.61   43.40
   2   3 -12  892.61   43.70
   2   3 -12  893.41   44.40
  -1  -3  12  219.28   16.90
   1   3 -12  215.28   18.30
   1   3 -12  219.08   17.50
   0  -3 -12   41.30   10.70
   0  -3  12   28.70    7.20
   0   3 -12   32.00    8.10
   0   3  12   44.30   10.70
  -1  -3 -12   17.60   10.10
   1   3  12    2.60   10.00
   1   3  12    5.30   12.10
   2  -3  12   95.19   13.30
   2  -3  12  107.49   12.00
  -2  -3 -12   83.49   12.80
  -2   3 -12  102.19   11.00
   2   3  12   77.09   14.40
  -2   3 -12   99.19   12.60
   3  -3  12  132.19   15.70
   3  -3  12  125.89   13.10
  -3   3 -12  125.39   14.50
   5  -3  12  336.27   26.50
  -5   3 -12  322.77   22.90
  -6  -4  12    3.80   15.00
  -5  -4  12   17.00   12.10
  -5  -4  12   23.40   13.10
   5   4 -12   16.90   11.40
  -4  -4  12   15.30    9.80
  -4  -4  12   27.00   11.60
   4   4 -12   21.50   10.10
   4   4 -12    4.70   10.20
  -3  -4  12  313.47   22.70
  -3  -4  12  289.27   20.00
   3   4 -12  287.77   20.80
   3   4 -12  284.87   21.40
  -2  -4  12  204.18   16.20
  -2  -4  12  210.38   19.40
   2   4 -12  207.48   17.10
   2   4 -12  208.58   18.00
   1  -4 -12  196.18   20.60
  -1  -4  12  229.48   15.40
   1   4 -12  247.88   16.80
  -1   4  12  157.28   20.80
   1   4 -12  208.48   17.40
   0  -4 -12   46.00   12.50
   0  -4  12   57.29    9.20
   0   4 -12   63.29   12.50
   0   4  12   47.20   12.40
  -1  -4 -12   31.60   11.40
  -1   4 -12   26.10    8.10
   1   4  12   49.20   12.40
  -1   4 -12   33.40    7.10
   2  -4  12  320.37   20.90
   2  -4  12  287.77   21.10
  -2   4 -12  320.07   19.80
   3  -4  12   86.89   12.30
  -3   4 -12   67.19   13.00
  -3   4 -12   79.79   11.60
   3   4  12   54.69   16.90
   4  -4  12  221.18   17.80
   4  -4  12  261.67   21.30
  -4   4 -12  233.08   17.90
  -4   4 -12  213.08   17.60
   5  -4  12   14.00   11.90
  -5   4 -12   -8.60   11.80
  -5   4 -12   -3.30    9.40
  -5  -5  12   24.70   12.10
   5   5 -12   12.80   12.10
  -4  -5  12   26.00   11.90
  -4  -5  12   32.70    9.90
   4   5 -12   44.80   10.90
   4   5 -12    9.80   11.10
  -3  -5  12  275.47   19.50
  -3  -5  12  228.88   21.10
   3   5 -12  261.17   19.30
   3   5 -12  248.08   20.50
  -2  -5  12  221.98   19.60
  -2  -5  12  217.68   16.50
   2   5 -12  217.28   17.70
   2   5 -12  190.98   18.10
  -1  -5  12  653.53   33.30
   1   5 -12  644.44   34.00
   1   5 -12  658.23   34.00
   0  -5  12   65.09   11.00
   0   5  12   29.70   14.30
   0   5 -12   62.09   12.90
   0   5 -12   69.49   12.30
   1  -5  12   97.29   11.50
  -1   5 -12   93.59   12.60
   2  -5  12  155.68   13.70
   2  -5  12  166.48   17.20
  -2   5 -12  143.69   14.50
   3  -5  12   88.59   12.40
   3  -5  12   67.69   12.90
  -3   5 -12   82.09   12.60
  -3   5 -12   72.69   10.30
   4  -5  12    2.40   11.50
   4  -5  12   -3.20    7.80
  -4   5 -12    1.10    8.10
  -4   5 -12    2.40    7.70
   5  -5  12   77.09   16.00
  -5   5 -12   70.79   11.80
  -5  -6  12   17.60   13.40
   5   6 -12    4.60   12.80
  -4  -6  12   62.49   12.20
   4   6 -12   57.69   12.70
   4   6 -12   56.79   11.90
  -3  -6  12  112.29   15.80
  -3  -6  12   78.99   13.20
   3   6 -12   88.59   17.40
   3   6 -12   70.89   11.40
  -2  -6  12  339.67   21.60
   2   6 -12  361.06   22.60
   2   6 -12  332.27   22.90
  -1  -6  12   22.00    7.70
   1   6 -12   17.50    9.20
   1   6 -12   18.70    8.90
   0  -6  12   91.39   11.60
   0   6 -12   73.39   12.90
   1  -6  12  377.26   21.90
   1  -6  12  367.06   25.30
  -1   6 -12  399.46   22.60
   2  -6  12  329.07   24.80
   2  -6  12  351.16   21.10
  -2   6 -12  363.96   21.80
  -2   6 -12  361.66   21.30
   3  -6  12   16.10   10.80
   3  -6  12   -3.40    7.20
   4  -6  12   36.60   13.70
  -4   6 -12   23.70    8.80
  -4   6 -12   27.00    9.70
   5  -6  12   -5.70   15.00
  -5   6 -12   10.80   10.80
  -4  -7  12   45.90   15.30
  -4  -7  12   28.90   11.70
   4   7 -12   50.89   16.40
  -3  -7  12   36.80   12.90
   3   7 -12   55.49   11.80
   3   7 -12   65.79   12.00
  -2  -7  12    8.40    8.20
   2   7 -12   -1.30   11.40
   2   7 -12    3.80   10.80
  -1  -7  12   18.30    7.50
   1   7 -12   20.10    8.80
   1   7 -12   32.10    9.50
   0  -7  12  195.58   15.70
   0   7 -12  193.48   15.30
   0   7 -12  210.78   17.40
   1  -7  12  680.03   34.80
   1  -7  12  684.83   38.20
  -1   7 -12  662.93   34.90
  -1   7 -12  711.23   35.60
   2  -7  12   47.60    8.90
   2  -7  12   60.99   14.00
  -2   7 -12   38.30    9.00
  -2   7 -12   52.89    9.90
   3  -7  12   32.10   13.30
   3  -7  12   18.30    8.20
  -3   7 -12   19.70    9.20
  -3   7 -12   28.50    9.30
   4  -7  12   18.00   14.40
  -4   7 -12   -2.60    9.40
   5  -7  12   19.60   25.50
  -5   7 -12    2.60   11.80
  -4  -8  12   38.70   13.00
   4   8 -12   39.20   14.20
  -3  -8  12    4.60    9.80
   3   8 -12   22.40   12.10
   3   8 -12   27.80   12.50
  -2  -8  12   34.50    9.80
   2   8 -12   32.30   11.70
   2   8 -12   34.40    9.70
   2   8 -12   39.90   11.20
  -1  -8  12   13.80    8.30
   1   8 -12   11.30    9.70
   1   8 -12   12.10    8.70
   0  -8  12  502.75   28.20
   0   8 -12  490.05   28.10
   0   8 -12  550.04   29.50
   1  -8  12  159.18   15.00
   1  -8  12  176.88   24.30
  -1   8 -12  172.18   15.10
   2  -8  12   57.19   15.10
   2  -8  12   30.70    8.80
  -2   8 -12   42.40   10.30
  -2   8 -12   23.30    8.80
   3  -8  12    3.20   16.50
  -3   8 -12  -17.10    9.80
   4  -8  12   20.90   17.20
  -4   8 -12   -9.20   12.20
   4   9 -12   20.80   21.20
  -3  -9  12   61.69   13.10
   3   9 -12   39.10   12.20
   3   9 -12   59.19   16.90
  -2  -9  12   12.40   10.10
   2   9 -12    1.30   10.20
   2   9 -12    8.30   11.40
  -1  -9  12  254.17   21.10
   1   9 -12  268.17   22.20
   1   9 -12  282.77   20.40
   0  -9  12   46.80    9.30
   0   9 -12   47.60   11.50
   1  -9  12   -9.80    7.70
   1  -9  12    8.30   18.00
  -1   9 -12   -0.70   10.30
  -1   9 -12  -10.50    8.60
   2  -9  12   39.00   17.60
  -2   9 -12   22.00   10.60
  -2   9 -12   15.60    9.60
   3  -9  12   42.50   18.10
  -2 -10  12   66.69   16.90
  -1 -10  12    3.20   13.60
   2 -10  12   37.00   21.10
   5   0 -13    1.60   15.20
  -5   0  13  -16.70   15.90
   4   0 -13   36.50   12.70
   4   0 -13   25.60   12.20
  -4   0  13   15.90   14.00
  -4   0  13   31.90   11.50
  -3   0  13  252.97   19.80
   3   0 -13  265.17   20.80
   3   0 -13  231.18   20.20
  -3   0  13  255.37   22.30
   2   0 -13  697.43   37.40
  -2   0  13  698.03   37.20
   2   0 -13  719.23   36.60
  -1   0  13  108.39   16.80
   1   0 -13  122.79   14.50
   1   0 -13  155.58   17.00
   0   0 -13   -4.60    8.40
   0   0  13   10.20    8.90
   0   0 -13   -5.20    9.30
  -1   0 -13  309.77   20.50
  -1   0 -13  332.47   21.70
   1   0  13  310.57   21.50
  -2   0 -13   -0.90    8.40
  -2   0 -13   -0.80   10.00
   2   0  13   10.50    8.40
   2   0  13   -4.10   10.10
  -3   0 -13  154.28   17.30
  -3   0 -13  185.68   16.60
   3   0  13  154.18   21.00
  -4   0 -13   14.70   11.50
  -4   0 -13    7.70   10.30
   4   0  13    4.80   12.70
   5   0  13    6.40   15.00
  -5  -1  13  -15.30   14.80
   4  -1 -13   50.79   17.20
  -4  -1  13   84.29   14.90
  -4  -1  13   65.19   13.00
   4   1 -13   82.79   13.40
  -4   1  13   24.30   18.80
  -4   1  13   56.09   16.10
   4   1 -13  103.89   17.70
  -3  -1  13  116.19   18.50
   3   1 -13   74.59   12.90
  -2  -1  13  124.69   16.40
  -2  -1  13  137.79   18.60
   2   1 -13  129.79   16.70
   2   1 -13  145.19   16.00
   0  -1 -13   56.39   10.70
   0  -1  13   77.49   13.50
   0   1 -13   57.29   10.50
   0   1 -13   63.69   14.50
   0   1  13   55.79   11.40
   2  -1  13  210.48   17.90
   2  -1  13  233.68   19.50
  -2   1 -13  223.58   18.00
  -2   1 -13  215.78   17.30
   3  -1  13   42.70   19.10
  -3   1 -13   42.50    8.70
  -3   1 -13   36.60    9.40
  -4  -1 -13   -3.20   10.40
   4  -1  13    8.40   12.80
  -4   1 -13   -3.10   10.40
   4   1  13   16.20   16.10
   5  -1  13   10.40   14.80
  -5   1 -13   -6.00   13.10
  -5  -2  13   36.80   13.70
  -4  -2  13    5.20   12.70
  -4  -2  13   24.90   11.30
   4   2 -13    9.40   12.30
   4   2 -13    8.50   11.20
  -3  -2  13  123.19   16.50
  -3  -2  13  126.09   19.00
   3   2 -13   98.49   17.90
   3   2 -13  104.49   16.70
  -2  -2  13  207.08   19.40
  -2  -2  13  171.28   17.20
   2   2 -13  175.28   18.80
   2   2 -13  199.98   17.40
   2  -2  13  165.88   16.80
   2  -2  13  170.48   15.40
  -2   2 -13  160.08   15.30
  -2   2 -13  161.98   15.50
   5  -2  13   76.79   15.30
  -5   2 -13   94.69   19.20
  -5  -3  13   75.19   15.50
   5   3 -13  128.69   22.70
  -4  -3  13  165.18   21.10
  -4  -3  13  130.89   20.10
   4   3 -13  185.98   19.20
   4   3 -13  178.58   19.80
  -3  -3  13  482.05   29.00
  -3  -3  13  494.65   31.00
   3   3 -13  529.85   29.50
   3   3 -13  508.65   30.70
   2  -3 -13   78.99   14.30
  -2  -3  13   49.90   12.00
  -2  -3  13   41.50    8.90
   2   3 -13   58.99   10.30
   2   3 -13   45.30   11.20
  -1  -3  13   23.20    7.80
   1   3 -13   21.30    9.90
   1   3 -13   39.10    9.20
   0  -3  13  120.39   13.20
   0  -3 -13   94.19   19.00
   0   3 -13  131.09   14.00
   0   3 -13  119.49   14.30
   2  -3  13   45.60    8.30
   2  -3  13   63.99   14.00
  -2   3 -13   55.29    8.40
  -2   3 -13   48.60    9.60
   3  -3  13    6.50    7.40
  -3  -3 -13   20.10   12.00
   3  -3  13    5.50   10.20
   3   3  13   18.30   19.20
   4  -3  13  121.79   15.40
   4  -3  13  102.29   19.50
  -4   3 -13  106.89   15.10
  -4   3 -13  101.59   15.90
   5  -3  13    2.00   13.20
  -5   3 -13   11.90   16.90
  -5  -4  13  122.79   22.00
   5   4 -13  130.49   23.80
  -4  -4  13  100.09   19.40
  -4  -4  13   98.99   17.80
   4   4 -13   85.69   13.00
   4   4 -13   70.49   14.10
  -3  -4  13    0.40   10.60
  -3  -4  13   -7.30    8.60
   3   4 -13    7.80    9.50
   3   4 -13    3.40   11.00
  -2  -4  13   13.90   11.30
  -2  -4  13    2.60    7.50
   2   4 -13   -5.20   10.10
   2   4 -13    4.60    9.10
  -1  -4  13  236.48   16.50
   1   4 -13  201.18   18.60
   1   4 -13  208.58   17.80
  -1   4  13  219.08   23.50
   0  -4  13  368.46   22.00
   0   4 -13  396.16   22.90
   0   4 -13  358.66   22.60
   1  -4  13  175.78   14.80
  -1   4 -13  166.28   15.00
  -1   4 -13  172.08   15.20
   2  -4  13   37.60   10.40
   2  -4  13   42.20    8.10
  -2   4 -13   34.40    9.30
   3  -4  13   33.70    8.60
   3  -4  13   39.70   11.60
  -3   4 -13   34.60    8.00
  -3   4 -13   26.80    9.60
   4  -4  13    7.00    8.70
   4  -4  13   33.50   12.50
  -4   4 -13   19.30    9.40
  -4   4 -13   17.10    9.20
   5  -4  13  154.38   23.60
  -5  -5  13   14.40   13.10
  -4  -5  13   41.30   11.40
  -4  -5  13   40.00   12.80
   4   5 -13   20.70   11.90
   4   5 -13   31.90   11.70
  -3  -5  13   17.80    9.20
  -3  -5  13    6.80   11.20
   3   5 -13    8.40   10.20
   3   5 -13  -14.70   11.00
  -2  -5  13  161.18   15.80
   2   5 -13  190.98   17.40
   2   5 -13  152.28   22.20
  -1  -5  13  144.89   14.30
   1   5 -13  113.09   17.00
   1   5 -13  131.29   15.50
   0  -5  13  294.67   19.00
   0   5 -13  294.17   19.70
   0   5 -13  284.07   20.40
   1  -5  13   92.39   12.30
  -1   5 -13   83.39   13.10
   2  -5  13    2.40    7.00
   2  -5  13    8.00   10.10
   3  -5  13  399.96   23.80
   3  -5  13  413.96   40.20
  -3   5 -13  388.46   24.60
  -3   5 -13  403.66   24.00
   4  -5  13   21.00    9.00
   4  -5  13   19.70   14.20
  -4   5 -13   34.90    9.10
  -4   5 -13   13.30    9.70
   5  -5  13  155.78   27.60
  -5   5 -13  150.08   23.80
  -5  -6  13    3.90   15.20
  -4  -6  13   -0.80   11.80
   4   6 -13  -20.90   12.40
  -3  -6  13    7.90   10.20
  -3  -6  13    2.10   12.30
   3   6 -13   13.70   10.00
   3   6 -13    8.20   11.80
  -2  -6  13  118.39   15.00
   2   6 -13   92.59   15.30
   2   6 -13   81.49   13.70
  -1  -6  13  196.58   16.70
   1   6 -13  210.38   17.20
   1   6 -13  196.48   19.50
   0  -6  13  191.08   15.70
   0   6 -13  198.78   16.90
   1  -6  13    5.40    7.00
  -1   6 -13   -3.90    7.70
   2  -6  13  151.98   20.40
   2  -6  13  157.58   14.80
  -2   6 -13  162.08   14.60
  -2   6 -13  114.99   15.20
   3  -6  13    5.10    8.20
   3  -6  13   22.10   12.90
  -3   6 -13   13.70    8.60
  -3   6 -13  -13.30    8.50
   4  -6  13  346.67   30.20
  -4   6 -13  354.26   23.70
   5  -6  13   12.50   17.20
  -5   6 -13   17.20   12.30
   4   7 -13   15.60   14.30
  -3  -7  13  106.29   21.60
  -3  -7  13   82.89   12.30
   3   7 -13  103.69   18.00
   3   7 -13   88.19   14.70
  -2  -7  13  107.19   16.00
   2   7 -13  104.69   19.20
   2   7 -13  140.59   16.80
  -1  -7  13  144.99   14.70
   1   7 -13  140.59   15.70
   0  -7  13    8.10    7.20
   0   7 -13    4.80    9.30
   1  -7  13   97.09   13.00
  -1   7 -13   87.59   14.70
  -1   7 -13  107.19   13.00
   2  -7  13   64.89   10.10
  -2   7 -13   83.29   13.10
  -2   7 -13   78.39   14.40
   3  -7  13  243.48   19.00
   3  -7  13  264.77   27.80
  -3   7 -13  233.38   19.70
  -3   7 -13  255.17   19.50
   4  -7  13   22.70   16.20
  -4   7 -13   10.30   11.00
  -4  -8  13    6.70   13.70
   4   8 -13    9.30   15.30
  -3  -8  13   63.89   13.00
   3   8 -13   89.19   15.60
  -2  -8  13   14.90    9.80
   2   8 -13   33.80   11.70
  -1  -8  13   35.70    9.80
   1   8 -13   44.90    9.40
   1   8 -13   30.70   10.80
   0  -8  13  110.39   14.50
   0   8 -13  140.49   17.40
   0   8 -13   96.89   14.40
   1  -8  13   63.39   10.10
  -1   8 -13   91.49   13.20
  -1   8 -13   56.19   11.40
   2  -8  13  364.06   22.50
  -2   8 -13  340.07   23.00
  -2   8 -13  366.26   23.50
   3  -8  13   74.49   19.10
  -3   8 -13   57.59   11.10
   4  -8  13    7.50   19.00
  -3  -9  13   33.80   15.80
  -2  -9  13   63.79   12.50
   2   9 -13   44.40   11.80
  -1  -9  13   -2.90   10.00
   1   9 -13    0.40    9.60
   0  -9  13   11.30    9.30
   0   9 -13    9.80    9.10
   0   9 -13    8.30   13.20
   1  -9  13  301.77   21.30
  -1   9 -13  273.27   23.10
   3  -9  13   33.50   20.30
  -4   0  14   75.69   18.10
   4   0 -14   62.89   15.40
  -3   0  14   -1.70   13.80
   3   0 -14   -9.60   10.90
   3   0 -14   -0.60   11.30
   2   0 -14   13.00   10.50
   2   0 -14   11.60   10.30
  -2   0  14    8.00   10.60
   1   0 -14  271.47   21.80
  -1   0  14  243.38   21.50
   1   0 -14  249.38   19.70
   0   0 -14   42.30   11.00
   0   0  14   36.20   10.80
   0   0 -14   36.40   10.70
  -1   0 -14    4.90    9.90
  -1   0 -14   13.40   10.00
   1   0  14   15.20    9.60
   2   0  14   21.40    9.70
  -2   0 -14    1.60    9.70
  -2   0 -14  -10.80   11.70
  -3   0 -14   81.29   17.10
   4   0  14  272.17   26.80
  -4  -1  14   45.70   15.50
  -4  -1  14   23.80   15.10
   4   1 -14   28.00   13.80
   4   1 -14   36.90   14.70
  -3  -1  14   49.10   14.20
  -3  -1  14   41.10   11.80
   3   1 -14   41.70   11.70
   3   1 -14   47.00   12.60
  -1  -1  14   42.90   10.70
   1  -1 -14   31.30   12.20
  -1   1  14   15.80   11.60
   1   1 -14   72.29   14.00
   0  -1  14  190.68   18.60
   0  -1 -14  263.57   20.70
   0   1 -14  182.28   18.40
   0   1 -14  211.18   20.30
   0   1  14  231.18   21.60
   1  -1  14  106.59   16.00
  -1   1 -14  139.09   15.60
  -1   1 -14  134.69   16.50
   2  -1  14   26.70    9.50
  -2  -1 -14   29.40   10.90
   2   1  14   52.49   12.50
  -2   1 -14   18.10    9.70
  -2   1 -14   27.00    9.90
   3  -1  14  155.48   18.00
  -3   1 -14  165.38   18.40
  -3   1 -14  163.28   21.90
   4  -1  14   16.70   15.00
  -4   1 -14   39.30   12.40
   5  -1  14   -0.90   15.80
  -4  -2  14   40.40   12.80
  -4  -2  14   52.79   14.80
   4   2 -14   33.80   13.60
   4   2 -14   26.30   13.50
  -3  -2  14  120.19   18.00
  -3  -2  14   99.99   15.20
   3   2 -14   85.19   14.90
   3   2 -14  110.69   18.30
  -2  -2  14  230.48   19.90
   2   2 -14  243.98   21.60
   2   2 -14  244.88   20.20
  -1  -2  14  166.88   17.50
   1   2 -14  204.28   18.00
   1   2 -14  206.58   18.60
   0  -2  14  646.84   34.20
   0   2 -14  625.54   38.10
   0   2 -14  657.03   34.50
   2  -2  14  113.19   16.00
  -2   2 -14  120.99   16.10
  -2   2 -14  110.69   15.70
   3  -2  14   90.09   15.20
   3  -2  14  126.09   27.80
  -3   2 -14   78.39   12.40
   4  -2  14   -3.20   13.00
  -4   2 -14   -3.80   11.20
   5  -2  14   19.30   16.10
  -4  -3  14   33.90   13.00
  -4  -3  14   56.69   14.60
   4   3 -14   31.70   14.20
   4   3 -14   29.10   12.80
  -3  -3  14  154.88   19.00
  -3  -3  14  188.78   21.90
   3   3 -14  180.68   21.40
   3   3 -14  186.18   19.50
  -2  -3  14  170.98   17.00
   2   3 -14  183.48   18.40
   2   3 -14  160.88   20.10
  -1  -3  14  153.18   15.80
   1   3 -14  109.89   16.60
   1   3 -14  159.38   17.80
   0  -3  14    4.50    7.90
   0   3 -14   21.30    9.30
   0   3  14   40.90   14.90
   0   3 -14    6.00    9.40
   1  -3  14  207.08   17.10
  -1   3 -14  210.38   17.80
  -1   3 -14  212.18   17.90
   2  -3  14  157.18   15.90
  -2   3 -14  146.19   16.40
   3  -3  14  145.69   16.00
  -3   3 -14  118.49   17.10
   4  -3  14   43.10   13.80
   4  -3  14   45.30   10.70
  -4   3 -14   44.10   11.20
  -4   3 -14   30.50   11.10
   5  -3  14    7.70   16.10
  -4  -4  14  137.29   20.40
   4   4 -14  145.39   22.00
  -3  -4  14  113.89   21.10
  -3  -4  14  158.28   18.30
   3   4 -14  171.48   21.70
   3   4 -14  186.38   18.80
  -2  -4  14    2.50    8.70
   2   4 -14   20.80   10.30
   2   4 -14    4.20   11.80
  -1  -4  14   66.99   13.20
   1   4 -14   71.99   17.40
   1   4 -14   55.49   11.20
   0  -4  14   39.70    9.10
   0   4 -14   54.59   10.80
   0   4 -14   71.19   14.90
   1  -4  14  186.48   16.30
  -1   4 -14  193.08   17.10
  -1   4 -14  157.28   21.90
   2  -4  14  260.47   19.00
  -2   4 -14  272.17   20.40
   3  -4  14  128.09   26.90
   3  -4  14   77.59   14.80
  -3   4 -14   74.69   12.00
   4  -4  14   31.00   14.80
   4  -4  14   -4.70    9.90
  -4   4 -14    9.90   10.80
  -4   4 -14   -0.70    9.90
   5  -4  14   42.50   17.30
  -4  -5  14  102.29   20.00
   4   5 -14   60.09   15.80
  -3  -5  14    7.30   13.00
  -3  -5  14   33.50   10.70
   3   5 -14   33.90   13.10
   3   5 -14   34.70   11.90
  -2  -5  14   90.69   15.40
   2   5 -14   77.89   14.10
   2   5 -14   89.39   16.60
  -1  -5  14   32.50    8.80
   1   5 -14   22.00   11.70
   1   5 -14   15.00    9.60
   0  -5  14  110.99   14.10
   0   5 -14  115.19   15.60
   0   5 -14  106.79   16.30
   1  -5  14  158.38   15.30
  -1   5 -14  159.58   16.30
   2  -5  14   87.99   14.40
  -2   5 -14   76.39   11.70
   3  -5  14   28.90   20.30
   3  -5  14   30.10    9.40
  -3   5 -14   28.90    9.70
  -3   5 -14    7.60   10.20
   4  -5  14  -12.00   15.30
   4  -5  14    5.20    9.60
  -4   5 -14   -8.20   10.20
   5  -5  14   21.60   18.30
   4   6 -14   82.99   16.40
  -3  -6  14   42.00   11.40
  -3  -6  14   27.30   15.60
   3   6 -14   34.40   14.20
   3   6 -14   27.50   14.20
  -2  -6  14   49.80   10.70
   2   6 -14   33.80   13.40
   2   6 -14   45.90   10.80
  -1  -6  14   29.80    9.10
   1   6 -14   19.70   12.40
   1   6 -14   29.90    9.30
   0  -6  14  119.89   14.40
   0   6 -14  117.49   16.30
   1  -6  14  107.29   17.70
  -1   6 -14  100.99   15.10
   2  -6  14   57.89    9.70
  -2   6 -14   79.19   13.80
   3  -6  14    3.80    9.30
  -3   6 -14  -14.80   11.50
  -3   6 -14   11.80    9.10
   4  -6  14   -2.40   16.40
   4  -6  14   -1.60   10.30
  -4   6 -14   -4.30   10.70
  -4  -7  14   16.20   20.10
   4   7 -14   30.20   17.80
  -3  -7  14   23.60   12.00
   3   7 -14   19.80   14.40
  -2  -7  14    5.70    9.40
   2   7 -14   10.40   11.40
   2   7 -14  -21.00   14.00
  -1  -7  14   77.69   14.30
   1   7 -14   84.59   16.40
   0  -7  14  205.58   17.40
   0   7 -14  202.38   18.90
   1  -7  14   18.40    8.00
  -1   7 -14   -7.10    9.60
  -1   7 -14    9.30    8.10
   2  -7  14   72.19   14.30
  -2   7 -14   65.29   11.50
  -2   7 -14   61.29   10.10
   3  -7  14   33.70    9.70
  -3   7 -14   18.90   10.50
   4  -7  14   82.79   21.90
  -3  -8  14  -17.70   21.10
  -2  -8  14  -11.80   10.70
  -1  -8  14   83.89   16.20
   1   8 -14  133.49   15.80
   0  -8  14    7.80    8.60
   0   8 -14   14.40    9.00
   0   8 -14    3.30   13.30
   1  -8  14   89.49   14.50
  -1   8 -14   75.59   14.00
   2  -8  14   61.09   14.10
   2   0 -15   98.69   19.10
  -2   0  15   61.59   13.20
   1   0 -15   42.10   13.10
  -1   0  15    6.70   11.70
   0   0  15  128.09   20.30
   0   0 -15  156.98   19.50
   1   0  15   57.29   12.40
  -1   0 -15   96.69   19.20
  -2   0 -15   39.70   12.20
   2   0  15   61.19   12.70
  -3  -1  15   92.39   17.40
   3   1 -15   90.79   15.20
   3   1 -15  130.79   20.60
  -2  -1  15   47.20   12.00
   2   1 -15   50.59   11.90
   2   1 -15   50.59   12.40
  -1  -1  15  148.49   19.60
   1   1 -15  184.48   19.50
   1   1 -15  187.88   20.80
   0  -1 -15   15.60   12.70
   0  -1  15   40.70   11.00
   0   1  15   24.80   12.80
   0   1 -15   39.10   11.70
   0   1 -15   61.29   13.10
   1  -1  15   14.00   10.30
  -1  -1 -15   24.00   13.00
  -1   1 -15   22.90   11.10
   1   1  15   16.70   13.30
  -1   1 -15   14.30   11.00
   2  -1  15  161.38   18.90
  -2   1 -15  155.38   19.40
  -2   1 -15  135.19   19.80
   3  -1  15  138.19   23.30
  -3   1 -15  147.99   20.90
  -3  -2  15    7.50   15.20
  -3  -2  15    9.70   11.90
   3   2 -15   20.40   13.30
   3   2 -15   15.70   12.30
  -2  -2  15   12.70   10.50
   2   2 -15   12.00   11.50
   2   2 -15   12.30   11.90
   1   2 -15  116.29   17.70
   1   2 -15  101.79   17.10
   0  -2  15    0.20    9.30
   0   2 -15   -0.30   11.10
   0   2 -15   10.30   11.90
   0   2  15    5.60   15.00
   1  -2  15  203.68   18.80
  -1   2 -15  185.58   18.90
  -1   2 -15  160.08   18.60
   2  -2  15   91.89   12.70
  -2   2 -15   86.69   17.00
   3  -2  15   20.50   10.70
  -3   2 -15   13.00   11.70
  -4   2 -15  296.87   28.00
  -3  -3  15    5.10   15.00
  -3  -3  15    0.10   11.20
   3   3 -15   12.00   12.20
   3   3 -15    0.10   13.20
  -2  -3  15   97.29   17.20
   2   3 -15  112.89   20.10
   2   3 -15  140.29   18.80
  -1  -3  15   45.80   10.10
   1   3 -15   38.40   10.90
   1   3 -15   34.20   11.90
   0  -3  15  256.67   19.80
   0   3 -15  254.37   22.30
   0   3 -15  251.57   21.40
   1  -3  15  207.58   18.10
  -1   3 -15  137.69   18.30
  -1   3 -15  187.88   17.90
   2  -3  15    0.00    9.10
  -2   3 -15    0.70   10.00
   3  -3  15   85.59   16.90
  -3   3 -15   56.09   12.70
  -3  -4  15   23.60   15.40
  -3  -4  15    1.10   11.20
   3   4 -15  -20.20   14.00
   3   4 -15    6.40   13.30
  -2  -4  15  109.89   16.50
   2   4 -15  106.39   20.90
   2   4 -15   96.19   17.60
  -1  -4  15  379.56   25.40
   1   4 -15  427.66   28.00
   1   4 -15  426.96   26.10
   0  -4  15  187.48   17.90
   0   4 -15  201.78   20.40
   0   4 -15  203.48   19.80
   1  -4  15   -7.20    8.50
   2  -4  15   39.20    9.70
  -2   4 -15   48.70   11.00
   3  -4  15   60.19   11.00
  -3   4 -15   50.69   12.70
   4  -4  15    0.00   11.30
  -4   4 -15   -0.50   12.10
  -3  -5  15   11.80   11.70
   3   5 -15   22.90   15.10
  -2  -5  15  278.27   21.30
   2   5 -15  221.78   25.80
   2   5 -15  259.37   22.50
  -1  -5  15   45.90   10.60
   1   5 -15   68.99   14.60
   1   5 -15   55.09   11.20
   0  -5  15   38.30    9.60
   0   5 -15   30.90   11.40
   1  -5  15    6.20    8.70
  -1   5 -15    2.30   10.20
   2  -5  15   53.89   10.30
  -2   5 -15   46.30   11.40
   3  -5  15   99.99   17.60
  -3   5 -15  120.49   17.10
   4  -5  15   43.70   12.40
  -4   5 -15   40.40   13.00
  -3  -6  15   59.19   21.70
   3   6 -15   30.10   16.40
  -2  -6  15  188.08   19.60
   2   6 -15  171.38   25.60
   1   6 -15   59.69   12.20
   0  -6  15    0.80    8.50
   0   6 -15   13.00   11.00
   1  -6  15   20.10    8.90
  -1   6 -15   -5.90   10.80
   2  -6  15   57.79   10.90
  -2   6 -15   87.29   14.80
   3  -6  15   33.20   11.10
  -3   6 -15   45.50   11.50
   3   7 -15  330.27   32.10
  -2  -7  15   46.70   13.30
  -1  -7  15    5.20    9.40
   0  -7  15    8.90    9.10
   1  -7  15    8.30    9.30
  -1   7 -15    4.70    8.90
   2  -7  15  160.58   19.80
   1   0 -16  123.09   18.90
   0   0  16    4.00   13.50
   0   0 -16    8.90   13.00
  -1   0 -16    5.40   13.60
   1   0  16    2.10   13.90
   2   0  16    0.50   14.90
  -2   0 -16   -6.10   13.70
   2   1 -16  189.88   27.40
   2   1 -16  196.28   24.60
  -1  -1  16   44.10   12.60
   1   1 -16   59.29   14.20
   1   1 -16   43.90   15.00
   0  -1  16   26.30   12.40
   0   1 -16   36.70   13.40
   0   1 -16   41.10   18.00
   1  -1  16   30.60   12.50
  -1   1 -16   19.40   13.40
   1   1  16   26.80   16.60
   2  -1  16  184.68   23.10
   2   2 -16  124.89   22.30
   2   2 -16  122.29   21.20
   1   2 -16   71.39   14.60
   1   2 -16   70.59   13.90
   0  -2  16   48.00   11.80
   0   2 -16   45.90   13.00
   0   2 -16   42.30   14.20
   1  -2  16   48.40   12.50
  -1   2 -16   37.20   12.90
  -1   2 -16   51.49   13.20
   2  -2  16   35.40   12.50
  -2   2 -16    6.10   12.40
   3  -2  16   60.79   13.50
  -3   2 -16   49.10   13.60
   3   3 -16   69.99   22.40
   2   3 -16   57.19   14.30
   2   3 -16   63.29   15.10
  -1  -3  16   26.20   10.60
   1   3 -16    4.60   12.10
   1   3 -16   26.80   12.30
   0  -3  16   21.70   10.50
   0   3 -16   -1.90   12.50
   0   3 -16   36.80   13.80
   1  -3  16  166.18   19.20
  -1   3 -16  113.99   19.60
   2  -3  16   -2.90   11.10
  -2   3 -16   12.50   12.20
   3  -3  16  130.99   21.00
   3   4 -16   65.99   17.60
   2   4 -16  255.57   26.20
   1   4 -16   45.00   13.30
   1   4 -16   61.49   14.10
   0  -4  16    1.90    9.80
   0   4 -16   13.90   13.10
   1  -4  16   38.30   10.80
  -1   4 -16   35.30   12.30
   2  -4  16   30.80   11.20
  -2   4 -16   29.30   13.10
   3  -4  16   -4.80   11.00
   3   5 -16   30.70   18.20
   2   5 -16   28.70   16.30
  -1  -5  16   -4.30   10.60
   0  -5  16  128.29   18.00
   0   5 -16  137.69   21.60
   1  -5  16  114.69   17.10
  -1   5 -16  127.49   24.50
   2  -5  16   28.80   10.90
   3  -5  16    8.90   13.10
  -3   5 -16    0.20   13.40
   3   6 -16   -7.60   19.40
   0  -6  16  461.35   30.70
   1  -6  16   56.59   12.40
   0   1 -17   97.19   17.00
  -1   1 -17   42.30   22.00
   1   2 -17   69.29   15.50
   0   2 -17   51.19   15.60
   0   2 -17   22.40   13.90
  -1   2 -17   17.20   14.80
   2   3 -17   63.99   20.60
   1   3 -17  160.28   25.20
   0   3 -17   50.39   17.90
   2   4 -17  109.89   19.70

_computing_structure_solution     'SHELXT 2014/4 (Sheldrick, 2014)'
_computing_structure_solution     'SHELXT 2014/4 (Sheldrick, 2014)'
;
_shelx_hkl_checksum              99458
loop_
_space_group_symop_operation_xyz
'x, y, z'
'-x, -y, -z'
loop_
_atom_site_label
_atom_site_type_symbol
_atom_site_fract_x
_atom_site_fract_y
_atom_site_fract_z
_atom_site_U_iso_or_equiv
_atom_site_adp_type
_atom_site_occupancy
_atom_site_site_symmetry_order
_atom_site_calc_flag
_atom_site_refinement_flags_posn
_atom_site_refinement_flags_adp
Br1 Br 0.89848(6) 0.06085(5) 0.21062(3) 0.03076(12) Uani 1 1 d . .
F3 F 0.4706(3) 0.2786(3) 0.53609(15) 0.0264(4) Uani 1 1 d . .
F6 F 1.0206(3) 0.2235(3) 0.45854(16) 0.0303(5) Uani 1 1 d . .
F5 F 0.7713(3) 0.0293(2) 0.43890(16) 0.0285(4) Uani 1 1 d . .
F2 F 0.9654(3) 0.3090(3) 0.68117(16) 0.0314(5) Uani 1 1 d . .
F4 F 0.7279(3) 0.4683(2) 0.55936(16) 0.0286(4) Uani 1 1 d . .
F1 F 0.7009(3) 0.1254(2) 0.66020(16) 0.0292(5) Uani 1 1 d . .
F8 F 0.7684(4) 0.3702(2) 0.33599(17) 0.0364(5) Uani 1 1 d . .
F7 F 0.5231(3) 0.1771(3) 0.31548(17) 0.0364(5) Uani 1 1 d . .
O2 O 0.3588(5) 0.8996(3) 1.0676(2) 0.0398(6) Uani 1 1 d . .
O1 O 0.0803(4) 0.7306(4) 1.0299(2) 0.0402(7) Uani 1 1 d . .
N1 N 0.2702(4) 0.7659(3) 1.0150(2) 0.0238(6) Uani 1 1 d . .
C1 C 0.6254(5) 0.4096(4) 0.7623(2) 0.0183(6) Uani 1 1 d . .
C4 C 0.3965(5) 0.6401(4) 0.9279(2) 0.0200(6) Uani 1 1 d . .
C9 C 0.8061(5) 0.1901(4) 0.4459(3) 0.0199(6) Uani 1 1 d . .
C5 C 0.5984(5) 0.6875(4) 0.8991(3) 0.0240(6) Uani 1 1 d . .
H5A H 0.6559 0.7973 0.9358 0.029 Uiso 1 1 calc R U
C8 C 0.6864(5) 0.3067(4) 0.5512(3) 0.0185(6) Uani 1 1 d . .
C3 C 0.3063(5) 0.4823(4) 0.8783(2) 0.0212(6) Uani 1 1 d . .
H3A H 0.1674 0.4544 0.9009 0.025 Uiso 1 1 calc R U
C7 C 0.7470(5) 0.2855(4) 0.6664(3) 0.0209(6) Uani 1 1 d . .
C6 C 0.7147(5) 0.5697(4) 0.8147(3) 0.0222(6) Uani 1 1 d . .
H6A H 0.8542 0.5980 0.7929 0.027 Uiso 1 1 calc R U
C2 C 0.4232(5) 0.3652(4) 0.7944(3) 0.0217(6) Uani 1 1 d . .
H2A H 0.3655 0.2551 0.7590 0.026 Uiso 1 1 calc R U
C10 C 0.7341(5) 0.2111(4) 0.3328(3) 0.0234(7) Uani 1 1 d . .
loop_
_atom_site_aniso_label
_atom_site_aniso_U_11
_atom_site_aniso_U_22
_atom_site_aniso_U_33
_atom_site_aniso_U_23
_atom_site_aniso_U_13
_atom_site_aniso_U_12
Br1 0.0401(2) 0.02793(18) 0.02340(17) 0.00696(14) 0.00641(13) 0.00875(14)
F3 0.0151(8) 0.0372(12) 0.0252(10) 0.0079(10) -0.0028(7) 0.0032(8)
F6 0.0160(9) 0.0416(13) 0.0300(10) 0.0074(10) -0.0018(7) 0.0009(8)
F5 0.0449(12) 0.0148(9) 0.0262(10) 0.0073(9) 0.0020(8) 0.0040(8)
F2 0.0177(9) 0.0428(13) 0.0287(10) 0.0047(10) -0.0065(7) 0.0076(9)
F4 0.0426(12) 0.0148(9) 0.0292(10) 0.0082(9) 0.0029(8) 0.0019(8)
F1 0.0451(12) 0.0170(10) 0.0264(10) 0.0081(9) 0.0011(8) 0.0061(9)
F8 0.0638(15) 0.0181(10) 0.0294(10) 0.0107(10) 0.0039(10) 0.0068(10)
F7 0.0231(10) 0.0577(16) 0.0273(10) 0.0124(11) -0.0052(8) 0.0035(10)
O2 0.0469(16) 0.0273(14) 0.0370(14) -0.0008(13) 0.0106(12) -0.0005(13)
O1 0.0301(14) 0.0429(17) 0.0389(15) 0.0012(15) 0.0114(11) 0.0042(12)
N1 0.0289(15) 0.0223(14) 0.0188(12) 0.0046(12) 0.0008(10) 0.0031(12)
C1 0.0199(14) 0.0171(14) 0.0190(14) 0.0073(13) -0.0029(10) 0.0017(11)
C4 0.0217(14) 0.0212(15) 0.0169(13) 0.0059(13) -0.0020(10) 0.0020(12)
C9 0.0167(14) 0.0173(15) 0.0271(15) 0.0092(14) -0.0010(11) 0.0022(11)
C5 0.0262(16) 0.0198(15) 0.0245(15) 0.0053(14) -0.0036(12) -0.0027(12)
C8 0.0186(14) 0.0137(14) 0.0228(14) 0.0055(13) -0.0034(10) 0.0010(11)
C3 0.0172(14) 0.0245(16) 0.0230(14) 0.0093(14) -0.0037(11) -0.0032(11)
C7 0.0191(14) 0.0201(16) 0.0243(15) 0.0084(14) -0.0051(11) 0.0009(12)
C6 0.0185(15) 0.0218(16) 0.0257(15) 0.0068(14) -0.0028(11) -0.0042(12)
C2 0.0237(14) 0.0200(15) 0.0214(14) 0.0068(13) -0.0044(11) -0.0012(12)
C10 0.0259(16) 0.0197(16) 0.0259(16) 0.0091(14) -0.0002(12) 0.0017(12)
loop_
_atom_type_symbol
_atom_type_description
_atom_type_scat_dispersion_real
_atom_type_scat_dispersion_imag
_atom_type_scat_source
C C 0.0033 0.0016 'International Tables Vol C Tables 4.2.6.8 and 6.1.1.4'
H H 0.0000 0.0000 'International Tables Vol C Tables 4.2.6.8 and 6.1.1.4'
N N 0.0061 0.0033 'International Tables Vol C Tables 4.2.6.8 and 6.1.1.4'
O O 0.0106 0.0060 'International Tables Vol C Tables 4.2.6.8 and 6.1.1.4'
F F 0.0171 0.0103 'International Tables Vol C Tables 4.2.6.8 and 6.1.1.4'
Br Br -0.2901 2.4595 'International Tables Vol C Tables 4.2.6.8 and 6.1.1.4'
loop_
_geom_angle_atom_site_label_1
_geom_angle_atom_site_label_2
_geom_angle_atom_site_label_3
_geom_angle
O2 N1 O1 123.8(3)
O2 N1 C4 118.4(3)
O1 N1 C4 117.7(3)
C2 C1 C6 121.0(3)
C2 C1 C7 119.7(3)
C6 C1 C7 119.3(3)
C3 C4 C5 123.5(3)
C3 C4 N1 118.4(3)
C5 C4 N1 118.2(3)
F5 C9 F6 109.1(2)
F5 C9 C10 107.9(3)
F6 C9 C10 107.7(2)
F5 C9 C8 108.8(2)
F6 C9 C8 108.5(3)
C10 C9 C8 114.7(2)
C4 C5 C6 118.0(3)
C4 C5 H5A 121.0
C6 C5 H5A 121.0
F3 C8 F4 108.5(2)
F3 C8 C9 108.4(3)
F4 C8 C9 108.3(2)
F3 C8 C7 107.2(2)
F4 C8 C7 107.5(3)
C9 C8 C7 116.6(2)
C4 C3 C2 118.3(3)
C4 C3 H3A 120.8
C2 C3 H3A 120.8
F1 C7 F2 108.0(2)
F1 C7 C1 111.0(2)
F2 C7 C1 110.5(3)
F1 C7 C8 108.0(3)
F2 C7 C8 107.8(2)
C1 C7 C8 111.4(2)
C5 C6 C1 119.6(3)
C5 C6 H6A 120.2
C1 C6 H6A 120.2
C3 C2 C1 119.7(3)
C3 C2 H2A 120.2
C1 C2 H2A 120.2
F7 C10 F8 108.2(2)
F7 C10 C9 110.2(2)
F8 C10 C9 109.8(3)
F7 C10 Br1 109.5(2)
F8 C10 Br1 109.2(2)
C9 C10 Br1 109.95(19)
loop_
_geom_bond_atom_site_label_1
_geom_bond_atom_site_label_2
_geom_bond_distance
Br1 C10 1.927(3)
F3 C8 1.344(4)
F6 C9 1.341(4)
F5 C9 1.337(3)
F2 C7 1.355(3)
F4 C8 1.347(3)
F1 C7 1.346(3)
F8 C10 1.336(3)
F7 C10 1.325(4)
O2 N1 1.224(4)
O1 N1 1.229(4)
N1 C4 1.471(4)
C1 C2 1.390(4)
C1 C6 1.396(4)
C1 C7 1.511(4)
C4 C3 1.377(5)
C4 C5 1.382(4)
C9 C10 1.550(4)
C9 C8 1.552(4)
C5 C6 1.390(4)
C5 H5A 0.9500
C8 C7 1.559(4)
C3 C2 1.386(4)
C3 H3A 0.9500
C6 H6A 0.9500
C2 H2A 0.9500
