#------------------------------------------------------------------------------
#$Date: 2016-03-13 15:36:43 +0200 (Sun, 13 Mar 2016) $
#$Revision: 178185 $
#$URL: svn://www.crystallography.net/cod/cif/1/54/28/1542838.cif $
#------------------------------------------------------------------------------
#
# This file is available in the Crystallography Open Database (COD),
# http://www.crystallography.net/
#
# All data on this site have been placed in the public domain by the
# contributors.
#
data_1542838
loop_
_publ_author_name
'Krishna, Gamidi Rama'
'Devarapalli, Ramesh'
'Prusty, Rajesh'
'Liu, Tiandong'
'Fraser, Cassandra L.'
'Ramamurty, Upadrasta'
'Reddy, Chilla Malla'
_publ_section_title
;
 Structure--mechanical property correlations in mechanochromic luminescent
 crystals of boron difluoride dibenzoylmethane derivatives
;
_journal_coeditor_code           ED5006SUP1
_journal_issue                   6
_journal_name_full               IUCrJ
_journal_page_first              611
_journal_page_last               619
_journal_paper_doi               10.1107/S2052252515015134
_journal_volume                  2
_journal_year                    2015
_chemical_formula_moiety         'C16 H13 B F2 O3'
_chemical_formula_sum            'C16 H13 B F2 O3'
_chemical_formula_weight         302.07
_chemical_name_systematic
;
 ? 
;
_space_group_crystal_system      triclinic
_space_group_IT_number           2
_space_group_name_Hall           '-P 1'
_space_group_name_H-M_alt        'P -1'
_symmetry_space_group_name_Hall  '-P 1'
_symmetry_space_group_name_H-M   'P -1'
_atom_sites_solution_hydrogens   geom
_atom_sites_solution_primary     iterative
_atom_sites_solution_secondary   difmap
_cell_angle_alpha                75.514(7)
_cell_angle_beta                 80.766(7)
_cell_angle_gamma                69.797(8)
_cell_formula_units_Z            2
_cell_length_a                   8.0234(7)
_cell_length_b                   9.0901(8)
_cell_length_c                   10.7916(8)
_cell_measurement_reflns_used    1505
_cell_measurement_temperature    100
_cell_measurement_theta_max      26.6150
_cell_measurement_theta_min      2.7060
_cell_volume                     712.78(11)
_computing_cell_refinement
;
CrysAlisPro, Agilent Technologies,
Version 1.171.37.31 (release 14-01-2014 CrysAlis171 .NET)
(compiled Jan 14 2014,18:38:05)
;
_computing_data_collection
;
CrysAlisPro, Agilent Technologies,
Version 1.171.37.31 (release 14-01-2014 CrysAlis171 .NET)
(compiled Jan 14 2014,18:38:05)
;
_computing_data_reduction
;
CrysAlisPro, Agilent Technologies,
Version 1.171.37.31 (release 14-01-2014 CrysAlis171 .NET)
(compiled Jan 14 2014,18:38:05)
;
_computing_molecular_graphics    'Olex2 (Dolomanov et al., 2009)'
_computing_publication_material  'Olex2 (Dolomanov et al., 2009)'
_computing_structure_refinement  'ShelXL (Sheldrick, 2008)'
_computing_structure_solution    'olex2.solve (Bourhis et al., 2015)'
_diffrn_ambient_temperature      100
_diffrn_detector                 'CCD plate'
_diffrn_detector_area_resol_mean 7.9580
_diffrn_detector_type            Eos
_diffrn_measured_fraction_theta_full 0.983
_diffrn_measured_fraction_theta_max 0.861
_diffrn_measurement_details
;
  1 omega   33.00   99.00   1.0000    6.4900
omega____ theta____ kappa____ phi______ frames
    -       27.5074   57.0000    0.0000 66

  2 omega   39.00  121.00   1.0000    6.4900
omega____ theta____ kappa____ phi______ frames
    -       27.5074  178.0000   30.0000 82

  3 omega  -11.00  104.00   1.0000    6.4900
omega____ theta____ kappa____ phi______ frames
    -       27.5074   77.0000 -150.0000 115

  4 omega  -11.00  104.00   1.0000    6.4900
omega____ theta____ kappa____ phi______ frames
    -       27.5074   57.0000  120.0000 115
;
_diffrn_measurement_device       'four-circle diffractometer'
_diffrn_measurement_device_type  'SuperNova, Dual, Cu at zero, Eos'
_diffrn_measurement_method       '\w scans'
_diffrn_orient_matrix_UB_11      -0.0384755000
_diffrn_orient_matrix_UB_12      0.0375679000
_diffrn_orient_matrix_UB_13      -0.0593310000
_diffrn_orient_matrix_UB_21      0.0419577000
_diffrn_orient_matrix_UB_22      -0.0720217000
_diffrn_orient_matrix_UB_23      -0.0226497000
_diffrn_orient_matrix_UB_31      -0.0754455000
_diffrn_orient_matrix_UB_32      -0.0251865000
_diffrn_orient_matrix_UB_33      0.0246176000
_diffrn_radiation_monochromator  mirror
_diffrn_radiation_probe          x-ray
_diffrn_radiation_type           MoK\a
_diffrn_radiation_wavelength     0.71073
_diffrn_reflns_av_R_equivalents  0.0210
_diffrn_reflns_av_unetI/netI     0.0442
_diffrn_reflns_limit_h_max       10
_diffrn_reflns_limit_h_min       -10
_diffrn_reflns_limit_k_max       11
_diffrn_reflns_limit_k_min       -9
_diffrn_reflns_limit_l_max       12
_diffrn_reflns_limit_l_min       -14
_diffrn_reflns_number            4141
_diffrn_reflns_theta_full        25.00
_diffrn_reflns_theta_max         28.12
_diffrn_reflns_theta_min         1.96
_diffrn_source                   'SuperNova (Mo) X-ray Source'
_exptl_absorpt_coefficient_mu    0.112
_exptl_absorpt_correction_T_max  1.00000
_exptl_absorpt_correction_T_min  0.86571
_exptl_absorpt_correction_type   multi-scan
_exptl_absorpt_process_details
;
CrysAlisPro, Agilent Technologies,
Version 1.171.37.31 (release 14-01-2014 CrysAlis171 .NET)
(compiled Jan 14 2014,18:38:05)
Empirical absorption correction using spherical harmonics,
 implemented in SCALE3 ABSPACK scaling algorithm.
;
_exptl_crystal_colour            yellow
_exptl_crystal_colour_primary    yellow
_exptl_crystal_density_diffrn    1.407
_exptl_crystal_density_method    'not measured'
_exptl_crystal_description       needle
_exptl_crystal_F_000             312
_exptl_crystal_size_max          0.5
_exptl_crystal_size_mid          0.35
_exptl_crystal_size_min          0.1
_refine_diff_density_max         0.144
_refine_diff_density_min         -0.178
_refine_diff_density_rms         0.032
_refine_ls_extinction_method     none
_refine_ls_goodness_of_fit_ref   1.040
_refine_ls_hydrogen_treatment    constr
_refine_ls_matrix_type           full
_refine_ls_number_parameters     200
_refine_ls_number_reflns         2991
_refine_ls_number_restraints     0
_refine_ls_restrained_S_all      1.040
_refine_ls_R_factor_all          0.0779
_refine_ls_R_factor_gt           0.0566
_refine_ls_shift/su_max          0.000
_refine_ls_shift/su_mean         0.000
_refine_ls_structure_factor_coef Fsqd
_refine_ls_weighting_details
'calc w=1/[\s^2^(Fo^2^)+(0.0420P)^2^+0.1821P] where P=(Fo^2^+2Fc^2^)/3'
_refine_ls_weighting_scheme      calc
_refine_ls_wR_factor_gt          0.1235
_refine_ls_wR_factor_ref         0.1362
_reflns_number_gt                2092
_reflns_number_total             2991
_reflns_threshold_expression     >2sigma(I)
_iucr_refine_instructions_details
;
TITL BF2DBM(OMe) in P-1 #2
REM reset to P-1 #2
CELL 0.71073 8.023445 9.090084 10.791633 75.5141 80.7661 69.7969
ZERR 2 0.000735 0.000846 0.000842 0.0074 0.007 0.0084
LATT 1
SFAC C H B F O
UNIT 32 26 2 4 6

L.S. 4
PLAN  20
BOND
fmap 2
acta 50
OMIT 6 6 3
OMIT 0 0 6
OMIT 3 3 0
OMIT 3 6 3
OMIT 3 -3 3
OMIT 6 6 6
OMIT 7 7 7
OMIT 6 0 6
OMIT 3 0 9
OMIT -3 -3 9
OMIT 8 8 4
OMIT 6 3 3
OMIT -1 3 2
REM <olex2.extras>
REM <HklSrc "%.\\BF2DBM_OMe.hkl">
REM </olex2.extras>

WGHT    0.042000    0.182100
FVAR      15.02536
C5    1    0.284416    0.902754    0.026277    11.00000    0.04692    0.04507 =
         0.04521   -0.00659   -0.00614   -0.01984
C6    1    0.166131    1.044293    0.056822    11.00000    0.05119    0.04272 =
         0.04803   -0.00578   -0.00248   -0.01549
AFIX  43
H6    2    0.157231    1.140684   -0.001568    11.00000   -1.20000
AFIX   0
C13   1    0.402840    0.891072   -0.091165    11.00000    0.04460    0.04556 =
         0.04103   -0.00898   -0.00325   -0.01872
O19   5    0.726312    0.856829   -0.432374    11.00000    0.07337    0.07103 =
         0.05325   -0.01230    0.01541   -0.02114
O4    5    0.295765    0.766225    0.107232    11.00000    0.08565    0.04337 =
         0.05878   -0.00591    0.02104   -0.01477
F22   4    0.269202    0.660667    0.325369    11.00000    0.08275    0.08337 =
         0.05535   -0.00777   -0.00259   -0.00610
O2    5    0.069467    0.911156    0.253991    11.00000    0.08987    0.04764 =
         0.06049   -0.00793    0.02310   -0.01848
C16   1    0.625461    0.859553   -0.318329    11.00000    0.04860    0.06171 =
         0.04234   -0.01044   -0.00059   -0.02150
C1    1    0.061752    1.045373    0.171416    11.00000    0.04735    0.04728 =
         0.04657   -0.01014   -0.00393   -0.01978
F21   4    0.054359    0.682784    0.204423    11.00000    0.08134    0.07692 =
         0.08499   -0.02560    0.00867   -0.03436
C17   1    0.516834    1.010845   -0.298959    11.00000    0.06502    0.04818 =
         0.05004   -0.00095    0.00190   -0.01845
AFIX  43
H17   2    0.518619    1.101645   -0.361654    11.00000   -1.20000
AFIX   0
C14   1    0.514551    0.740764   -0.112212    11.00000    0.05942    0.04170 =
         0.04652   -0.00544   -0.00089   -0.01878
AFIX  43
H14   2    0.514231    0.649783   -0.049302    11.00000   -1.20000
AFIX   0
C7    1   -0.062393    1.191398    0.212191    11.00000    0.04481    0.05205 =
         0.05188   -0.01582   -0.00354   -0.01853
C18   1    0.407395    1.026429   -0.187945    11.00000    0.05468    0.04324 =
         0.05338   -0.00872   -0.00045   -0.01310
AFIX  43
H18   2    0.335303    1.127836   -0.176571    11.00000   -1.20000
AFIX   0
C15   1    0.625038    0.723553   -0.223405    11.00000    0.05586    0.04819 =
         0.05203   -0.01337    0.00091   -0.01448
AFIX  43
H15   2    0.698279    0.622514   -0.234867    11.00000   -1.20000
AFIX   0
C8    1   -0.153640    1.178675    0.334322    11.00000    0.06148    0.06438 =
         0.05567   -0.01660    0.00034   -0.01742
AFIX  43
H8    2   -0.135526    1.078883    0.389484    11.00000   -1.20000
AFIX   0
C12   1   -0.094427    1.342167    0.130471    11.00000    0.05907    0.05238 =
         0.06589   -0.01618    0.00450   -0.01920
AFIX  43
H12   2   -0.035873    1.352144    0.048646    11.00000   -1.20000
AFIX   0
C10   1   -0.300559    1.463953    0.291630    11.00000    0.05690    0.06425 =
         0.09610   -0.03835   -0.00045   -0.01091
AFIX  43
H10   2   -0.379086    1.554846    0.318444    11.00000   -1.20000
AFIX   0
B3    3    0.172689    0.751798    0.224640    11.00000    0.06658    0.04555 =
         0.05116   -0.00617    0.00656   -0.01734
C9    1   -0.271361    1.315282    0.373131    11.00000    0.06866    0.08727 =
         0.06681   -0.03443    0.01187   -0.02115
AFIX  43
H9    2   -0.330940    1.306490    0.454640    11.00000   -1.20000
AFIX   0
C20   1    0.829287    0.703640   -0.462621    11.00000    0.08185    0.08416 =
         0.06591   -0.02825    0.02323   -0.02263
AFIX 137
H20A  2    0.890210    0.719681   -0.546549    11.00000   -1.50000
H20B  2    0.751395    0.643243   -0.461131    11.00000   -1.50000
H20C  2    0.914891    0.645891   -0.400345    11.00000   -1.50000
AFIX   0
C11   1   -0.213109    1.477490    0.170390    11.00000    0.06678    0.04980 =
         0.08919   -0.01867   -0.00063   -0.01498
AFIX  43
H11   2   -0.233675    1.577483    0.115241    11.00000   -1.20000
HKLF 4

REM  BF2DBM(OMe) in P-1 #2
REM R1 =  0.0566 for   2092 Fo > 4sig(Fo)  and  0.0779 for all   2991 data
REM    200 parameters refined using      0 restraints

END  

WGHT      0.0420      0.1821 
REM Highest difference peak  0.144,  deepest hole -0.178,  1-sigma level  0.032
Q1    1   0.4041  0.8242 -0.1197  11.00000  0.05    0.14
Q2    1   0.1300  0.6362  0.2826  11.00000  0.05    0.14
Q3    1   0.8185  0.7327 -0.5801  11.00000  0.05    0.14
Q4    1   0.5016  0.8337 -0.0785  11.00000  0.05    0.14
Q5    1  -0.0070  0.9285  0.2054  11.00000  0.05    0.14
Q6    1   0.3083  0.7561  0.3065  11.00000  0.05    0.13
Q7    1  -0.0454  1.1229  0.1825  11.00000  0.05    0.13
Q8    1  -0.1553  1.2763  0.3633  11.00000  0.05    0.13
Q9    1   0.1876  0.9731  0.0223  11.00000  0.05    0.13
Q10   1   0.2742  0.9804  0.0684  11.00000  0.05    0.12
Q11   1   0.1018  0.9726  0.2391  11.00000  0.05    0.12
Q12   1   0.2235  1.1425  0.0427  11.00000  0.05    0.12
Q13   1   0.4488  0.9759 -0.1137  11.00000  0.05    0.12
Q14   1   0.5824  0.6643 -0.0363  11.00000  0.05    0.12
Q15   1   0.7555  0.6402 -0.2005  11.00000  0.05    0.12
Q16   1   0.2186  0.7911  0.0625  11.00000  0.05    0.12
Q17   1   0.1516  0.8444  0.2660  11.00000  0.05    0.11
Q18   1   0.5184  0.7474 -0.1994  11.00000  0.05    0.11
Q19   1  -0.0485  1.1786  0.2883  11.00000  0.05    0.11
Q20   1   0.0608  1.0421  0.0963  11.00000  0.05    0.11

REM The information below was added by Olex2.
REM
REM R1 = 0.0566 for 2092 Fo > 4sig(Fo) and 0.0779 for all 4159 data
REM n/a parameters refined using n/a restraints
REM Highest difference peak 0.14, deepest hole -0.18
REM Mean Shift 0, Max Shift 0.000.

REM +++ Tabular Listing of Refinement Information +++
REM R1_all = 0.0779
REM R1_gt = 0.0566
REM wR_ref = 0.1362
REM GOOF = 1.040
REM Shift_max = 0.000
REM Shift_mean = 0
REM Reflections_all = 4159
REM Reflections_gt = 2092
REM Parameters = n/a
REM Hole = -0.18
REM Peak = 0.14
REM Flack = n/a

;
_cod_data_source_file            ed5006.cif
_cod_data_source_block           bf2dbm_ome
_cod_original_cell_volume        712.79(11)
_cod_database_code               1542838
_publcif_datablock.id            {2df490f2-8c78-45f1-bf16-0e2cc4138f7b}
_chemical_oxdiff_formula         'C H N O B F'
_reflns_odcompleteness_completeness 98.05
_reflns_odcompleteness_iscentric 1
_reflns_odcompleteness_theta     26.32
_olex2_refinement_description
;
1. Fixed Uiso
 At 1.2 times of:
  All C(H) groups
 At 1.5 times of:
  All C(H,H,H) groups
2.a Aromatic/amide H refined with riding coordinates:
 C2(H6), C8(H17), C5(H14), C9(H18), C6(H15), C11(H8), C15(H12), C13(H10),
 C12(H9), C14(H11)
2.b Idealised Me refined as rotating group:
 C16(H20a,H20b,H20c)
;
_olex2_submission_special_instructions 'No special instructions were received'
loop_
_space_group_symop_id
_space_group_symop_operation_xyz
1 'x, y, z'
2 '-x, -y, -z'
loop_
_atom_site_label
_atom_site_type_symbol
_atom_site_fract_x
_atom_site_fract_y
_atom_site_fract_z
_atom_site_U_iso_or_equiv
_atom_site_adp_type
_atom_site_occupancy
_atom_site_calc_flag
_atom_site_refinement_flags_posn
C5 C 0.2844(2) 0.9028(2) 0.02628(18) 0.0446(4) Uani 1 d .
C6 C 0.1661(3) 1.0443(2) 0.05682(18) 0.0481(5) Uani 1 d .
H6 H 0.1572 1.1407 -0.0016 0.058 Uiso 1 calc R
C13 C 0.4028(2) 0.8911(2) -0.09117(16) 0.0426(4) Uani 1 d .
O19 O 0.7263(2) 0.85683(19) -0.43237(14) 0.0690(5) Uani 1 d .
O4 O 0.2958(2) 0.76623(17) 0.10723(14) 0.0683(5) Uani 1 d .
F22 F 0.26920(19) 0.66067(17) 0.32537(12) 0.0809(5) Uani 1 d .
O2 O 0.0695(2) 0.91116(17) 0.25399(14) 0.0710(5) Uani 1 d .
C16 C 0.6255(3) 0.8596(3) -0.31833(18) 0.0503(5) Uani 1 d .
C1 C 0.0618(3) 1.0454(2) 0.17142(18) 0.0458(5) Uani 1 d .
F21 F 0.05436(19) 0.68278(16) 0.20442(13) 0.0789(4) Uani 1 d .
C17 C 0.5168(3) 1.0108(2) -0.29896(19) 0.0569(5) Uani 1 d .
H17 H 0.5186 1.1016 -0.3617 0.068 Uiso 1 calc R
C14 C 0.5146(3) 0.7408(2) -0.11221(18) 0.0496(5) Uani 1 d .
H14 H 0.5142 0.6498 -0.0493 0.060 Uiso 1 calc R
C7 C -0.0624(3) 1.1914(2) 0.21219(18) 0.0479(5) Uani 1 d .
C18 C 0.4074(3) 1.0264(2) -0.18794(19) 0.0519(5) Uani 1 d .
H18 H 0.3353 1.1278 -0.1766 0.062 Uiso 1 calc R
C15 C 0.6250(3) 0.7236(2) -0.22341(19) 0.0527(5) Uani 1 d .
H15 H 0.6983 0.6225 -0.2349 0.063 Uiso 1 calc R
C8 C -0.1536(3) 1.1787(3) 0.3343(2) 0.0611(6) Uani 1 d .
H8 H -0.1355 1.0789 0.3895 0.073 Uiso 1 calc R
C12 C -0.0944(3) 1.3422(3) 0.1305(2) 0.0592(6) Uani 1 d .
H12 H -0.0359 1.3521 0.0486 0.071 Uiso 1 calc R
C10 C -0.3006(3) 1.4640(3) 0.2916(3) 0.0713(7) Uani 1 d .
H10 H -0.3791 1.5548 0.3184 0.086 Uiso 1 calc R
B3 B 0.1727(4) 0.7518(3) 0.2246(2) 0.0567(6) Uani 1 d .
C9 C -0.2714(3) 1.3153(3) 0.3731(2) 0.0739(7) Uani 1 d .
H9 H -0.3309 1.3065 0.4546 0.089 Uiso 1 calc R
C20 C 0.8293(4) 0.7036(3) -0.4626(2) 0.0795(8) Uani 1 d .
H20A H 0.8902 0.7197 -0.5465 0.119 Uiso 1 calc GR
H20B H 0.7514 0.6432 -0.4611 0.119 Uiso 1 calc GR
H20C H 0.9149 0.6459 -0.4003 0.119 Uiso 1 calc GR
C11 C -0.2131(3) 1.4775(3) 0.1704(3) 0.0695(6) Uani 1 d .
H11 H -0.2337 1.5775 0.1152 0.083 Uiso 1 calc R
loop_
_atom_site_aniso_label
_atom_site_aniso_U_11
_atom_site_aniso_U_22
_atom_site_aniso_U_33
_atom_site_aniso_U_23
_atom_site_aniso_U_13
_atom_site_aniso_U_12
C5 0.0469(11) 0.0451(10) 0.0452(10) -0.0066(8) -0.0061(8) -0.0198(9)
C6 0.0512(12) 0.0427(10) 0.0480(11) -0.0058(8) -0.0025(9) -0.0155(9)
C13 0.0446(11) 0.0456(10) 0.0410(10) -0.0090(8) -0.0032(8) -0.0187(9)
O19 0.0734(11) 0.0710(10) 0.0533(9) -0.0123(7) 0.0154(7) -0.0211(8)
O4 0.0856(12) 0.0434(8) 0.0588(9) -0.0059(7) 0.0210(8) -0.0148(8)
F22 0.0828(10) 0.0834(10) 0.0554(8) -0.0078(7) -0.0026(7) -0.0061(8)
O2 0.0899(12) 0.0476(9) 0.0605(9) -0.0079(7) 0.0231(8) -0.0185(8)
C16 0.0486(11) 0.0617(13) 0.0423(11) -0.0104(9) -0.0006(8) -0.0215(10)
C1 0.0473(11) 0.0473(11) 0.0466(11) -0.0101(8) -0.0039(8) -0.0198(9)
F21 0.0813(10) 0.0769(10) 0.0850(10) -0.0256(7) 0.0087(7) -0.0344(8)
C17 0.0650(14) 0.0482(12) 0.0500(12) -0.0010(9) 0.0019(10) -0.0185(10)
C14 0.0594(13) 0.0417(11) 0.0465(11) -0.0054(8) -0.0009(9) -0.0188(9)
C7 0.0448(11) 0.0520(12) 0.0519(11) -0.0158(9) -0.0035(8) -0.0185(9)
C18 0.0547(12) 0.0432(11) 0.0534(12) -0.0087(9) -0.0004(9) -0.0131(9)
C15 0.0559(13) 0.0482(11) 0.0520(12) -0.0134(9) 0.0009(9) -0.0145(10)
C8 0.0615(14) 0.0644(14) 0.0557(13) -0.0166(10) 0.0003(10) -0.0174(11)
C12 0.0591(14) 0.0524(12) 0.0659(13) -0.0162(10) 0.0045(10) -0.0192(11)
C10 0.0569(14) 0.0643(16) 0.0961(19) -0.0384(14) -0.0005(13) -0.0109(12)
B3 0.0666(16) 0.0456(13) 0.0512(14) -0.0062(10) 0.0066(11) -0.0173(12)
C9 0.0687(16) 0.0873(19) 0.0668(15) -0.0344(14) 0.0119(12) -0.0212(14)
C20 0.0819(18) 0.0842(18) 0.0659(15) -0.0282(13) 0.0232(13) -0.0226(15)
C11 0.0668(15) 0.0498(13) 0.0892(18) -0.0187(12) -0.0006(13) -0.0150(11)
loop_
_atom_type_symbol
_atom_type_description
_atom_type_scat_dispersion_real
_atom_type_scat_dispersion_imag
_atom_type_scat_source
C C 0.0033 0.0016 'International Tables Vol C Tables 4.2.6.8 and 6.1.1.4'
H H 0.0000 0.0000 'International Tables Vol C Tables 4.2.6.8 and 6.1.1.4'
B B 0.0013 0.0007 'International Tables Vol C Tables 4.2.6.8 and 6.1.1.4'
F F 0.0171 0.0103 'International Tables Vol C Tables 4.2.6.8 and 6.1.1.4'
O O 0.0106 0.0060 'International Tables Vol C Tables 4.2.6.8 and 6.1.1.4'
loop_
_geom_angle_atom_site_label_1
_geom_angle_atom_site_label_2
_geom_angle_atom_site_label_3
_geom_angle
C6 C5 C13 125.28(17)
O4 C5 C6 119.51(17)
O4 C5 C13 115.20(17)
C1 C6 C5 121.67(18)
C14 C13 C5 120.07(16)
C14 C13 C18 117.52(17)
C18 C13 C5 122.39(17)
C16 O19 C20 118.45(17)
C5 O4 B3 122.93(16)
C1 O2 B3 122.63(16)
O19 C16 C17 115.89(17)
O19 C16 C15 124.32(19)
C15 C16 C17 119.79(18)
C6 C1 C7 124.67(18)
O2 C1 C6 120.30(18)
O2 C1 C7 115.03(17)
C18 C17 C16 120.47(18)
C15 C14 C13 122.08(18)
C8 C7 C1 119.61(18)
C12 C7 C1 121.53(18)
C12 C7 C8 118.85(19)
C17 C18 C13 120.94(19)
C14 C15 C16 119.20(19)
C9 C8 C7 120.0(2)
C11 C12 C7 120.5(2)
C11 C10 C9 119.9(2)
F22 B3 O4 109.0(2)
F22 B3 O2 108.81(19)
F22 B3 F21 110.94(19)
O2 B3 O4 111.38(17)
F21 B3 O4 108.59(19)
F21 B3 O2 108.1(2)
C10 C9 C8 120.5(2)
C10 C11 C12 120.2(2)
loop_
_geom_bond_atom_site_label_1
_geom_bond_atom_site_label_2
_geom_bond_distance
C5 C6 1.390(3)
C5 C13 1.460(3)
C5 O4 1.310(2)
C6 C1 1.378(3)
C13 C14 1.402(3)
C13 C18 1.408(3)
O19 C16 1.361(2)
O19 C20 1.440(3)
O4 B3 1.484(3)
F22 B3 1.358(3)
O2 C1 1.307(2)
O2 B3 1.484(3)
C16 C17 1.397(3)
C16 C15 1.395(3)
C1 C7 1.479(3)
F21 B3 1.374(3)
C17 C18 1.374(3)
C14 C15 1.381(3)
C7 C8 1.400(3)
C7 C12 1.395(3)
C8 C9 1.390(3)
C12 C11 1.389(3)
C10 C9 1.381(3)
C10 C11 1.380(3)
loop_
_refln_index_h
_refln_index_k
_refln_index_l
_refln_F_squared_meas
_refln_F_squared_sigma
_refln_scale_group_code
0 0 -1 135432 3488.13 3
0 0 1 134112 3453.15 1
0 0 3 31383.3 921.788 2
0 0 -3 29351.4 1064.81 3
0 0 3 28531.5 978.115 1
0 0 4 4464.96 260.258 2
0 0 4 4544.32 313.157 1
0 0 -4 4500.44 367.039 3
0 0 -5 4706.16 417.088 3
0 0 5 4433.13 346.969 1
0 0 -6 10100 698.277 3
0 0 -7 13274.3 873.46 3
0 0 -8 29206.1 1467.22 3
0 0 -9 30432.4 1595.4 3
0 0 -10 3345.68 523.264 3
0 0 -11 1297.38 346.685 3
0 0 -12 109.22 144.642 3
0 0 -13 121.02 165.727 3
0 1 -13 1980.06 476.077 3
0 1 -12 304.415 189.778 3
0 1 -11 389.1 231.895 3
0 1 -10 140.032 163.427 3
0 1 -9 875.153 270.741 3
0 1 -8 12957 926.188 3
0 1 -7 139.784 97.8858 3
0 -1 7 293.611 112.674 1
0 -1 6 31429.3 1235.95 1
0 1 -6 31807.9 1386.89 3
0 -1 5 3833.53 314.423 1
0 1 -5 3695.06 365.834 3
0 1 -4 4.63328 27.5794 4
0 1 -4 -38.8203 49.2899 3
0 -1 4 22.6953 33.5023 1
0 1 -3 297965 7530.66 4
0 1 -3 284556 7625.05 3
0 -1 3 284991 7490.87 1
0 1 -2 21231.5 761.02 3
0 1 -2 21168.5 721.313 4
0 -1 2 21349.1 684.912 1
0 1 -1 298361 7622.64 4
0 -1 -1 259.507 55.0401 3
0 1 1 327.85 47.8521 4
0 1 2 90761.4 2481.93 4
0 -1 -2 94736.7 2579.51 3
0 1 2 94276.2 2477.71 2
0 1 3 133974 3553.58 2
0 -1 -3 133215 3715.94 3
0 1 4 95213.1 2613.37 2
0 -1 -4 91433.9 2823.17 3
0 -1 -5 1308.24 222.67 3
0 1 5 1083.94 139.949 2
0 1 6 53.0675 55.9989 2
0 -1 -6 -9.60231 72.461 3
0 -1 -7 215.96 131.947 3
0 1 7 56.9472 48.444 2
0 -1 -8 3325.35 451.267 3
0 -1 -9 963.854 273.493 3
0 -1 -10 142.79 154.265 3
0 -1 -11 1077.48 318.5 3
0 -1 -12 1979.1 441.341 3
0 -1 -13 53.5298 171.748 3
0 2 -12 33.4285 133.2 3
0 2 -11 119.112 181.962 3
0 2 -10 157.093 131.325 3
0 2 -9 140201 4681.4 3
0 2 -8 39971 1872.6 3
0 -2 8 44445.8 1726.58 1
0 -2 7 81045.6 2613.52 1
0 2 -7 79733.1 2844.74 3
0 2 -6 8478.24 653.099 3
0 2 -6 8225.67 551.454 4
0 -2 6 8586.95 543.197 1
0 -2 5 7025.76 450.455 1
0 2 -5 7864.24 563.761 3
0 2 -5 7867.81 506.932 4
0 2 -4 45134.9 1550.55 4
0 2 -4 47164.6 1648.83 3
0 -2 4 46128.9 1473.42 1
0 -2 3 67888.1 1975.02 1
0 2 -3 69554.1 2084.47 4
0 2 -3 69355.3 2138.41 3
0 2 -2 79363 2297.99 4
0 -2 2 79629.3 2174.44 1
0 2 -1 147362 3901.03 4
0 -2 1 143143 3758.26 1
0 2 0 186075 4909.8 4
0 -2 -1 709.118 114.7 3
0 2 1 660.995 94.14 4
0 -2 -2 27906.1 1023.09 3
0 2 2 27745 921.058 4
0 -2 -3 23114.7 941.386 3
0 2 3 22220.8 811.501 4
0 -2 -4 8196.02 537.393 3
0 2 4 8206.9 437.923 2
0 2 4 8844.36 445.625 4
0 2 5 20549.5 842.62 2
0 2 5 21262.7 845.408 4
0 -2 -5 22868.6 1041.12 3
0 -2 -6 15101.8 885.482 3
0 2 6 14436.7 680.696 4
0 2 6 15172.1 690.717 2
0 2 7 43.7033 34.3807 4
0 -2 -7 124.925 102.327 3
0 2 7 101.315 59.8855 2
0 -2 -8 641.113 204.098 3
0 -2 -9 4749.12 583.889 3
0 -2 -10 9441.94 878.557 3
0 -2 -11 13534.1 1127.71 3
0 -2 -12 3372.52 567.696 3
0 -2 -13 352.808 246.747 3
0 3 -12 1867.15 457.773 3
0 3 -11 1324.05 364.303 3
0 3 -10 206.597 190.507 3
0 3 -9 17230.6 1199.19 3
0 3 -8 1211.63 284.619 3
0 -3 8 1265.79 239.869 1
0 3 -7 2313.41 367.162 3
0 3 -7 2230.47 312.676 4
0 -3 7 1768.92 262.5 1
0 3 -6 2759.58 331.864 4
0 3 -6 2180.19 338.631 3
0 -3 6 2462.34 283.41 1
0 3 -5 1939.94 266.774 4
0 3 -5 1687.9 265.731 3
0 -3 5 1218.22 179.807 1
0 3 -4 627.092 147.376 4
0 3 -4 463.365 130.699 3
0 -3 4 484.335 106.446 1
0 3 -3 39799.8 1335.83 3
0 3 -3 34860 1261.44 4
0 3 -2 3568.4 305.971 4
0 -3 2 3041.64 205.539 1
0 3 -1 5626.05 386.683 4
0 -3 1 6176.35 295.39 1
0 3 0 106591 3046.22 4
0 3 1 1688.24 186.622 4
0 3 2 112660 3146.54 4
0 -3 -2 109442 3248.61 3
0 3 3 177094 4800.4 4
0 -3 -3 176578 4979.11 3
0 3 4 2466.46 238.313 4
0 -3 -4 2313.24 296.299 3
0 3 5 21445.7 915.694 2
0 -3 -5 22375.2 1098.17 3
0 3 5 21252.1 883.662 4
0 -3 -6 36586.2 1578.44 3
0 3 6 36723.3 1348.03 2
0 3 6 34935.9 1301.27 4
0 3 7 13889.7 699.277 4
0 -3 -7 13708.9 926.449 3
0 3 7 13274.6 713.386 2
0 -3 -8 43.3165 152.53 3
0 -3 -9 6189.54 682.153 3
0 -3 -10 945.567 305.485 3
0 -3 -11 1268.1 362.906 3
0 -3 -12 1858.11 443.477 3
0 -3 -13 596.656 312.044 3
0 4 -11 131.255 179.933 3
0 4 -10 91.2214 94.205 3
0 4 -9 596.914 236.471 3
0 4 -8 365.379 183.58 3
0 -4 8 318.409 149.85 1
0 4 -7 15959.1 1038.66 3
0 -4 7 14322.9 817.672 1
0 4 -7 14302.3 923.015 4
0 -4 6 2641.12 292.636 1
0 4 -6 2699.36 378.499 3
0 4 -6 2611.78 353.125 4
0 -4 5 147.188 72.3302 1
0 4 -5 171.831 118.677 4
0 4 -5 127.76 105.032 3
0 4 -4 1212.85 233.514 3
0 4 -4 1017.74 212.882 4
0 -4 4 1049.07 157.248 1
0 4 -3 6409.46 496.468 4
0 -4 3 7001.5 389.463 1
0 -4 2 1684.14 161.974 1
0 4 -2 1737.95 244.553 4
0 4 -1 14272.4 742.933 4
0 -4 1 15133.2 582.911 1
0 4 0 2792.43 305.138 4
0 4 1 276934 7449.86 4
0 4 2 172791 4823.51 4
0 -4 -3 633835 16719 3
0 4 3 646111 16544.9 4
0 4 4 102.434 77.91 4
0 -4 -4 129.413 115.311 3
0 4 5 164.824 91.3419 4
0 -4 -5 122.472 115.117 3
0 -4 -6 3621.92 460.85 3
0 4 6 3582.51 339.176 4
0 4 6 4193.65 392.168 2
0 4 7 8325.05 544.466 4
0 -4 -7 7916.05 730.291 3
0 4 7 7745.36 560.701 2
0 -4 -8 532.875 250.44 3
0 -4 -9 13988.7 1082.34 3
0 -4 -10 21695.6 1459.1 3
0 -4 -11 429.802 259.715 3
0 -4 -12 1675.99 447.933 3
0 -4 -13 665.621 297.313 3
0 5 -10 -135.409 186.267 3
0 5 -9 74.3455 100.604 3
0 5 -8 208 150.943 3
0 5 -7 2702.23 429.223 3
0 5 -7 2737.18 410.094 4
0 5 -6 5990.69 596.463 4
0 5 -6 6091.82 607.984 3
0 5 -5 4543.08 499.253 3
0 5 -5 5927.19 551.425 4
0 5 -4 614.9 178.99 3
0 5 -4 973.366 214.353 4
0 -5 4 1007.38 155.825 1
0 5 -3 3259.01 381.868 4
0 -5 3 3241.24 264.397 1
0 -5 2 1558.13 169.827 1
0 5 -2 1911.45 282.722 4
0 5 -1 1480.04 244.933 4
0 -5 1 1340.56 155.701 1
0 5 0 84424 2721.91 4
0 5 1 875.394 183.707 4
0 5 2 9008.74 601.358 4
0 5 3 20798 985.464 4
0 -5 -4 14095.5 881.108 3
0 5 4 12334.1 720.35 4
0 5 5 243.88 101.816 4
0 -5 -5 391.603 161.336 3
0 -5 -6 211.006 152.717 3
0 5 6 202.98 97.575 4
0 -5 -7 6682.61 702.203 3
0 5 7 7846.69 562.692 4
0 5 7 7585.05 598.033 2
0 -5 -8 10346 926.073 3
0 -5 -9 167.274 148.788 3
0 -5 -10 7803.77 870.156 3
0 -5 -11 624.216 284.811 3
0 -5 -12 601.458 282.256 3
0 6 -8 1953.2 408.853 3
0 6 -7 2744.42 455.204 3
0 6 -7 1926.41 379.6 4
0 6 -6 34417 1731.95 4
0 6 -6 39006 1808.05 3
0 6 -5 793.825 243.206 4
0 6 -5 1109.94 265.079 3
0 6 -4 2988.36 397.048 3
0 6 -4 1972.75 337.858 4
0 6 -3 1296.78 274.145 4
0 6 -2 403.911 163.691 4
0 6 -1 62194.7 2286.88 4
0 6 0 8449.19 645.482 4
0 6 1 5347.23 514.476 4
0 6 2 34576.2 1490.42 4
0 6 3 12054.9 774.212 4
0 6 4 2830.32 359.247 4
0 -6 -5 1456.45 310.533 3
0 6 5 1813.95 288.177 4
0 6 6 1776.98 285.348 4
0 -6 -6 2171.15 383.289 3
0 6 7 460.281 139.767 4
0 6 7 -38.0347 111.509 2
0 -6 -7 401.672 177.7 3
0 -6 -8 35484.3 1900.62 3
0 -6 -9 3334.09 565.002 3
0 -6 -10 164.517 179.679 3
0 -6 -11 491.504 271.851 3
0 -6 -12 44.5022 134.737 3
0 7 -7 911.098 296.507 4
0 7 -6 612.491 234.944 4
0 7 -6 1162.56 300.04 3
0 7 -5 1585.81 342.61 4
0 7 -5 1647.23 328.185 3
0 7 -4 335.876 177.797 4
0 7 -4 319.509 140.52 3
0 7 -3 181.663 149.002 4
0 7 -2 580.129 208.496 4
0 7 -1 331.782 144.955 4
0 7 0 1560.98 316.491 4
0 7 1 41145.3 1803.59 4
0 7 2 1.87217 73.6222 4
0 7 3 232.523 125.449 4
0 7 4 146.913 106.723 4
0 7 5 426.726 181.639 4
0 -7 -6 438.089 209.054 3
0 7 6 688.329 197.554 4
0 7 7 579.762 186.717 4
0 -7 -7 320.005 184.816 3
0 -7 -8 9850.13 956.462 3
0 -7 -9 2720.09 516.447 3
0 -7 -10 715.587 267.309 3
0 -7 -11 140.461 196.433 3
0 8 -7 328.958 193.5 4
0 8 -6 344.515 204.484 4
0 8 -5 343.799 182.768 4
0 8 -4 486.21 234.28 4
0 8 -3 340.727 197.687 4
0 8 -2 352.413 202.083 4
0 8 -1 7854.29 750.371 4
0 8 0 1866.21 364.817 4
0 8 1 421.56 181.173 4
0 8 2 3442.73 481.206 4
0 8 3 960.805 263.382 4
0 8 4 4444.71 531.081 4
0 8 5 20753.8 1224.78 4
0 8 6 6370.8 632.84 4
0 8 7 1874.78 338.63 4
0 -8 -7 1137.76 339.12 3
0 -8 -8 3201.7 561.794 3
0 -8 -9 -36.447 127.803 3
0 -8 -10 612.911 280.279 3
0 9 -5 988.727 324.074 4
0 9 -4 134.589 191.241 4
0 9 -3 2695.8 487.297 4
0 9 -2 469.063 198.347 4
0 9 -1 1353.28 358.34 4
0 9 0 1739.57 370.948 4
0 9 1 74.3626 120.47 4
0 9 2 629.74 240.591 4
0 9 3 344.36 195.07 4
0 9 4 2337.1 419.986 4
0 9 5 4119.7 550.67 4
0 9 6 938.393 272.149 4
0 9 7 193.502 139.133 4
0 -9 -9 1168.36 390.149 3
0 10 -1 4175.27 628.19 4
0 10 0 1835.01 417.749 4
0 10 1 2010.9 437.133 4
0 10 2 1028.25 313.491 4
0 10 3 11.2114 97.9541 4
0 10 4 850.942 300.406 4
0 10 5 273.555 185.949 4
0 10 6 242.722 190.036 4
0 10 7 -33.8695 101.394 4
-1 10 6 754.158 276.686 4
-1 10 5 159.677 159.471 4
-1 10 4 1076.78 317.934 4
-1 10 3 165.506 158.894 4
-1 10 2 3215.21 544.119 4
-1 10 1 6782.74 805.865 4
1 -9 -9 606.206 295.667 3
-1 9 6 650.076 217.956 4
-1 9 5 1673.5 366.352 4
-1 9 4 1910.04 389.249 4
-1 9 3 344.069 204.584 4
-1 9 2 1045.89 321.815 4
-1 9 1 845.091 278.506 4
-1 9 0 -24.1937 108.272 4
-1 9 -1 268.829 187.234 4
-1 9 -2 1086.12 320.053 4
-1 9 -3 26.0284 116 4
1 -8 -10 5822.1 835.756 3
1 -8 -9 206.239 195.778 3
1 -8 -8 1756.1 427.163 3
-1 8 7 7.89599 100.363 2
1 -8 -7 410.5 238.072 3
-1 8 6 69.0774 118.791 4
-1 8 5 1279.44 284.061 4
-1 8 4 411.114 198.955 4
-1 8 3 1988.67 369.465 4
-1 8 2 246.541 164.162 4
-1 8 1 320.844 150.104 4
-1 8 0 4496.88 571.394 4
-1 8 -1 20.9446 109.28 4
-1 8 -2 2195.65 423.897 4
-1 8 -3 211.197 148.507 4
-1 8 -4 148.078 158.964 4
-1 8 -5 1446.11 374.585 4
-1 8 -6 89.085 177.791 4
1 -7 -11 1528.12 439.333 3
1 -7 -10 -57.3936 154.882 3
1 -7 -9 76.3126 171.642 3
1 -7 -8 1008.01 317.595 3
-1 7 7 84.7643 133.43 2
1 -7 -7 101.505 121.112 3
-1 7 6 4182.25 473.538 4
1 -7 -6 4987.64 613.66 3
-1 7 5 977.671 237.546 4
-1 7 4 3807.94 459.601 4
-1 7 3 1535.89 290.837 4
-1 7 2 6047.24 608.002 4
-1 7 1 2418.84 378.906 4
-1 7 0 11009.8 840.089 4
-1 7 -1 34889.7 1681.11 4
-1 7 -2 52503.9 2239.06 4
-1 7 -3 -64.6428 120.03 4
-1 7 -4 4213.06 561.228 4
-1 7 -5 2663.89 463.36 4
-1 7 -6 1214.7 341.471 4
-1 7 -7 662.235 270.401 4
-1 7 -8 88.5568 147.035 4
1 -6 -11 459.143 277.446 3
1 -6 -10 476.963 257.801 3
1 -6 -9 1015.05 325.217 3
1 -6 -8 1895.95 408.861 3
1 -6 -7 801.986 273.02 3
-1 6 7 517.056 202.63 2
-1 6 6 4284.83 443.589 4
1 -6 -6 4348.71 557.815 3
1 -6 -5 1742.43 339.675 3
-1 6 5 2611.07 341.611 4
-1 6 4 2162.67 313.098 4
1 -6 -4 2447.14 375.319 3
-1 6 3 711.995 190.65 4
-1 6 2 38363.8 1614.33 4
-1 6 1 11586.7 798.938 4
-1 6 0 3045.13 394.909 4
-1 6 -1 191274 5688.53 4
-1 6 -2 59031.5 2293.21 4
-1 6 -3 7314.64 662.921 4
-1 6 -4 7479.02 624.498 3
-1 6 -4 7101.11 669.496 4
-1 6 -5 1173.22 286.46 4
-1 6 -6 2613.25 438.51 4
-1 6 -7 1179.99 314.132 4
-1 6 -8 185.987 170.596 4
1 -5 -12 251.897 289.788 3
1 -5 -11 136.707 201.774 3
1 -5 -10 1156.17 346.571 3
1 -5 -9 3429 557.847 3
1 -5 -8 495.497 238.868 3
-1 5 7 129259 4202.74 2
1 -5 -7 128557 4374.39 3
1 -5 -6 -89.2876 177.704 3
-1 5 6 86.2018 101.859 4
-1 5 6 -224.841 131.733 2
-1 5 5 4953.05 437.517 4
1 -5 -5 5632.49 565.253 3
-1 5 4 3372.65 353.247 4
1 -5 -4 3334.61 411.209 3
1 -5 -3 44711.4 1769.76 3
-1 5 3 43350.8 1648.43 4
-1 5 2 19763.5 974.318 4
-1 5 1 178.805 107.326 4
-1 5 0 5351.44 474.891 4
-1 5 -1 17873.7 965.708 4
1 -5 2 28.2557 60.8786 1
-1 5 -2 172.472 107.57 4
-1 5 -3 302.378 144.051 4
1 -5 3 388.368 102.711 1
-1 5 -4 12368.7 848.922 4
-1 5 -4 12048.8 763.706 3
1 -5 4 12393.7 658.958 1
1 -5 5 1487.78 225.504 1
-1 5 -5 791.51 220.913 4
-1 5 -5 1238.75 242.294 3
-1 5 -6 12432.2 923.671 4
-1 5 -6 11891.1 855.469 3
-1 5 -7 1214.19 294.092 4
-1 5 -8 169.3 159.581 4
1 -4 -12 98.3176 125.983 3
1 -4 -11 2520.2 498.505 3
1 -4 -10 -32.8085 140.38 3
1 -4 -9 119.153 114.406 3
1 -4 -8 114079 3991.11 3
1 -4 -7 109055 3735.63 3
-1 4 7 107308 3525.38 2
-1 4 6 25333.7 1259.75 2
1 -4 -6 26828.8 1386.55 3
-1 4 6 26414.5 1058.06 4
-1 4 5 7624.22 608.84 2
-1 4 5 7683.64 489.926 4
1 -4 -5 8133.2 660.561 3
1 -4 -4 192.592 112.602 3
-1 4 4 229.639 91.6092 4
1 -4 -3 47787.2 1766.71 3
-1 4 3 46671.9 1631.17 4
1 -4 -2 201488 5633.49 3
-1 4 2 201306 5574.02 4
-1 4 1 14095.5 735.764 4
-1 4 0 21555 984.649 4
-1 4 -1 1197.85 204.254 4
1 -4 2 19001 798.505 1
-1 4 -2 18944.7 951.539 4
1 -4 3 397.218 105.728 1
-1 4 -3 319.608 131.992 4
1 -4 4 1272.73 185.082 1
-1 4 -4 1679.45 280.05 4
-1 4 -4 1613.21 249.055 3
1 -4 5 1523.68 215.279 1
-1 4 -5 1058.3 213.815 3
-1 4 -5 1546.24 282.411 4
-1 4 -6 1549.87 292.42 4
-1 4 -6 1605.02 290.543 3
1 -4 6 1537.69 235.958 1
-1 4 -7 10441.1 819.507 4
1 -4 7 11235.6 717.098 1
-1 4 -7 10866 824.103 3
-1 4 -8 4463.21 541.904 3
1 -4 8 4028.93 437.509 1
1 -4 9 1672.16 303.026 1
-1 4 -9 1195.45 310.502 3
1 -3 -12 592.651 287.864 3
1 -3 -11 2021.09 437.4 3
1 -3 -10 594.624 235.902 3
1 -3 -9 146.822 156.634 3
1 -3 -8 18099.4 1164.04 3
-1 3 7 2558.12 334.624 2
1 -3 -7 2718.66 401.442 3
1 -3 -6 17462.3 1012.52 3
-1 3 6 18000.9 736.388 4
-1 3 6 17170.9 930.12 2
-1 3 5 4226.33 305.857 4
-1 3 5 4237.72 411.207 2
1 -3 -5 4781.37 461.318 3
-1 3 4 100.314 48.3739 4
-1 3 4 57.834 64.1685 2
1 -3 -4 -15.8452 69.6539 3
1 -3 -3 276611 7212.01 3
-1 3 3 255724 6955.05 4
1 -3 -2 1371.58 205.999 3
-1 3 2 1735.82 199.167 4
-1 3 1 98423.9 2860.54 4
-1 3 0 28720.7 1094.76 4
-1 3 -1 4349.15 357.568 4
1 -3 2 55938.4 1742.57 1
-1 3 -2 56968.3 1897.85 4
-1 3 -3 1754.42 247.377 4
-1 3 -3 861.737 151.794 3
1 -3 3 1401.23 177.525 1
1 -3 4 183360 5000.36 1
-1 3 -4 181780 5242.73 4
-1 3 -4 182071 5120.22 3
-1 3 -5 3311.7 381.078 4
-1 3 -5 2831.66 334.732 3
1 -3 5 2840.22 290.393 1
-1 3 -6 -25.6872 68.7422 3
1 -3 6 50.5819 56.5547 1
-1 3 -6 64.7223 101.735 4
1 -3 7 3657.84 382.434 1
-1 3 -7 3558.63 440.123 3
-1 3 -8 1092.12 268.902 3
1 -3 8 995.917 224.285 1
-1 3 -9 157.064 153.731 3
1 -3 9 31.7365 72.0374 1
1 -3 10 123.664 136.519 1
-1 3 -10 303.439 175.536 3
-1 3 -11 726.438 261.228 3
1 -3 11 872.575 256.19 1
1 -2 -12 721.584 306.977 3
1 -2 -11 8659.32 909.77 3
1 -2 -10 6402.12 742.036 3
1 -2 -9 5519.35 637.872 3
1 -2 -8 5471.19 594.942 3
-1 2 7 -35.0271 55.3925 2
1 -2 -7 109.878 138.421 3
-1 2 6 5611.21 315.161 4
1 -2 -6 5996.75 545.467 3
-1 2 6 5202.87 448.852 2
-1 2 5 643.748 97.9277 4
1 -2 -5 688.763 173.564 3
-1 2 5 787.497 163.844 2
-1 2 4 67.2947 37.9669 4
-1 2 4 9.58386 50.6146 2
1 -2 -4 -46.5467 65.4169 3
-1 2 3 77895.3 2151.83 4
1 -2 -3 77322 2371.65 3
-1 2 3 73229.9 2363.22 2
-1 2 2 47029.4 1415.36 4
1 -2 -2 46613.6 1528.41 3
1 -2 -1 311186 7932.21 3
-1 2 1 298659 7904.04 4
-1 2 0 25164.7 908.554 4
-1 2 -1 138502 3831.81 4
-1 2 -2 83522.7 2502.67 4
1 -2 2 83864.7 2386.98 1
1 -2 3 16450.6 680.51 1
-1 2 -3 17278.1 720.123 3
-1 2 -3 17129.8 799.093 4
1 -2 4 332567 8605.55 1
-1 2 -4 329149 8778.91 4
-1 2 -4 319733 8688.3 3
1 -2 5 14541.2 702.357 1
-1 2 -5 13511.6 775.453 4
-1 2 -5 14378.2 780.416 3
-1 2 -6 8529.83 618.675 3
1 -2 6 7459.83 521.453 1
1 -2 7 20316.1 984.882 1
-1 2 -7 20097.2 1106.77 3
1 -2 8 12733.2 785.25 1
-1 2 -8 12461.9 891.384 3
-1 2 -9 5982.89 648.563 3
1 -2 9 5352.35 532.729 1
1 -2 10 634.72 228.32 1
-1 2 -10 787.449 259.031 3
-1 2 -11 871.996 294.807 3
-1 2 -12 914.025 326.558 3
1 -1 -12 1139.71 364.534 3
1 -1 -11 112.462 180.535 3
1 -1 -10 8873.4 877.134 3
1 -1 -9 6478.03 687.429 3
1 -1 -8 4129.33 520.944 3
-1 1 7 545.323 139.627 2
1 -1 -7 460.795 194.505 3
-1 1 6 19515.1 706.104 4
1 -1 -6 21034 1087.67 3
-1 1 6 21896.7 966.855 2
-1 1 5 230623 5991.98 4
-1 1 5 232897 6343.24 2
1 -1 -5 231711 6481.55 3
-1 1 4 165383 4624.89 2
1 -1 -4 166099 4694.32 3
-1 1 4 163713 4275.98 4
1 -1 -3 58191.2 1869.9 3
-1 1 3 59706.8 1865.86 2
-1 1 3 59320.6 1588.93 4
-1 1 2 238438 6411.43 2
-1 1 2 241551 6172.03 4
1 -1 -2 245528 6367.28 3
-1 1 1 25471.7 793.436 4
1 -1 -1 26356.9 830.828 3
-1 1 0 445503 11349.8 4
-1 1 -1 673772 17130.3 4
1 -1 2 8760.13 405.956 1
-1 1 -2 9041.21 389.119 3
-1 1 -2 10004.3 479.38 4
-1 1 -3 27691.2 1027.83 4
-1 1 -3 26559.9 956.685 3
1 -1 3 26635.5 924.093 1
-1 1 -4 94676.7 2806.7 3
1 -1 4 94849.6 2729.69 1
-1 1 -5 4602 397.736 3
1 -1 5 4158.82 330.374 1
-1 1 -6 18308.6 965.852 3
1 -1 6 19367.7 877.432 1
-1 1 -7 18151.5 1024.79 3
1 -1 7 19238.3 932.813 1
1 -1 8 8706.07 630.203 1
-1 1 -8 8579.65 715.067 3
-1 1 -9 8834.75 778.621 3
1 -1 9 8595.57 673.958 1
1 -1 10 14064.8 933.396 1
-1 1 -10 14641.2 1082.08 3
-1 1 -11 47.6492 124.521 3
-1 1 -12 144.53 203.103 3
-1 1 -13 289.101 210.791 3
1 0 -12 -55.6006 132.569 3
1 0 -11 340.061 183.02 3
1 0 -10 1279.88 337.105 3
1 0 -9 1949.38 365.429 3
1 0 -8 1721.09 355.433 3
-1 0 8 1537.27 226.096 2
-1 0 7 233.868 103.689 2
1 0 -7 57.5997 74.2274 3
1 0 -6 2294.75 327.295 3
-1 0 6 2386.72 266.556 2
-1 0 5 556316 14350.9 2
1 0 -5 550949 14568.3 3
1 0 -4 99820 2972.34 3
-1 0 4 95503.4 2847.6 2
1 0 -3 64561 2012.47 3
-1 0 3 65044.1 1983.08 2
1 0 -2 77814.8 2225.07 3
-1 0 2 76589 2245.41 2
1 0 -1 108282 3007.28 3
-1 0 1 113771 3097.55 2
-1 0 0 27472.3 870.071 2
1 0 1 93278.9 2485.57 1
-1 0 -2 23019.2 751.92 3
1 0 2 23704.3 757.25 1
-1 0 -3 241060 6412.66 3
1 0 3 246417 6367.63 1
-1 0 -4 28461.8 1080.5 3
1 0 4 28662 1008.14 1
-1 0 -5 194.972 92.8245 3
1 0 5 67.1314 41.3629 1
-1 0 -6 4779.7 440.21 3
1 0 6 4503.1 372.549 1
-1 0 -7 29720.4 1356.66 3
1 0 7 27448.3 1187.38 1
1 0 8 7193.91 577.191 1
-1 0 -8 9257.59 726.666 3
1 0 9 2214.75 337.375 1
-1 0 -9 2891.32 437.409 3
-1 0 -10 49861.6 2263.48 3
-1 0 -11 -64.3098 134.455 3
-1 0 -12 431.873 241.531 3
-1 0 -13 572.646 280.643 3
1 1 -12 863.909 309.96 3
1 1 -11 1263.32 357.323 3
1 1 -10 3507.5 538.634 3
1 1 -9 6625.95 708.17 3
1 1 -8 106882 3697.79 3
1 1 -7 480.555 172.508 3
1 1 -6 2553.72 348.546 3
1 1 -5 6336.41 514.525 3
1 1 -4 1605.93 144.115 4
1 1 -4 1428.3 217.039 3
-1 -1 4 1193.18 169.35 2
-1 -1 3 392644 10379.2 2
1 1 -3 384499 10473.8 3
1 1 -3 411398 10199.5 4
-1 -1 2 182559 4852.93 2
1 1 -2 188852 4896.51 3
1 1 -2 179581 4679.8 4
1 1 -1 141939 3655.13 4
-1 -1 1 140318 3769.57 2
-1 -1 0 166932 4725.26 2
1 1 0 200492 4749.44 4
-1 -1 -1 87625.5 2253.53 2
1 1 1 85602.7 2244.3 1
-1 -1 -1 83812.2 2330.96 3
-1 -1 -2 141117 3816.74 3
1 1 2 150573 3725.75 1
1 1 3 37.0691 32.1304 1
-1 -1 -3 7.70628 36.4285 3
-1 -1 -4 43756.6 1551.27 3
1 1 4 48143.3 1476.09 1
-1 -1 -5 2650.38 298.795 3
1 1 5 2719.41 258.264 1
1 1 6 9774.44 578.942 1
-1 -1 -6 9319.67 645.266 3
-1 -1 -7 74529.6 2595.92 3
1 1 7 72290.6 2408.24 1
-1 -1 -8 4823.48 531.075 3
1 1 8 4662.39 450.03 1
-1 -1 -9 3646.39 493.07 3
-1 -1 -10 449.913 200.318 3
-1 -1 -11 157.381 175.724 3
-1 -1 -12 847.017 290.786 3
-1 -1 -13 708.156 299.351 3
1 2 -12 426.618 248.97 3
1 2 -11 958.463 310.294 3
1 2 -10 4178.44 606.213 3
1 2 -9 119.994 139.962 3
1 2 -8 70528.9 2764.99 3
1 2 -7 5732.37 594.688 3
1 2 -6 14380.2 898.299 3
1 2 -6 14319 693.895 4
1 2 -5 16927 738.822 4
1 2 -5 17391.6 934.375 3
1 2 -4 282.305 117.302 3
1 2 -4 339.465 86.5355 4
1 2 -3 17120.1 666.591 4
1 2 -3 17449 800.406 3
1 2 -2 60595.8 1760.53 4
1 2 -1 10270.4 440.045 4
1 2 0 239138 6233.99 4
1 2 2 229820 6431.53 4
-1 -2 -2 244800 6482.36 3
1 2 2 251164 6280.26 1
1 2 3 5788.93 318.447 1
-1 -2 -3 6023.86 409.547 3
1 2 3 6194.72 388.629 4
1 2 4 15620.6 652.908 1
-1 -2 -4 14579.3 748.318 3
1 2 4 14905.1 505.461 2
1 2 5 2507.58 262.821 1
-1 -2 -5 2067.92 276.301 3
1 2 5 2566.98 158.849 2
-1 -2 -6 373891 10261.8 3
1 2 6 378921 9656.59 2
1 2 6 388093 10056.9 1
-1 -2 -7 22249.9 1170.66 3
-1 -2 -8 21091.9 1193.34 3
-1 -2 -9 2367.4 399.461 3
-1 -2 -10 68.7362 147.905 3
-1 -2 -11 1510.87 370.837 3
-1 -2 -12 258.212 208.525 3
-1 -2 -13 419.88 250.258 3
1 3 -11 927.756 338.741 3
1 3 -10 1740.86 403.097 3
1 3 -9 2422.35 439.769 3
1 3 -8 245.684 210.245 3
1 3 -7 40799.3 1851.12 3
1 3 -6 16101.7 977.591 3
1 3 -6 14749 783.598 4
1 3 -5 14906.5 892.544 3
1 3 -5 15141 748.273 4
-1 -3 4 7416.77 417.703 1
1 3 -4 8082.49 481.59 4
1 3 -4 6221.59 510.78 3
1 3 -3 34623.4 1224.9 4
1 3 -3 33665.3 1333.74 3
-1 -3 3 34717.8 1107.58 1
1 3 -2 106629 3030.28 4
-1 -3 2 105643 2829.31 1
-1 -3 1 182061 4633.35 1
1 3 -1 181523 4920.57 4
1 3 0 865.018 132.299 4
1 3 1 107671 3065.29 4
1 3 2 6353.31 405.655 4
-1 -3 -2 6561.65 446.538 3
1 3 3 25332.4 1023.75 4
-1 -3 -3 27709.6 1119.27 3
-1 -3 -4 13996.9 789.254 3
1 3 4 15080.5 733.193 4
1 3 5 18830.7 873.031 4
-1 -3 -5 17605.9 958.393 3
1 3 6 11843.2 534.03 2
-1 -3 -6 14010 855.502 3
1 3 6 12829 717.779 4
1 3 7 25784.3 1143.46 4
-1 -3 -7 25202.5 1313.2 3
1 3 8 7530.15 567.363 4
-1 -3 -8 7294.42 686.871 3
-1 -3 -9 496.668 249.411 3
-1 -3 -10 1315.6 358.244 3
-1 -3 -11 367.218 177.194 3
-1 -3 -12 2651.77 518.848 3
-1 -3 -13 550.215 272.188 3
1 4 -11 -25.3759 120.723 3
1 4 -10 3425.08 568.281 3
1 4 -9 184.288 118.417 3
1 4 -8 616.597 222.504 3
1 4 -7 2013.7 371.439 3
1 4 -6 880.386 191.137 4
1 4 -6 974.257 252.165 3
1 4 -5 90.5039 85.4902 4
-1 -4 5 150.739 90.4426 1
1 4 -5 116.498 103.828 3
-1 -4 4 1143.09 159.258 1
1 4 -4 960.859 210.843 3
1 4 -4 1150.99 199.969 4
1 4 -3 200415 5571.34 4
-1 -4 3 204648 5304.63 1
1 4 -2 188948 5260.62 4
-1 -4 2 195130 4942.76 1
1 4 -1 149721 4273.79 4
-1 -4 1 155704 3896.52 1
-1 -4 0 25251.4 722.936 1
1 4 0 25153 1027.06 4
1 4 1 10791.7 595.983 4
1 4 2 5573.14 419.107 4
1 4 3 4721.56 390.235 4
-1 -4 -3 4951.37 439.679 3
-1 -4 -4 45404 1752.71 3
1 4 4 44154.7 1616.76 4
1 4 5 43441.7 1602.63 4
-1 -4 -5 42244.3 1759.93 3
1 4 6 23390.5 1082.56 4
-1 -4 -6 24082.7 1257.14 3
1 4 7 3811.55 390.577 4
-1 -4 -7 3095.96 451.183 3
-1 -4 -8 720.607 242.606 3
1 4 8 629.492 182.105 4
-1 -4 -9 1019.38 274.054 3
-1 -4 -10 2776.17 500.747 3
-1 -4 -11 210.145 182.159 3
-1 -4 -12 4102.48 658.302 3
-1 -4 -13 1065.1 357.272 3
1 5 -10 3082.69 558.576 3
1 5 -9 -5.70861 100.648 3
1 5 -8 4369.22 595.949 3
1 5 -7 800.547 250.381 3
1 5 -6 7307.57 686.719 3
1 5 -6 6409.88 573.95 4
1 5 -5 5543.36 503.98 4
1 5 -5 7103.51 641.31 3
1 5 -4 1666.74 261.871 4
1 5 -4 2344.08 335.571 3
1 5 -3 7958.97 579.096 4
1 5 -2 52484.8 1865.37 4
-1 -5 2 50703.9 1481.02 1
1 5 -1 2237.11 285.544 4
-1 -5 1 1914.34 132.007 1
-1 -5 0 2515.37 152.126 1
1 5 0 2743.44 312.308 4
1 5 1 1530.14 242.775 4
1 5 2 4979.78 431.52 4
1 5 3 21312.9 1007.01 4
-1 -5 -4 4017.33 450.814 3
1 5 4 3855.67 405.631 4
-1 -5 -5 7453.73 656.065 3
1 5 5 8436.26 595.659 4
-1 -5 -6 18866.3 1154.53 3
1 5 6 19381.2 999.835 4
1 5 7 1445.47 254.223 4
-1 -5 -7 1563.56 329.367 3
1 5 8 3445.34 398.413 4
-1 -5 -8 3643.6 521.794 3
-1 -5 -9 32464.9 1796.62 3
-1 -5 -10 34552.3 1947.36 3
-1 -5 -11 194.2 201.984 3
-1 -5 -12 289.325 199.379 3
-1 -5 -13 159.986 228.206 3
1 6 -10 410.982 216.143 3
1 6 -9 720.905 292.077 3
1 6 -8 354.616 216.261 3
1 6 -7 1556.31 354.826 3
1 6 -6 1066.2 255.386 4
1 6 -6 1223.9 302.338 3
1 6 -5 2676.91 377.601 4
1 6 -5 2522.63 397.822 3
1 6 -4 9545.27 749.783 3
1 6 -4 8646.48 683.602 4
1 6 -3 9336.59 692.841 4
1 6 -2 2072.48 309.739 4
1 6 -1 14943.6 890.243 4
1 6 0 3134.58 377.546 4
1 6 1 22229.5 1117.65 4
1 6 2 15119.2 876.472 4
1 6 3 15224.2 884.037 4
1 6 4 15481.2 898.049 4
-1 -6 -5 480.807 192.711 3
1 6 5 454.119 152.6 4
1 6 6 31.3563 103.876 4
-1 -6 -6 215.773 140.335 3
1 6 7 13456.1 869.096 4
-1 -6 -7 16366.4 1130.22 3
1 6 8 7257.03 618.612 4
-1 -6 -8 7613.35 801.202 3
-1 -6 -9 107541 4056.28 3
-1 -6 -10 565.225 269.293 3
-1 -6 -11 817.357 326.411 3
-1 -6 -12 59.4014 149.669 3
1 7 -9 454.642 226.137 3
1 7 -8 253.64 191.647 3
1 7 -7 159.869 133.341 3
1 7 -6 530.572 206.93 4
1 7 -6 829.884 271.82 3
1 7 -5 570.668 208.642 4
1 7 -5 693.233 245.495 3
1 7 -4 10786.5 833.771 4
1 7 -4 11266.6 882.203 3
1 7 -3 929.764 236.674 4
1 7 -2 3022.69 406.941 4
1 7 -1 201.804 115.068 4
1 7 0 32472.7 1515.91 4
1 7 1 94084.7 3208.76 4
1 7 2 3118.95 409.547 4
1 7 3 2943.54 395.296 4
1 7 4 1752.11 307.491 4
1 7 5 21.6424 106.257 4
-1 -7 -6 19254.8 1268.31 3
1 7 6 18866.1 1094.89 4
1 7 7 257.072 134.491 4
-1 -7 -7 45.2525 136.437 3
-1 -7 -8 2005.21 444.042 3
1 7 8 1410.74 283.208 4
-1 -7 -9 578.66 286.923 3
-1 -7 -10 680.123 299.92 3
-1 -7 -11 551.352 271.138 3
1 8 -7 -63.9567 133.921 3
1 8 -6 19.4965 106.265 4
1 8 -6 108.987 112.672 3
1 8 -5 2452.67 432.357 4
1 8 -5 1677.83 378.953 3
1 8 -4 267.068 174.551 4
1 8 -4 444.007 204.836 3
1 8 -3 183.478 191.086 4
1 8 -2 867.313 260.908 4
1 8 -1 415.405 199.264 4
1 8 0 156426 4965.08 4
1 8 1 39271.1 1830.38 4
1 8 2 17832.2 1122.58 4
1 8 3 11187.4 859.579 4
1 8 4 342.412 195.792 4
1 8 5 28.1101 95.4901 4
1 8 6 399.502 160.964 4
1 8 7 269.624 148.26 4
1 8 8 6477.47 646.111 4
-1 -8 -8 5901.54 761.403 3
-1 -8 -9 1001 329.075 3
-1 -8 -10 228.993 210.82 3
-1 -8 -11 93.9295 163.001 3
1 9 -6 645.818 264.546 4
1 9 -5 254.273 195.876 3
1 9 -5 879.145 285.827 4
1 9 -4 149.81 155.921 4
1 9 -4 67.9648 123.214 3
1 9 -3 5253.21 654.751 4
1 9 -2 656.607 249.994 4
1 9 -1 720.315 239.514 4
1 9 0 2212.65 418.299 4
1 9 1 862.326 270.884 4
1 9 2 3388.09 493.444 4
1 9 3 1473.64 332.169 4
1 9 4 129.633 157.869 4
1 9 5 363.615 188.875 4
1 9 6 1034.27 279.739 4
1 9 7 235.142 179.283 4
1 9 8 355.097 184.563 4
-1 -9 -9 395.733 243.628 3
-1 -9 -10 464.874 255.061 3
1 10 -3 905.768 303.224 4
1 10 -2 173.447 121.137 4
1 10 -1 224.096 184.664 4
1 10 0 418.539 227.51 4
1 10 1 104.53 139.4 4
1 10 2 395.299 217.795 4
1 10 3 689.049 242.356 4
1 10 4 13.8309 97.7759 4
1 10 5 665.66 264.51 4
1 10 6 359.819 220.019 4
1 10 7 390.406 196.957 4
1 10 8 176.294 179.078 4
1 11 3 5622.07 738.896 4
1 11 4 1268.49 356.039 4
1 11 5 281.239 211.683 4
1 11 6 1726.97 416.359 4
-2 10 4 403.05 231.696 4
-2 10 3 925.339 303.585 4
-2 9 7 295.668 169.134 2
-2 9 6 27.2143 180.344 2
-2 9 5 83.3319 107.97 4
-2 9 4 1026.32 303.531 4
-2 9 3 890.983 277.004 4
-2 9 2 2290.18 447.9 4
-2 9 1 114.179 153.298 4
-2 9 0 520.887 236.831 4
-2 9 -1 427.896 237.455 4
-2 9 -2 511.207 258.431 4
2 -8 -9 2355.75 524.88 3
2 -8 -8 247.307 189.606 3
-2 8 7 1090.4 333.143 2
2 -8 -7 877.018 294.736 3
-2 8 6 373.15 236.242 2
-2 8 5 1314.51 300.344 4
-2 8 4 200.669 147.015 4
-2 8 3 4386.2 561.724 4
-2 8 2 765.505 247.726 4
-2 8 1 412.722 220.038 4
-2 8 0 1188.84 302.91 4
-2 8 -1 326.055 217.882 4
-2 8 -2 2053.06 426.249 4
-2 8 -3 109.597 152.17 4
-2 8 -4 1316.45 360.328 4
-2 8 -5 1933.36 442.982 4
2 -7 -10 697.353 300.737 3
2 -7 -9 1747.82 427.001 3
2 -7 -8 73.5798 182.129 3
-2 7 7 223.946 176.964 2
2 -7 -7 74.7546 149.15 3
2 -7 -6 245.513 184.485 3
-2 7 6 127.325 160.347 2
-2 7 5 5887.76 583.255 4
-2 7 4 1223.58 269.172 4
-2 7 3 23694 1305.76 4
-2 7 2 2959 423.765 4
-2 7 1 2943.75 436.055 4
-2 7 0 97.2441 141.357 4
-2 7 -1 1147.81 298.716 4
-2 7 -2 10411.4 896.277 4
-2 7 -3 453.348 188.453 4
-2 7 -4 268.517 186.289 4
-2 7 -5 633.504 254.636 4
-2 7 -6 -27.2274 116.443 4
-2 7 -7 153.047 152.519 4
2 -6 -11 287.454 245.285 3
2 -6 -10 235.768 228.696 3
2 -6 -9 99.742 181.968 3
2 -6 -8 336.148 207.012 3
-2 6 7 442.358 202.173 2
2 -6 -7 782.017 251.038 3
-2 6 6 1373.02 347.955 2
2 -6 -6 2590.06 424.757 3
2 -6 -5 4164.3 523.774 3
-2 6 5 4469.93 593.377 2
-2 6 5 5126.49 492.304 4
-2 6 4 6110.75 547.497 4
2 -6 -4 5014.99 548.101 3
-2 6 3 145.592 109.4 4
-2 6 2 370.379 159.844 4
-2 6 1 2807.01 383.525 4
-2 6 0 -15.0671 96.686 4
-2 6 -1 57361.8 2288.67 4
-2 6 -2 2063.54 366.048 4
2 -6 2 2316.64 308.204 1
-2 6 -3 1487.33 341.569 4
-2 6 -4 226.876 168.418 4
-2 6 -5 -100.37 134.133 4
-2 6 -6 694.898 231.267 4
-2 6 -7 -62.6626 162.006 4
-2 6 -8 1089.92 345.219 4
2 -5 -11 1404.82 410.762 3
2 -5 -10 49.8713 142.108 3
2 -5 -9 1725.75 426.07 3
-2 5 8 303.039 174.696 2
2 -5 -8 163.708 194.719 3
-2 5 7 39865.6 1917.03 2
2 -5 -7 38418.9 1928.45 3
2 -5 -6 25458.5 1438.55 3
-2 5 6 28336 1526.85 2
-2 5 5 11597.7 697.659 4
2 -5 -5 10953.5 831.236 3
-2 5 5 10342.2 866.111 2
-2 5 4 1804.31 266.045 4
2 -5 -4 1358.77 264.75 3
2 -5 -3 73.2114 77.925 3
-2 5 3 365.433 135.314 4
-2 5 2 154.608 110.155 4
-2 5 1 9883.79 692.136 4
-2 5 0 26793.3 1271.99 4
-2 5 -1 1885.6 306.892 4
2 -5 2 10398.9 644.297 1
-2 5 -2 10769.8 780.271 4
-2 5 -3 25473.8 1329.83 4
2 -5 3 24212.1 1084.2 1
-2 5 -4 6100.81 621.714 4
2 -5 4 6138.08 483.661 1
2 -5 5 39.3328 64.581 1
-2 5 -5 262.77 169.085 4
-2 5 -6 2163.39 404.171 4
2 -5 6 1933.97 287.647 1
-2 5 -7 596.185 229.524 4
2 -4 -12 235.444 201.637 3
2 -4 -11 371.617 227.968 3
2 -4 -10 856.956 295.746 3
2 -4 -9 1750.1 383.468 3
-2 4 8 29835.8 1549.2 2
2 -4 -8 28337.4 1606.04 3
-2 4 7 8174.89 724.61 2
2 -4 -7 6543.4 683.181 3
2 -4 -6 57876.7 2391.29 3
-2 4 6 63306.2 2444.08 2
-2 4 5 1663.98 220.393 4
-2 4 5 1046.94 259.395 2
2 -4 -5 1491.78 281.347 3
-2 4 4 26248.8 1349.43 2
2 -4 -4 26422.2 1256.49 3
-2 4 4 25345.7 1073.92 4
-2 4 3 20548.5 941.066 4
2 -4 -3 20922.8 1029.02 3
2 -4 -2 19906.9 952.049 3
-2 4 2 20588.5 952.738 4
-2 4 1 11656.3 695.132 4
-2 4 0 13824.9 785.619 4
-2 4 -1 38670.2 1568.71 4
-2 4 -2 25859.3 1231.35 4
-2 4 -3 50957.4 1990.49 4
2 -4 3 52545.4 1779.83 1
-2 4 -3 48506.9 1694.18 3
-2 4 -4 626.881 146.731 3
2 -4 4 603.822 146.658 1
-2 4 -5 3336.37 435.796 4
2 -4 5 2941.51 325.827 1
-2 4 -6 448.899 175.574 4
2 -4 6 785.085 182.767 1
2 -4 7 418.795 178.594 1
-2 4 -7 87.3384 124.569 4
2 -4 8 7058.01 611.462 1
2 -4 9 154.852 121.698 1
2 -4 10 260.63 155.947 1
2 -3 -12 -350.891 223.765 3
2 -3 -11 903.067 332.798 3
2 -3 -10 4584.48 646.14 3
2 -3 -9 4245.87 573.519 3
-2 3 8 32292 1555.84 2
2 -3 -8 29697.6 1614.52 3
-2 3 7 2386.01 384.854 2
2 -3 -7 4203.74 515.441 3
-2 3 6 71.4084 124.359 2
2 -3 -6 175.518 139.45 3
-2 3 5 37257.2 1230.33 4
2 -3 -5 35068.8 1537.65 3
-2 3 5 33821.5 1567.2 2
2 -3 -4 3602.18 386.307 3
-2 3 4 3856.4 437.303 2
-2 3 4 3152.47 269.026 4
-2 3 3 38648.1 1331.85 4
-2 3 3 38513.4 1610.11 2
2 -3 -3 37286 1464.44 3
2 -3 -2 683.976 148.151 3
-2 3 2 663.899 131.79 4
2 -3 -1 475950 12407.8 3
-2 3 1 482626 12495.6 4
-2 3 0 81090.1 2540.28 4
-2 3 -1 9819.97 613.827 4
-2 3 -2 14589.7 817.175 4
-2 3 -3 19307.1 993.076 4
-2 3 -3 17672.1 756.641 3
2 -3 3 18265.7 835.2 1
2 -3 4 16377.9 793.076 1
-2 3 -4 15152.3 747.897 3
-2 3 -4 15588.1 924.258 4
-2 3 -5 5360.47 529.457 4
-2 3 -5 4879.01 424.752 3
2 -3 5 5025.29 413.733 1
-2 3 -6 624.596 167.913 3
2 -3 6 1004.98 190.191 1
-2 3 -6 732.736 206.26 4
-2 3 -7 101.44 103.091 3
2 -3 7 -39.5554 61.7915 1
2 -3 8 -63.0745 87.7272 1
2 -3 9 1546.71 287.319 1
2 -3 10 589.494 197.52 1
2 -3 11 255.525 171.202 1
2 -3 12 155.985 150.043 1
2 -2 -12 -91.174 102.684 3
2 -2 -11 3665.29 591.842 3
2 -2 -10 9434.02 914.86 3
2 -2 -9 3841.29 547.55 3
2 -2 -8 1272.3 295.959 3
-2 2 8 785.327 204.203 2
-2 2 7 790.383 220.6 2
2 -2 -7 1164.08 263.009 3
2 -2 -6 34130 1557.64 3
-2 2 6 35738.6 1562.29 2
-2 2 5 4567.75 255.293 4
-2 2 5 4192.09 436.444 2
2 -2 -5 4895.07 458.215 3
-2 2 4 7207.38 351.42 4
-2 2 4 6270.13 532.252 2
2 -2 -4 6602.79 505.064 3
-2 2 3 283.089 69.63 4
-2 2 3 341.939 124.674 2
2 -2 -3 171.151 84.6407 3
-2 2 2 6840.07 389.448 4
2 -2 -2 7326.79 432.602 3
-2 2 2 7232.84 535.746 2
-2 2 1 341106 9046.64 4
2 -2 -1 351391 8990.89 3
-2 2 0 5941.06 401.524 4
-2 2 -1 30225.9 1171.11 4
-2 2 -2 42999.8 1301.82 3
-2 2 -2 46187.3 1601.76 4
2 -2 3 11282 597.198 1
-2 2 -3 12471.3 707.915 4
-2 2 -3 11446.5 524.871 3
-2 2 -4 91604.7 2965.17 4
-2 2 -4 91228.6 2728.23 3
2 -2 4 94279.3 2772.38 1
2 -2 5 889.794 173.191 1
-2 2 -5 673.962 168.586 3
2 -2 6 5698.88 455.097 1
-2 2 -6 5041.51 454.861 3
-2 2 -7 138.767 107.634 3
2 -2 7 39.0084 78.9375 1
2 -2 8 1449.66 263.079 1
-2 2 -8 1695.82 313.451 3
2 -2 9 806.116 212.885 1
-2 2 -9 681.641 218.398 3
2 -2 10 726.913 215.347 1
2 -2 11 6019.75 649.231 1
2 -2 12 191.197 161.736 1
2 -1 -12 1094.07 369.896 3
2 -1 -11 286.333 176.064 3
2 -1 -10 9126.87 903.856 3
2 -1 -9 8727.71 836.667 3
-2 1 8 4562.35 470.126 2
2 -1 -8 3800 510.359 3
-2 1 7 6225.87 551.914 2
2 -1 -7 6753.14 631.909 3
-2 1 6 46530.1 1820.24 2
2 -1 -6 46914.9 1877.56 3
-2 1 5 20396 1031.41 2
2 -1 -5 20733.4 1036.69 3
-2 1 4 277650 7295.21 4
-2 1 4 290585 7908.23 2
2 -1 -4 289932 7813.55 3
2 -1 -3 1162.52 177.382 3
-2 1 3 1249.3 105.636 4
-2 1 3 767.47 166.551 2
-2 1 2 15209 787.294 2
2 -1 -2 15412.5 674.134 3
-2 1 2 16331.8 580.457 4
2 -1 -1 3562.45 227.831 3
-2 1 1 3387.48 320.341 2
-2 1 1 3914.27 260.339 4
-2 1 0 424.972 116.203 2
-2 1 0 346.964 84.2697 4
2 -1 0 289.895 45.7379 3
-2 1 -1 30800.4 1116.05 4
2 -1 2 107.437 62.542 1
-2 1 -2 145.511 38.2469 3
-2 1 -2 161.71 73.4269 4
2 -1 3 14218.9 665.992 1
-2 1 -3 15973.5 604.471 3
-2 1 -4 42717.2 1440.84 3
2 -1 4 43676.3 1464.12 1
2 -1 5 158649 4434.2 1
-2 1 -5 156027 4454.58 3
2 -1 6 1260.43 204.337 1
-2 1 -6 1808.52 266.057 3
-2 1 -7 5709.97 511.217 3
2 -1 7 5459 466.176 1
-2 1 -8 7043.13 618.188 3
2 -1 8 6053.63 532.952 1
-2 1 -9 11074.5 858.479 3
2 -1 9 12049.3 803.973 1
2 -1 10 23101.6 1256.59 1
-2 1 -10 22245.3 1358.31 3
2 -1 11 20056 1225.67 1
-2 1 -11 20229.2 1362.41 3
2 -1 12 364.558 194.266 1
2 0 -12 252.809 214.773 3
2 0 -11 17.2071 107.101 3
2 0 -10 6210.64 739.533 3
2 0 -9 3136.27 484.376 3
-2 0 8 5141.79 488.163 2
2 0 -8 4251.34 540.362 3
-2 0 7 4231.01 427.827 2
2 0 -7 3507.48 461.24 3
2 0 -6 3812.74 436.617 3
-2 0 6 4104.37 410.493 2
2 0 -5 94339.8 2994.59 3
-2 0 5 89451.6 2927.22 2
2 0 -4 1023.09 203.446 3
-2 0 4 772.117 188.264 2
-2 0 3 208596 5790.78 2
2 0 -3 208031 5689.97 3
2 0 -2 61973.5 1874.08 3
-2 0 2 60551.3 2012.92 2
-2 0 1 133041 3801.57 2
2 0 -1 141449 3601.43 3
2 0 0 139732 3513.79 3
-2 0 0 134603 3789.75 2
-2 0 -1 115639 3236.46 2
2 0 2 414491 10889.8 1
-2 0 -2 431931 10900.3 2
2 0 3 87684.2 2542.93 1
-2 0 -3 89012.7 2471.94 3
2 0 4 85452.3 2493.33 1
-2 0 -4 84660.7 2504.7 3
-2 0 -5 21846.8 948.997 3
2 0 5 20915 898.901 1
2 0 6 27484.8 1133.76 1
-2 0 -6 28188.3 1221.18 3
2 0 7 1223.52 206.103 1
-2 0 -7 1242.76 236.674 3
-2 0 -8 200.12 145.305 3
2 0 8 75.8642 78.6686 1
-2 0 -9 753.672 228.279 3
2 0 9 771.74 219.241 1
2 0 10 44644.6 1889.14 1
-2 0 -10 43714.6 2046.06 3
2 0 11 2509.31 412.776 1
-2 0 -11 2949.56 498.386 3
-2 0 -12 1025.89 309.368 3
-2 0 -13 -260.602 187.533 3
2 1 -12 991.589 333.707 3
2 1 -11 1224.71 352 3
2 1 -10 936.196 330.131 3
2 1 -9 764.41 247.881 3
2 1 -8 4451.42 558.998 3
2 1 -7 17839.5 1122.42 3
-2 -1 7 21800.5 1052.81 2
-2 -1 6 7903.69 569.112 2
2 1 -6 6647 596.871 3
-2 -1 5 4466.27 407.673 2
2 1 -5 4573.64 453.573 3
2 1 -4 141661 4120.58 3
-2 -1 4 138817 4058.19 2
2 1 -4 134085 3587.51 4
2 1 -3 3215.12 148.871 4
-2 -1 3 3153.6 310.374 2
2 1 -3 2854.71 294.189 3
2 1 -2 56282 1498.12 4
-2 -1 2 54682.3 1805.12 2
2 1 -2 54305.7 1725.39 3
-2 -1 1 15278.3 696.201 2
2 1 -1 14867.4 605.459 3
-2 -1 0 727649 18570.5 2
-2 -1 -1 175448 4684.95 2
2 1 3 82537.7 2306.65 1
-2 -1 -3 82667 2195.15 2
-2 -1 -3 78739.1 2350.08 3
2 1 4 9877.15 493.442 1
-2 -1 -4 9068.84 511.477 3
-2 -1 -5 33189.2 1300.92 3
2 1 5 34901.4 1241.35 1
-2 -1 -6 25843.4 1162.33 3
2 1 6 25962.9 1069.53 1
-2 -1 -7 243.036 126.783 3
2 1 7 251.104 99.3172 1
2 1 8 185.386 116.812 1
-2 -1 -8 32.1624 91.8197 3
2 1 9 2410.68 348.654 1
-2 -1 -9 2155.02 384.276 3
-2 -1 -10 841.241 251.659 3
2 1 10 942.604 225.76 1
2 1 11 1970.8 357.204 1
-2 -1 -11 2749.66 475.028 3
-2 -1 -12 95.482 112.039 3
-2 -1 -13 -151.488 163.028 3
2 2 -11 2884.75 547.849 3
2 2 -10 2423.6 473.669 3
2 2 -9 1173.91 344.445 3
2 2 -8 3752.41 511.832 3
2 2 -7 1790.02 350.365 3
2 2 -6 27636.4 1379.22 3
2 2 -5 31417.1 1435.76 3
2 2 -5 33554.8 1091.56 4
2 2 -4 569.693 160.713 3
2 2 -4 704.876 101.756 4
-2 -2 4 614.546 148.736 2
2 2 -3 67779.3 1931.53 4
-2 -2 3 67694.9 2181.41 2
2 2 -3 70054.1 2228.62 3
2 2 -2 58828.4 1694.03 4
-2 -2 2 57105.2 1881.34 2
2 2 -2 60768.3 1909.14 3
-2 -2 1 210593 5749.48 2
2 2 -1 216489 5629.32 4
-2 -2 0 62500.4 1860.92 2
2 2 0 60703.5 1848.86 4
-2 -2 -3 245095 6708.6 3
2 2 3 253884 6531.99 1
2 2 4 1482.18 167.332 1
-2 -2 -4 1473.93 207.704 3
-2 -2 -5 13120.3 743.851 3
2 2 5 12415.1 617.662 1
-2 -2 -6 8239.42 600.654 3
2 2 6 7558.89 498.553 1
2 2 7 1979.23 268.768 1
-2 -2 -7 2103.97 317.997 3
2 2 8 1602.67 258.633 1
-2 -2 -8 1630.78 313.323 3
2 2 9 5199.92 503.755 1
-2 -2 -9 5159.08 581.593 3
2 2 10 233.484 134.692 1
-2 -2 -10 -32.4174 117.155 3
-2 -2 -11 4642.26 643.244 3
-2 -2 -12 352.213 208.332 3
-2 -2 -13 544.904 262.681 3
2 3 -11 897.31 317.816 3
2 3 -10 685.345 282.541 3
2 3 -9 1553.73 365.508 3
2 3 -8 198.248 187.065 3
2 3 -7 196713 6042.13 3
2 3 -6 28971 1454.41 3
2 3 -5 6664.53 417.68 4
2 3 -5 6090.38 563.671 3
2 3 -4 24043.9 1157.87 3
2 3 -4 24002.3 915.273 4
2 3 -3 43015.6 1388.16 4
2 3 -3 40232.3 1577.74 3
2 3 -2 47506.2 1516.17 4
2 3 -1 6741.2 409.369 4
2 3 0 55606.7 1761.6 4
2 3 1 7023.37 454.459 4
2 3 1 7407.68 261.054 1
2 3 2 2954.88 294.983 4
2 3 2 3103.06 180.07 1
2 3 3 95729.5 2952.89 4
-2 -3 -3 97242.4 2955.5 3
2 3 3 96550.9 2661.91 1
-2 -3 -4 30969.2 1304.57 3
2 3 4 33661.7 1113.72 1
2 3 4 30339.1 1277.77 4
2 3 5 4301.71 332.769 1
-2 -3 -5 4677.09 450.413 3
-2 -3 -6 66374.9 2414.51 3
2 3 6 67268.6 2164.05 1
-2 -3 -7 4649.33 501.548 3
2 3 7 4216.52 389.397 1
-2 -3 -8 1729.08 328.074 3
2 3 8 1663.69 261.068 1
-2 -3 -9 891.619 251.543 3
-2 -3 -10 2361.67 432.275 3
-2 -3 -11 3572.8 572.11 3
-2 -3 -12 287.702 215.633 3
-2 -3 -13 3731.25 642.193 3
2 4 -11 731.866 315.141 3
2 4 -10 5515.12 745.592 3
2 4 -9 474.252 239.389 3
2 4 -8 5292.91 660.54 3
2 4 -7 72007.3 2843.66 3
2 4 -6 1696.12 335.324 3
2 4 -5 3853.96 355.995 4
2 4 -5 3580.64 442.859 3
2 4 -4 14246.6 720.889 4
2 4 -4 14125.5 878.913 3
2 4 -3 4887.71 379.526 4
2 4 -2 93570.2 2809.59 4
2 4 -1 8613.12 524.156 4
2 4 0 448.599 124.546 4
2 4 1 851.028 159.936 4
2 4 2 5663.28 447.711 4
2 4 3 14215.4 775.45 4
-2 -4 -4 7766.33 589.809 3
2 4 4 6712.21 525.2 4
-2 -4 -5 64985.5 2397.65 3
2 4 5 69676.2 2348.51 4
2 4 6 14318.9 855.511 4
-2 -4 -6 14948.5 951.323 3
2 4 7 25442 1237.91 4
-2 -4 -7 24335.9 1349.53 3
2 4 8 11870.3 803.386 4
-2 -4 -8 12033.4 930.088 3
2 4 9 2127.84 344.599 4
-2 -4 -9 2546.28 444.714 3
-2 -4 -10 511.474 224.773 3
-2 -4 -11 1309.36 365.699 3
-2 -4 -12 541.613 260.911 3
-2 -4 -13 4436.22 723.869 3
2 5 -10 2693.75 537.499 3
2 5 -9 174.466 155.095 3
2 5 -8 45.7944 94.4935 3
2 5 -7 926.772 274.49 3
2 5 -6 3309.69 480.275 3
2 5 -5 7732.31 576.136 4
2 5 -5 7725.5 692.627 3
2 5 -4 1019.8 240.453 3
2 5 -4 868.676 178.107 4
2 5 -3 34598.4 1388.31 4
2 5 -2 5325.66 449.655 4
2 5 -1 51144.5 1827.65 4
2 5 0 4711.43 420.337 4
2 5 1 7.21896 65.2127 4
2 5 2 16642.1 875.258 4
2 5 3 12703.3 759.141 4
2 5 4 131175 4005.55 4
2 5 5 57458.2 2092.85 4
-2 -5 -5 54384 2186.82 3
2 5 6 342.406 134.735 4
-2 -5 -6 31.1054 93.3138 3
2 5 7 1503.56 285.732 4
-2 -5 -7 1348.53 312.765 3
2 5 8 703.378 197.468 4
-2 -5 -8 848.879 266.04 3
2 5 9 2146.85 348.785 4
-2 -5 -9 1713.81 384.223 3
-2 -5 -10 1040.6 342.658 3
-2 -5 -11 321.214 211.847 3
-2 -5 -12 3029.72 589.783 3
-2 -5 -13 664.616 309.801 3
2 6 -9 555.169 273.411 3
2 6 -8 86.7732 101.059 3
2 6 -7 -67.8369 133.954 3
2 6 -6 1053.61 317.037 3
2 6 -5 94.7569 135.382 3
2 6 -5 88.3107 81.6559 4
2 6 -4 7226.7 596.517 4
2 6 -4 7008.2 670.973 3
2 6 -3 74.7034 80.4329 4
2 6 -2 5779.57 511.59 4
2 6 -1 16863.5 935.028 4
2 6 0 2875.08 353.699 4
2 6 1 2769.93 367.267 4
2 6 2 939.958 225.492 4
2 6 3 5443.98 504.487 4
2 6 4 109921 3533.57 4
2 6 5 1495.73 273.044 4
-2 -6 -6 2338.85 400.23 3
2 6 6 2899.85 392.054 4
2 6 7 2043.71 341.259 4
-2 -6 -7 1902.35 375.729 3
-2 -6 -8 164.834 146.406 3
2 6 8 231.518 155.124 4
2 6 9 1839.13 333.301 4
-2 -6 -9 1421.45 373.542 3
-2 -6 -10 10650.5 1039.13 3
-2 -6 -11 393.132 264.085 3
-2 -6 -12 5959.08 839.605 3
2 7 -8 216.059 164.687 3
2 7 -7 -8.98373 136.906 3
2 7 -6 1821.05 395.501 3
2 7 -5 8971.74 735.799 4
2 7 -5 7715.84 784.314 3
2 7 -4 18494.8 1199.38 3
2 7 -4 18936.8 1110.11 4
2 7 -3 -45.4719 59.2241 4
2 7 -2 830.981 210.068 4
2 7 -1 332.961 165.336 4
2 7 0 5228.64 536.933 4
2 7 1 74784.8 2684.07 4
2 7 2 211.966 148.276 4
2 7 3 141.255 120.383 4
2 7 4 1231.44 265.921 4
2 7 5 19.249 148.845 4
2 7 6 14728.3 964.82 4
2 7 7 2074.64 343.659 4
-2 -7 -7 3095.03 506.125 3
2 7 8 467.382 177.158 4
-2 -7 -8 283.979 159.227 3
2 7 9 955.609 254.485 4
-2 -7 -9 780.537 305.122 3
-2 -7 -10 7563.3 891.816 3
-2 -7 -11 1797.21 472.137 3
-2 -7 -12 240.842 278.465 3
2 8 -7 2409.82 487.117 3
2 8 -6 821.543 288.695 3
2 8 -5 3570.57 503.007 4
2 8 -5 5547.22 676.955 3
2 8 -4 5727.24 623.126 4
2 8 -4 6298.8 708.051 3
2 8 -3 264.996 157.278 4
2 8 -2 1232.62 283.395 4
2 8 -1 2798.06 417.189 4
2 8 0 146.122 161.535 4
2 8 1 -158.293 182.529 4
2 8 2 578.571 229.913 4
2 8 3 56725.7 2320.95 4
2 8 4 103.293 155.582 4
2 8 5 4848.73 560.697 4
2 8 6 131.914 93.1631 4
2 8 7 2721.76 423.801 4
-2 -8 -8 143.885 187.839 3
2 8 8 175.459 148.842 4
2 8 9 1180.65 289.513 4
-2 -8 -9 1148.58 355.382 3
-2 -8 -10 7230.86 905.502 3
-2 -8 -11 579.049 302.33 3
2 9 -6 -181.974 163.562 3
2 9 -5 10.0799 132.65 4
2 9 -5 -20.7568 102.199 3
2 9 -4 138.236 142.144 4
2 9 -4 117.457 142.578 3
2 9 -3 2089.87 397.003 4
2 9 -2 347.543 208.318 4
2 9 -1 144.557 137.321 4
2 9 0 -16.9149 119.381 4
2 9 1 6024.35 663.475 4
2 9 2 541.657 218.556 4
2 9 3 302.582 188.676 4
2 9 4 38.7001 110.126 4
2 9 5 657.546 239.539 4
2 9 6 103.593 157.153 4
2 9 7 7304.33 746.08 4
2 9 8 4425.79 589.756 4
2 9 9 86.1303 124.065 4
-2 -9 -10 225.351 248.58 3
2 10 -4 881.893 313.116 4
2 10 -4 2572.61 508.81 3
2 10 -3 991.613 310.797 4
2 10 -2 747.053 283.991 4
2 10 -1 1045.96 311.929 4
2 10 0 -99.4637 118.14 4
2 10 1 2530.86 454.109 4
2 10 2 1970.04 396.894 4
2 10 3 671.066 243.857 4
2 10 4 203.907 177.744 4
2 10 5 671.754 262.239 4
2 10 6 5079.31 659.979 4
2 10 7 1630.34 386.283 4
2 10 8 438.032 223.479 4
2 10 9 223.043 162.483 4
2 11 1 2280.19 468.055 4
2 11 2 408.331 215.932 4
2 11 3 699.755 282.974 4
2 11 4 1389.6 371.95 4
2 11 5 179.594 182.745 4
2 11 6 -185.447 184.968 4
2 11 7 -91.1359 169.347 4
-3 9 3 589.046 242.142 4
-3 9 2 1384.84 366.601 4
-3 9 1 164.064 224.923 4
-3 8 7 98.5053 165.699 2
-3 8 6 259.956 208.592 2
-3 8 5 128.578 168.932 2
-3 8 4 217.692 169.746 4
-3 8 3 1140.17 310.314 4
-3 8 2 452.182 225.87 4
-3 8 1 166.682 149.526 4
-3 8 0 204.705 184.163 4
-3 8 -1 2738.47 497.084 4
-3 8 -2 528.309 254.096 4
-3 8 -3 211.892 164.942 4
3 -7 -10 428.021 250.746 3
-3 7 8 9762.28 1052.11 2
-3 7 7 956.031 339.45 2
-3 7 6 4174.98 672.263 2
-3 7 5 368.798 228.852 2
-3 7 4 -81.8918 106.579 4
-3 7 4 126.286 143.153 2
-3 7 3 -31.9928 80.2678 4
-3 7 2 1130.07 287.721 4
-3 7 1 203.195 154.892 4
-3 7 0 253.929 179.55 4
-3 7 -1 2409.25 438.59 4
-3 7 -2 767.928 255.489 4
-3 7 -3 99.657 110.276 4
-3 7 -4 1209.55 343.95 4
-3 7 -5 458.863 246.771 4
3 -6 -10 46.8626 143.637 3
3 -6 -9 1216.73 358.21 3
3 -6 -8 796.562 292.995 3
-3 6 8 1406.33 376.692 2
-3 6 7 1129.28 348.032 2
3 -6 -7 879.986 277.636 3
-3 6 6 719.849 283.888 2
3 -6 -6 302.887 170.649 3
-3 6 5 1067.22 353.402 2
-3 6 4 4113.44 472.114 4
-3 6 4 4048.9 611.552 2
-3 6 3 2220.39 358.939 4
-3 6 2 256.262 147.281 4
-3 6 1 185.661 156.407 4
-3 6 0 288.216 158.469 4
-3 6 -1 160.836 142.807 4
-3 6 -2 106.849 186.056 4
3 -6 2 70.6212 87.5134 1
3 -6 3 14598.6 890.41 1
-3 6 -3 15453.4 1137.12 4
-3 6 -4 9844.26 910.232 4
-3 6 -5 102.458 126.643 4
-3 6 -6 1691.51 396.484 4
-3 6 -7 1017.06 346.342 4
3 -5 -11 1767.44 464.898 3
3 -5 -10 -39.9693 124.424 3
3 -5 -9 159.065 139.113 3
-3 5 8 632.976 250.779 2
3 -5 -8 483.614 243.032 3
-3 5 7 1179.12 335.778 2
3 -5 -7 849.835 263.373 3
3 -5 -6 14141.8 1034.01 3
-3 5 6 16688.5 1215.77 2
-3 5 5 2908.96 483.758 2
3 -5 -5 2841.11 415.846 3
-3 5 4 2904.68 355.26 4
3 -5 -4 2306.51 349.939 3
-3 5 4 1880.54 383.101 2
-3 5 3 438.419 158.758 4
-3 5 3 794.824 236.321 2
-3 5 2 8361.61 651.153 4
-3 5 1 3307.2 412.131 4
-3 5 0 4520.57 496.47 4
-3 5 -1 47835.5 2008.54 4
-3 5 -2 193.107 203.159 4
3 -5 3 177442 5192.29 1
-3 5 -3 176441 5552.26 4
3 -5 4 27794.7 1280.94 1
-3 5 -4 27228.4 1537.73 4
-3 5 -5 1537.67 366.096 4
3 -5 5 1198.28 239.032 1
3 -5 6 632.113 188.354 1
-3 5 -6 674.267 240.726 4
3 -5 7 130.357 111.905 1
3 -4 -11 424.009 252.558 3
3 -4 -10 674.882 248.374 3
3 -4 -9 559.096 251.07 3
-3 4 8 472.341 219.238 2
3 -4 -8 577.44 243.562 3
-3 4 7 900.856 267.801 2
3 -4 -7 997.058 273.44 3
-3 4 6 1036.77 288.785 2
3 -4 -6 907.512 262.379 3
3 -4 -5 44384.8 1900.46 3
-3 4 5 44542.2 2075.36 2
-3 4 4 3978.05 374.376 4
3 -4 -4 3700.51 431.661 3
-3 4 4 4030.93 523.812 2
-3 4 3 11243.5 695.436 4
3 -4 -3 11826.8 741.49 3
-3 4 3 13026.7 976.294 2
-3 4 2 2424.84 313.484 4
3 -4 -2 1782.81 249.959 3
-3 4 1 2204.63 309.342 4
-3 4 0 10472.1 722.63 4
-3 4 -1 18868.8 1065.36 4
-3 4 -2 142.318 131 4
-3 4 -3 5998.42 602.294 4
3 -4 3 6544.05 522.078 1
3 -4 4 3105.15 355.092 1
-3 4 -4 2857.8 431.783 4
-3 4 -5 549.721 191.714 4
3 -4 5 346.271 126.225 1
-3 4 -6 2501.29 432.285 4
3 -4 6 3430.47 395.98 1
3 -4 7 4999.31 504.995 1
3 -4 8 776.449 210.328 1
3 -4 9 115.091 86.2 1
3 -4 10 605.142 217.568 1
3 -3 -11 853.026 302.118 3
3 -3 -10 274.154 168.813 3
3 -3 -9 781.389 290.879 3
-3 3 8 4309.55 561.347 2
3 -3 -8 3580.37 522.365 3
-3 3 7 12336.5 968.33 2
3 -3 -7 13501.3 974.907 3
-3 3 6 288283 8257.66 2
3 -3 -6 278306 8074.93 3
3 -3 -5 180453 5284.51 3
-3 3 5 171245 5477.36 2
-3 3 4 37855.3 1351.69 4
-3 3 4 35539 1725.32 2
3 -3 -4 38732 1562.22 3
-3 3 3 4579.04 375.672 4
3 -3 -3 4904.47 431.887 3
-3 3 3 4687.85 531.356 2
3 -3 -2 11232.3 629.585 3
-3 3 2 11325 828.239 2
-3 3 2 10895 636.662 4
-3 3 1 35.0617 56.2543 4
3 -3 -1 51.7832 48.898 3
-3 3 0 25501.2 1166.53 4
-3 3 -1 526.878 154.48 4
-3 3 -2 13143.2 830.434 4
3 -3 3 8104.39 578.388 1
-3 3 -3 7675.48 646.839 4
3 -3 4 20143.2 961.207 1
-3 3 -4 17546.7 1064.83 4
-3 3 -5 63.8746 111.339 4
3 -3 5 48.6487 80.3254 1
3 -3 6 95.206 85.7851 1
3 -3 7 143.58 108.707 1
3 -3 8 1373.74 262.099 1
3 -3 9 2055.64 359.182 1
3 -3 10 552.747 217.622 1
3 -3 11 -11.5743 94.9961 1
3 -2 -11 377.648 233.148 3
3 -2 -10 6.10455 129.353 3
3 -2 -9 1281.61 328.737 3
3 -2 -8 7323.59 742.038 3
-3 2 8 8798.25 773.913 2
3 -2 -7 408.329 215.275 3
-3 2 7 240.005 154.384 2
-3 2 6 6688.08 655.472 2
3 -2 -6 6323.5 595.804 3
-3 2 5 437.611 178.86 2
3 -2 -5 552.326 161.545 3
-3 2 4 39674.9 1736.25 2
3 -2 -4 40602.6 1566.91 3
-3 2 4 38440.1 1274.06 4
-3 2 3 21297.3 859.368 4
3 -2 -3 21558.8 962.901 3
-3 2 3 22090.9 1188.49 2
3 -2 -2 24261.6 964.879 3
-3 2 2 23429.2 1205.25 2
-3 2 2 23101.1 951.042 4
3 -2 -1 45309.2 1437.93 3
-3 2 1 45602.3 1834.61 2
-3 2 1 44960.3 1583.19 4
-3 2 0 69400.4 2365.3 2
-3 2 0 61378.7 2118.61 4
-3 2 -1 5217.17 443.366 4
-3 2 -2 2673.37 153.284 3
-3 2 -2 2555.45 321.625 4
3 -2 3 20212.9 923.521 1
-3 2 -3 19174.6 682.262 3
-3 2 -3 18320.3 993.785 4
3 -2 4 8912.11 583.837 1
-3 2 -4 9464.59 477.599 3
3 -2 5 1657.5 244.951 1
3 -2 6 23888.7 1106.8 1
3 -2 7 3225.98 382.476 1
3 -2 8 168.565 109.734 1
3 -2 9 1729.34 316.006 1
3 -2 10 -52.5132 84.1402 1
3 -2 11 639.731 224.29 1
3 -2 12 218.527 173.687 1
3 -1 -12 785.25 332.624 3
3 -1 -11 121.909 144.753 3
3 -1 -10 -1.79692 104.607 3
3 -1 -9 8399.07 849.743 3
3 -1 -8 733.094 239.586 3
-3 1 8 635.592 210.11 2
3 -1 -7 470.914 168.642 3
-3 1 7 380.025 159.532 2
-3 1 6 5167.12 542.615 2
3 -1 -6 5358.99 533.825 3
-3 1 5 18319.3 1091.53 2
3 -1 -5 22230.1 1095.21 3
-3 1 4 10224.4 759.795 2
3 -1 -4 11611.1 695.961 3
-3 1 3 5832.15 531.514 2
3 -1 -3 6408.26 454.689 3
-3 1 2 16649.9 943.074 2
3 -1 -2 17314.7 744.618 3
-3 1 1 3109.59 364.08 2
3 -1 -1 3880.56 255.549 3
-3 1 0 1847.98 279.91 2
3 -1 0 2700.19 159.162 3
-3 1 -1 117.385 91.1321 2
3 -1 3 228.952 90.2222 1
-3 1 -3 200.785 46.5837 3
3 -1 4 124333 3617.19 1
-3 1 -4 122899 3399.59 3
-3 1 -5 19639.4 861.619 3
3 -1 5 21495.3 954.924 1
-3 1 -6 100118 3054.61 3
3 -1 6 98470.2 3084.41 1
-3 1 -7 5.48772 64.3521 3
3 -1 7 81.7437 61.6638 1
3 -1 8 576.043 174.076 1
3 -1 9 1366.29 277.367 1
3 -1 10 95.3818 115.3 1
3 -1 11 486.236 209.263 1
3 -1 12 671.25 258.222 1
3 0 -11 53.2269 181.274 3
3 0 -10 1050.99 312.536 3
-3 0 9 6200.75 613.663 2
3 0 -9 4502.4 620.341 3
3 0 -8 2330.3 405.18 3
-3 0 8 2895.84 409.449 2
3 0 -7 1560.64 313.172 3
-3 0 7 1483.59 286.644 2
-3 0 6 6699.89 606.957 2
3 0 -6 6758.94 614.674 3
-3 0 5 7465.74 619.153 2
3 0 -5 6281.03 551.066 3
3 0 -4 2239.93 291.51 3
-3 0 4 2184.81 321.476 2
-3 0 3 191068 5554.7 2
3 0 -3 192019 5339.69 3
-3 0 2 67355.5 2392.4 2
3 0 -2 72311.9 2161.09 3
-3 0 1 11873.1 697.559 2
3 0 -1 10386.3 486.804 3
-3 0 0 26783.1 1139.52 2
3 0 0 26363.5 832.593 3
-3 0 -1 6333.8 464.198 2
-3 0 -2 21277 931.127 2
-3 0 -3 150073 3979.55 3
-3 0 -3 151615 4231.56 2
3 0 3 148883 4209.77 1
3 0 4 25251.9 1020.62 1
-3 0 -4 24620.8 914.57 3
-3 0 -4 24951 990.959 2
-3 0 -5 14203.7 692.278 3
3 0 5 14295.3 722.871 1
-3 0 -6 4498.92 399.019 3
3 0 6 4799.59 420.901 1
3 0 7 1255.25 224.929 1
-3 0 -7 1194.23 223.335 3
-3 0 -8 6512.42 583.623 3
3 0 8 6824.89 582.21 1
3 0 9 1833.84 322.249 1
-3 0 -9 1728.36 328.693 3
3 0 10 11107.1 828.533 1
3 0 11 1351.04 316.621 1
3 0 12 2573.86 446.709 1
3 1 -11 425.072 233.211 3
3 1 -10 25.6142 152.172 3
3 1 -9 2326.22 452.455 3
-3 -1 9 1564.75 310.966 2
-3 -1 8 4060.53 471.962 2
3 1 -8 3378.69 500.863 3
3 1 -7 364.617 189.422 3
-3 -1 7 318.603 161.108 2
-3 -1 6 13932 883.124 2
3 1 -6 14340.7 939.171 3
-3 -1 5 50367 1967.4 2
3 1 -5 50921.8 1977.37 3
-3 -1 4 15470.1 894.025 2
3 1 -4 14864.3 846.61 3
-3 -1 3 768026 20495.7 2
3 1 -3 808057 20372.5 3
-3 -1 2 51698.5 1921.35 2
3 1 -2 55199.8 1778.26 3
3 1 -1 1398.97 167.511 3
-3 -1 1 1377.85 219.862 2
-3 -1 0 3078.39 313.716 2
-3 -1 -1 60210.3 1967.7 2
3 1 2 161016 4414.04 1
-3 -1 -2 162766 4489.17 2
3 1 3 36644.3 1254.1 1
-3 -1 -3 36336.5 1192.75 3
-3 -1 -3 35689.3 1243.84 2
-3 -1 -4 1665.19 177.323 2
-3 -1 -4 2052.78 224.101 3
3 1 4 2099.35 227.832 1
-3 -1 -5 51038.8 1517.56 2
-3 -1 -5 50480.9 1742.54 3
3 1 5 49453.5 1695.28 1
-3 -1 -6 8309.11 585.13 3
3 1 6 10217 607.848 1
-3 -1 -7 4214.53 440.191 3
3 1 7 4796.67 422.215 1
3 1 8 303.989 132.146 1
-3 -1 -8 248.389 128.051 3
3 1 9 462.411 160.72 1
-3 -1 -9 195.362 126.657 3
3 1 10 537.676 203.248 1
-3 -1 -10 -18.7001 140.992 3
-3 -1 -11 9441.01 878.196 3
3 1 11 9013.14 785.23 1
3 1 12 6742.3 701.607 1
3 2 -11 260.073 206.865 3
3 2 -10 814.813 303.36 3
3 2 -9 616.276 242.367 3
3 2 -8 1151.95 298.106 3
3 2 -7 1276.23 313.218 3
-3 -2 7 1917.59 312.936 2
-3 -2 6 112600 3501.3 2
3 2 -6 100824 3581.44 3
-3 -2 5 11527.1 761.328 2
3 2 -5 12075.9 814.602 3
3 2 -4 54.1328 75.1949 3
3 2 -4 259.089 54.2484 4
-3 -2 4 250.539 116.934 2
3 2 -3 23101.1 777.687 4
-3 -2 3 22680 1082.46 2
3 2 -3 23862.1 1061.43 3
3 2 -2 344.663 78.8849 4
3 2 -2 215.725 73.7524 3
-3 -2 2 393.345 132.719 2
-3 -2 1 32031.5 1293.19 2
3 2 -1 34297 1161.38 4
-3 -2 0 14513.1 723.75 2
-3 -2 -1 439936 11465.6 2
3 2 2 762.909 118.619 1
-3 -2 -2 1092.9 157.773 2
-3 -2 -3 23893.7 973.088 3
-3 -2 -3 26070.3 886.553 2
3 2 3 23994.4 895.545 1
-3 -2 -4 2862.65 192.78 2
-3 -2 -4 2987.1 300.606 3
3 2 4 3138.66 267.097 1
3 2 5 1071.97 168.33 1
-3 -2 -5 757.223 171.597 3
-3 -2 -6 14041.8 827.305 3
3 2 6 13761 723.932 1
-3 -2 -7 4036.88 446.689 3
3 2 7 3126.72 340.02 1
3 2 8 2677.57 332.046 1
-3 -2 -8 2450.76 372.187 3
-3 -2 -9 19958.9 1192.49 3
3 2 9 18225.1 1023.34 1
3 2 10 1046.49 250.368 1
-3 -2 -10 870.998 283.834 3
3 2 11 4567.74 538.001 1
-3 -2 -11 4308.79 625.44 3
-3 -2 -12 3725.25 593.847 3
3 2 12 2818.38 449.37 1
-3 -2 -13 114.657 125.986 3
3 3 -11 3715.9 656.304 3
3 3 -10 1453.67 393.99 3
3 3 -9 3670.07 590.089 3
3 3 -8 3574.9 548.582 3
3 3 -7 25853.9 1485.29 3
3 3 -6 47638.6 2068.87 3
3 3 -5 569.297 188.61 3
3 3 -4 36681.1 1220.28 4
3 3 -4 36518.7 1559.43 3
3 3 -3 19034 777.134 4
-3 -3 3 21131.4 1013.59 2
3 3 -3 21869.2 1052.24 3
3 3 -2 5569.33 360.24 4
-3 -3 2 5977.45 469.862 2
-3 -3 1 9617.56 574.588 2
3 3 -1 8804.44 498.996 4
3 3 0 3488.78 327.622 4
-3 -3 0 3112.49 311.724 2
3 3 1 14640.5 738.361 4
3 3 1 13557.2 514.429 1
-3 -3 -1 13208.6 645.577 2
3 3 2 21205.7 976.722 4
3 3 2 21118.5 732.111 1
3 3 3 116634 3199.99 1
3 3 4 794.871 124.302 1
-3 -3 -4 650.971 159.517 3
3 3 5 165.888 68.8409 1
-3 -3 -5 -3.3178 76.5509 3
-3 -3 -6 10389.1 729.206 3
3 3 6 9172.7 564.451 1
3 3 7 178.667 93.5678 1
-3 -3 -7 152.061 147.436 3
3 3 8 43336.2 1717.2 1
-3 -3 -8 46716.1 1992.41 3
-3 -3 -9 17167.3 1144.72 3
3 3 9 15794.1 930.722 1
3 3 10 45.8587 103.93 1
-3 -3 -10 110.27 123.87 3
3 3 11 111.104 126.624 1
-3 -3 -11 191.336 193.089 3
-3 -3 -12 341.274 233.155 3
-3 -3 -13 -13.4622 144.167 3
-3 -3 -14 205.283 256.038 3
3 4 -10 578.691 256.165 3
3 4 -9 1330.78 366.968 3
3 4 -8 9059.11 889.789 3
3 4 -7 43.272 123.807 3
3 4 -6 13107.4 989.771 3
3 4 -5 30852.7 1517.97 3
3 4 -4 206.672 93.8275 4
3 4 -4 246.533 132.824 3
3 4 -3 245.945 90.8314 4
3 4 -3 421.502 152.467 3
3 4 -2 3593.26 320.071 4
3 4 -1 13028.1 679.712 4
3 4 0 91864.3 2817.17 4
3 4 0 89785.1 2391.71 1
3 4 1 7689.92 533.714 4
3 4 1 7352.21 282.91 1
3 4 2 1019.2 196.462 4
3 4 2 1333.07 119.491 1
3 4 3 80591.4 2702.88 4
3 4 3 81090 2284 1
3 4 4 54.6499 119.64 4
3 4 4 -33.2792 52.3268 1
3 4 5 1680.19 288.947 4
3 4 5 1640.35 202.877 1
-3 -4 -5 1858.08 306.341 3
3 4 6 1833.08 301.4 4
3 4 6 2276.17 261.663 1
-3 -4 -6 2301.21 354.607 3
3 4 7 2250.52 282.614 1
-3 -4 -7 2549.44 385.63 3
-3 -4 -8 9420.01 819.605 3
3 4 8 7936.1 594.633 1
3 4 9 1105.17 229.727 1
-3 -4 -9 1495.95 330.193 3
-3 -4 -10 435.011 200.2 3
-3 -4 -11 3796.06 617.438 3
-3 -4 -12 448.197 257.126 3
-3 -4 -13 754.57 309.878 3
3 5 -9 -24.8992 140.045 3
3 5 -8 3598.7 578.003 3
3 5 -7 1577.85 371.826 3
3 5 -6 176.292 181.954 3
3 5 -5 8247.46 740.29 3
3 5 -4 3985.39 376.083 4
3 5 -4 3328.44 436.389 3
3 5 -3 8532.73 575.236 4
3 5 -2 282.732 109.774 4
3 5 -1 122080 3662.03 4
3 5 0 192610 5464.36 4
3 5 1 5189.42 462.567 4
3 5 2 84618.8 2810.16 4
3 5 3 24711.5 1195.7 4
3 5 4 27024.1 1272.97 4
3 5 4 24870.8 938.035 1
-3 -5 -5 6694.17 621.421 3
3 5 5 6796.09 439.298 1
3 5 5 7436.99 630.687 4
3 5 6 9203.26 721.222 4
-3 -5 -6 8503.36 724.994 3
3 5 7 4321.61 504.106 4
-3 -5 -7 4327.23 530.834 3
3 5 8 106.024 93.0434 4
-3 -5 -8 607.055 230.789 3
3 5 9 990.029 253.478 4
-3 -5 -9 523.566 239.137 3
3 5 10 2275.98 388 4
-3 -5 -10 2096.64 450.719 3
-3 -5 -11 354.125 225.796 3
-3 -5 -12 171.549 209.754 3
-3 -5 -13 130.086 173.595 3
3 6 -9 1021.99 353.736 3
3 6 -8 2933.82 539.121 3
3 6 -7 175.777 137.472 3
3 6 -6 811.023 278.86 3
3 6 -5 415.476 162.143 3
3 6 -4 145.645 149.257 3
3 6 -4 62.0625 85.1487 4
3 6 -3 1963.31 295.991 4
3 6 -2 383.495 148.185 4
3 6 -1 24561.3 1174.59 4
3 6 0 5532.05 505.383 4
3 6 1 1260.88 252.926 4
3 6 2 24910.5 1221.92 4
3 6 3 11357.6 810.076 4
3 6 4 19761.8 1106.03 4
3 6 5 4951.33 528.843 4
3 6 6 6470.77 640.012 4
-3 -6 -6 6434.44 682.498 3
3 6 7 5180.34 562.305 4
-3 -6 -7 4236.18 567.86 3
3 6 8 721.74 245.995 4
-3 -6 -8 680.85 304.967 3
3 6 9 963.907 260.31 4
-3 -6 -9 714.048 278.567 3
3 6 10 3592.36 504.796 4
-3 -6 -10 4301.79 654.496 3
-3 -6 -11 15449.1 1307.37 3
-3 -6 -12 6433.91 866.102 3
-3 -6 -13 494.044 292.439 3
3 7 -8 126.536 199.864 3
3 7 -7 1842.29 437.644 3
3 7 -6 4400.96 620.295 3
3 7 -5 230.675 157.721 3
3 7 -4 10557.1 779.339 4
3 7 -4 11426.5 946.603 3
3 7 -3 728.278 209.713 4
3 7 -2 2766.66 379.801 4
3 7 -1 2191.24 334.396 4
3 7 0 2167.03 326.468 4
3 7 1 50.1399 110.805 4
3 7 2 99.3472 81.003 4
3 7 3 1734.03 334.347 4
3 7 4 5302.98 558.402 4
3 7 5 23794.9 1305.28 4
3 7 6 3753.67 495.536 4
3 7 7 90.0955 93.0277 4
3 7 8 159.755 129.337 4
-3 -7 -8 -96.9734 151.381 3
3 7 9 4648.64 580.862 4
-3 -7 -9 5530.51 722.171 3
3 7 10 2915.87 469.231 4
-3 -7 -10 3200.56 604.836 3
-3 -7 -11 29038.7 1911.16 3
-3 -7 -12 1553.88 444.623 3
3 8 -7 1351.38 392.512 3
3 8 -6 -2.26979 113.936 3
3 8 -5 2453.99 472.294 3
3 8 -4 337.932 182.749 4
3 8 -4 1087.98 310.884 3
3 8 -3 1584.12 316.813 4
3 8 -2 13156.3 940.393 4
3 8 -1 1036.25 264.796 4
3 8 0 5982.98 606.917 4
3 8 1 5044.77 569.989 4
3 8 2 36895.4 1761.18 4
3 8 3 51245.6 2170.43 4
3 8 4 810.882 251.799 4
3 8 5 835.576 251.587 4
3 8 6 1390.92 313.329 4
3 8 7 161.797 116.725 4
3 8 8 2588.02 434.281 4
3 8 9 212.607 153.644 4
-3 -8 -9 390.439 217.418 3
3 8 10 12099.1 989.34 4
-3 -8 -10 10541.9 1106.69 3
-3 -8 -11 553.258 293.041 3
3 9 -5 59.8675 125.439 3
3 9 -4 1672.21 370.162 4
3 9 -4 2482.48 471.852 3
3 9 -3 2874.27 475.124 4
3 9 -2 144.942 108.335 4
3 9 -1 48.153 96.2919 4
3 9 0 1779.37 357.952 4
3 9 1 397.36 200.524 4
3 9 2 92310.7 3398.79 4
3 9 3 38013.2 1879.76 4
3 9 4 1533.8 352.9 4
3 9 5 10046 884.394 4
3 9 6 1789.34 373.679 4
3 9 7 483.953 205.986 4
3 9 8 889.295 277.827 4
3 9 9 860.758 293.983 4
3 9 10 1574.56 367.355 4
3 10 -4 316.801 180.048 4
3 10 -3 553.779 249.197 4
3 10 -2 206.46 176.671 4
3 10 -1 4432.24 603.205 4
3 10 0 484.881 228.945 4
3 10 1 2245.58 431.348 4
3 10 2 4692.78 634.952 4
3 10 3 1098.07 343.589 4
3 10 4 471.773 233.367 4
3 10 5 2592.76 473.684 4
3 10 6 16.377 185.256 4
3 10 7 331.855 175.306 4
3 10 8 122.202 140.536 4
3 10 9 21.3151 165.682 4
3 10 10 102.753 160.293 4
3 11 0 524.654 241.192 4
3 11 1 121.633 153.291 4
3 11 2 1180.73 347.905 4
3 11 3 840.775 284.576 4
3 11 4 -201.858 171.719 4
3 11 5 443.258 226.231 4
3 11 6 311.115 215.746 4
3 11 7 53.4104 171.289 4
-4 8 5 136.163 172.473 2
-4 8 4 1086.47 399.832 2
-4 8 3 506.091 248.182 4
-4 8 3 143.569 221.31 2
-4 8 2 600.064 251.829 4
-4 8 1 111.717 186.912 4
-4 8 0 2500.29 505.837 4
-4 8 -1 -53.6068 119.066 4
-4 7 8 144.571 176.994 2
-4 7 7 5024.54 807.653 2
-4 7 6 30.7219 135.437 2
-4 7 5 1070.82 375.361 2
-4 7 4 597.955 293.229 2
-4 7 3 225.723 175.493 4
-4 7 3 138.794 161.147 2
-4 7 2 1066.71 295.923 4
-4 7 1 137.189 110.982 4
-4 7 0 1539.49 358.78 4
-4 7 -1 147.952 164.658 4
-4 7 -2 2514.26 492.707 4
-4 7 -3 46.9039 117.682 4
-4 7 -4 1193.63 366.114 4
-4 6 8 139.268 230.825 2
-4 6 7 2392.14 541.605 2
-4 6 6 279.994 219.481 2
-4 6 5 748.82 299.267 2
-4 6 4 1367.82 401.623 2
-4 6 3 3903.73 501.366 4
-4 6 3 3912.17 637.097 2
-4 6 2 8644.42 772.948 4
-4 6 2 7331.76 888.692 2
-4 6 1 8135.97 767.564 4
-4 6 0 94.6984 106.464 4
-4 6 -1 3830.12 557.752 4
-4 6 -2 367.885 228.27 4
4 -6 2 241.054 130.231 1
-4 6 -3 413.771 194.609 4
4 -6 3 288.761 160.635 1
-4 6 -4 2872.62 513.466 4
4 -6 4 2729.88 398.079 1
-4 6 -5 1061.29 341.145 4
4 -5 -10 941.303 338.746 3
4 -5 -9 1659.04 407.876 3
-4 5 8 760.215 306.171 2
-4 5 7 907.161 320.085 2
-4 5 6 -58.3808 113.141 2
-4 5 5 2218.36 472.824 2
-4 5 4 219.425 174.245 2
-4 5 3 525.358 179.777 4
-4 5 3 407.597 209.788 2
-4 5 2 12360 1101.87 2
-4 5 2 12729.3 892.307 4
-4 5 1 12376.4 893.352 4
-4 5 0 795.439 242.456 4
-4 5 -1 10584.2 876.003 4
-4 5 -2 807.617 283.871 4
4 -5 3 9086.27 709.332 1
-4 5 -3 8616.94 827.495 4
-4 5 -4 2091.76 411.428 4
4 -5 4 2283.95 356.24 1
4 -5 5 652.624 206.386 1
-4 5 -5 286.842 213.569 4
4 -5 6 -2.14411 94.4821 1
4 -5 7 398.65 167.075 1
4 -5 8 256.092 163.006 1
4 -4 -11 278.114 214.81 3
4 -4 -10 7550.67 897.386 3
4 -4 -9 755.051 272.523 3
-4 4 8 1942.59 423.57 2
4 -4 -8 2498.08 469.676 3
-4 4 7 5938.79 744.931 2
4 -4 -7 6108.17 689.426 3
-4 4 6 856.541 301.376 2
4 -4 -6 566.128 207.674 3
-4 4 5 45096.6 2243.04 2
-4 4 4 22108.9 1449.46 2
-4 4 3 381.246 146.766 4
-4 4 3 650.075 238.087 2
-4 4 2 4729.73 635.036 2
-4 4 2 4392.63 465.9 4
-4 4 1 2962.35 482.815 2
-4 4 1 3269.58 420.616 4
-4 4 0 8705.18 715.247 4
-4 4 -1 2938.24 413.1 4
-4 4 -2 14138.9 986.241 4
4 -4 3 2358.27 345.82 1
-4 4 -3 2169.09 399.117 4
4 -4 4 2665.94 383.744 1
-4 4 -4 2058.28 397.009 4
4 -4 5 4499.95 481.66 1
4 -4 6 -46.4627 94.5393 1
4 -4 7 23.6076 84.1553 1
4 -4 8 34.2652 104.173 1
4 -4 9 159.013 149.86 1
4 -4 10 2752.25 449.06 1
4 -3 -11 4810.06 737.541 3
4 -3 -10 5728.45 756.851 3
4 -3 -9 171.23 161.709 3
-4 3 9 213.103 163.92 2
-4 3 8 761.477 265.699 2
4 -3 -8 313.007 168.944 3
-4 3 7 729.868 266.51 2
4 -3 -7 519.115 209.061 3
-4 3 6 26066.7 1566.21 2
4 -3 -6 25417 1380.69 3
-4 3 5 24687 1510.18 2
4 -3 -5 23693.4 1256.05 3
4 -3 -4 20263.6 1066.54 3
-4 3 4 19598.4 1298.57 2
-4 3 3 1718.44 260.186 4
-4 3 3 2068.8 412.902 2
-4 3 2 199.103 116.956 4
-4 3 2 292.293 161.96 2
-4 3 1 72.1832 97.1591 4
-4 3 1 332.402 169.638 2
-4 3 0 3976.95 519.223 2
-4 3 0 3406.14 406.704 4
-4 3 -1 12938.9 863.183 4
-4 3 -2 6947.34 633.233 4
4 -3 3 16134.6 918.803 1
-4 3 -3 16601.3 1060.49 4
4 -3 4 24922.7 1212.4 1
4 -3 5 7259.03 594.907 1
4 -3 6 488.176 156.163 1
4 -3 7 1154.73 253.632 1
4 -3 8 102.639 107.269 1
4 -3 9 4050.63 514.088 1
4 -3 10 1546.54 332.568 1
4 -2 -11 259.643 202.056 3
4 -2 -10 2414.27 492.345 3
-4 2 9 7114.07 768.859 2
4 -2 -9 6164.52 737.672 3
-4 2 8 5331.79 656.049 2
4 -2 -8 4358.04 588.367 3
-4 2 7 3265.19 500.032 2
4 -2 -7 2814.25 439.457 3
-4 2 6 30840.3 1695.37 2
4 -2 -6 31687.6 1544.74 3
-4 2 5 2103.06 406.181 2
4 -2 -5 2781.01 393.065 3
-4 2 4 2840.04 454.211 2
4 -2 -4 3777.68 399.071 3
-4 2 3 1295.23 300.885 2
4 -2 -3 1439.65 220.517 3
-4 2 2 147.98 149.971 2
4 -2 -2 21.4501 50.3814 3
-4 2 2 209.066 95.1797 4
-4 2 1 8550.6 583.218 4
-4 2 1 7443.5 687.147 2
-4 2 0 11356.4 837.668 2
-4 2 0 10457.5 688.558 4
-4 2 -1 36287 1678.36 2
-4 2 -2 37751.5 1692.75 2
4 -2 3 116.226 114.958 1
4 -2 4 1290.29 234.715 1
4 -2 5 476.716 150.428 1
4 -2 6 177.411 110.792 1
4 -2 7 245.223 131.311 1
4 -2 8 915.544 236.712 1
4 -2 9 60.8037 107.918 1
4 -2 10 316.742 181.523 1
4 -2 11 888.649 271.9 1
4 -1 -11 409.416 233.691 3
4 -1 -10 -7.98798 107.659 3
4 -1 -9 358.284 188.754 3
-4 1 9 20.2361 95.8981 2
4 -1 -8 1951.04 404.03 3
-4 1 8 1504.16 348.379 2
-4 1 7 19864.9 1274.08 2
4 -1 -7 19736.3 1219.31 3
-4 1 6 13111 989.856 2
4 -1 -6 12931.3 902.943 3
-4 1 5 1014.73 259.07 2
4 -1 -5 906.423 207.885 3
-4 1 4 19849.7 1220.62 2
4 -1 -4 20670.9 1035.55 3
4 -1 -3 69.7702 72.9915 3
-4 1 3 -34.7104 109.458 2
-4 1 2 22539 1233.64 2
4 -1 -2 20992.1 896.311 3
-4 1 1 10246 780.043 2
4 -1 -1 10786 505.717 3
4 -1 0 183511 4856.94 3
-4 1 0 188516 5584.17 2
-4 1 -1 170366 5113.76 2
-4 1 -2 17256 986.217 2
4 -1 3 5084.81 438.452 1
-4 1 -3 5899.63 523.163 2
4 -1 4 4372.76 412.178 1
-4 1 -4 4920.15 481.263 2
4 -1 5 3795.95 393.759 1
-4 1 -5 4428.41 445.084 2
4 -1 6 183.918 118.073 1
4 -1 7 443.716 152.769 1
4 -1 8 2678.03 369.874 1
4 -1 9 63.3168 116.649 1
4 -1 10 2141.39 375.772 1
4 -1 11 83.8318 144.88 1
4 0 -11 334.189 238.072 3
4 0 -10 411.412 217.631 3
4 0 -9 1369.27 359.728 3
-4 0 9 1413.48 328.484 2
4 0 -8 248.689 189.458 3
-4 0 8 188.938 138.58 2
-4 0 7 8992.92 797.786 2
4 0 -7 7315.29 707.23 3
4 0 -6 582.648 187.544 3
-4 0 6 813.089 240.285 2
-4 0 5 4545.45 532.611 2
4 0 -5 4216.67 461.527 3
-4 0 4 23252.4 1284 2
4 0 -4 23894.3 1143.22 3
-4 0 3 5111.71 548.892 2
4 0 -3 5822.87 459.866 3
-4 0 2 41451.4 1795.78 2
4 0 -2 42374.2 1486.24 3
-4 0 1 23138.9 1190.31 2
4 0 -1 22562.5 862.158 3
-4 0 0 7569.11 606.097 2
4 0 0 6922.79 340.214 3
-4 0 -1 79502.9 2621.41 2
4 0 1 75268.4 2000.19 3
-4 0 -2 2201.22 302.024 2
4 0 3 8413.11 557.231 1
-4 0 -3 8605.42 608.186 2
-4 0 -4 570.999 165.015 2
4 0 4 362.535 158.947 1
-4 0 -4 489.992 89.6294 3
-4 0 -5 4390.68 400.815 2
4 0 5 5007.68 428.611 1
4 0 6 586.543 160.133 1
4 0 7 1967.8 292.886 1
4 0 8 169.269 129.06 1
4 0 9 410.545 175.233 1
4 0 10 700.368 226.814 1
4 0 11 1552.03 341.946 1
4 0 12 4532.06 595.079 1
4 1 -11 313.46 264.33 3
4 1 -10 813.398 299.513 3
-4 -1 9 4782.55 582.437 2
4 1 -9 4388.67 636.275 3
-4 -1 8 18806.8 1198.8 2
4 1 -8 18708.3 1277.4 3
4 1 -7 1766.21 351.247 3
-4 -1 7 2198.98 372.212 2
4 1 -6 8907.07 742.25 3
-4 -1 6 8955.17 760.173 2
-4 -1 5 7013.02 651.855 2
4 1 -5 7188.69 621.328 3
-4 -1 4 8011.38 684.303 2
4 1 -4 7880.16 617.562 3
4 1 -3 525.284 150.808 3
4 1 -3 465.181 81.8051 4
-4 -1 3 764.015 215.144 2
4 1 -2 569.702 130.809 3
-4 -1 2 681.432 190.857 2
4 1 -1 431.176 104.654 3
-4 -1 1 410.344 149.853 2
-4 -1 0 46451.3 1791.87 2
4 1 0 46142 1448.11 3
-4 -1 -1 15668.1 865.653 2
-4 -1 -2 1423.83 231.258 2
4 1 3 38477.6 1399.88 1
-4 -1 -3 37621.6 1448.38 2
4 1 4 77313.4 2483.97 1
-4 -1 -4 81294.8 2357.31 3
-4 -1 -4 77563 2483.83 2
-4 -1 -5 1076.77 170.348 2
4 1 5 905.77 178.325 1
-4 -1 -5 1191.33 187.606 3
4 1 6 372.555 128.341 1
-4 -1 -6 374.72 123.909 3
-4 -1 -7 23365.3 1151.32 3
4 1 7 24114.2 1133.92 1
4 1 8 744.753 186.308 1
4 1 9 -31.5712 103.195 1
4 1 10 7389.33 660.734 1
4 1 11 883.53 252.429 1
4 1 12 17044.9 1179.59 1
4 2 -10 1042.25 325.431 3
-4 -2 9 364.536 183.21 2
4 2 -9 266.153 177.892 3
4 2 -8 2508.21 467.544 3
-4 -2 8 1606.68 331.246 2
4 2 -7 1034.96 282.736 3
-4 -2 7 647.614 216.09 2
4 2 -6 -13.5005 96.7502 3
-4 -2 6 129.627 130.325 2
-4 -2 5 7455.77 654.992 2
4 2 -5 7060.19 630.478 3
-4 -2 4 13689.3 890.22 2
4 2 -4 11799.3 792.56 3
4 2 -3 985.374 200.325 3
4 2 -3 829.992 115.144 4
-4 -2 3 1283.07 252.038 2
4 2 -2 1005.63 188.673 3
4 2 -2 982.393 148.78 4
-4 -2 2 1420.7 261.488 2
-4 -2 1 13046 799.768 2
4 2 -1 12042.8 644.762 3
-4 -2 0 38095.4 1537.69 2
-4 -2 -1 21.317 68.1865 2
-4 -2 -2 41532 1538.13 2
4 2 3 39734.4 1384.37 1
-4 -2 -3 38399.6 1413.67 2
-4 -2 -4 614697 15611.2 2
4 2 4 596114 15645.4 1
-4 -2 -5 7568.18 414.833 2
-4 -2 -5 6795.96 509.572 3
4 2 5 7372.54 504.376 1
4 2 6 700.048 153.771 1
-4 -2 -6 691.927 178.452 3
-4 -2 -7 284.023 150.983 3
4 2 7 386.099 133.646 1
4 2 8 2311.3 316.582 1
-4 -2 -8 1446.5 284.797 3
-4 -2 -9 3580.45 486.506 3
4 2 9 3245.86 410.19 1
4 2 10 429.159 197.993 1
-4 -2 -10 822.578 267.006 3
4 2 11 1465.53 320.447 1
4 2 12 1370.66 329.193 1
4 3 -10 989.605 339.445 3
4 3 -9 3451.9 579.959 3
4 3 -8 158.88 171.22 3
4 3 -7 -61.282 134.249 3
-4 -3 6 25346.7 1365.58 2
4 3 -6 28544.6 1528.03 3
-4 -3 5 8048.23 671.338 2
4 3 -5 6621.13 644.964 3
-4 -3 4 7773.54 648.777 2
4 3 -4 7794.26 643.725 3
4 3 -3 6439.3 389.169 4
-4 -3 3 6656.46 578.071 2
4 3 -3 7025.97 563.237 3
4 3 -2 32013.5 1158.95 4
-4 -3 2 31574.1 1392.01 2
4 3 -2 29359.7 1293.69 3
4 3 -1 23.2476 59.9844 4
-4 -3 1 -4.2314 67.1155 2
4 3 0 340.674 124.535 4
-4 -3 0 454.529 142.767 2
-4 -3 -1 44865.5 1633.23 2
4 3 2 44717.6 1443.86 1
-4 -3 -2 43555.5 1566.63 2
4 3 3 999658 25399.9 1
-4 -3 -3 999999 25460.6 2
-4 -3 -4 222287 6189.2 2
4 3 4 249505 6301.79 1
-4 -3 -5 17536.7 934.852 3
4 3 5 17052.7 799.087 1
-4 -3 -6 1529.21 270.936 3
4 3 6 1425.48 218.298 1
-4 -3 -7 11082.7 791.207 3
4 3 7 9851.32 641.396 1
4 3 8 247.801 116.554 1
-4 -3 -8 384.162 174.833 3
-4 -3 -9 5937.34 649.479 3
4 3 9 6537.06 573.454 1
4 3 10 245.437 154.284 1
-4 -3 -10 267.932 181.207 3
4 3 11 2535.23 398.839 1
-4 -3 -11 3971.84 593.473 3
4 3 12 115.231 134.676 1
-4 -3 -12 197.358 173.699 3
4 4 -9 15.4435 118.515 3
4 4 -8 970.614 330.424 3
4 4 -7 3.49287 119.971 3
4 4 -6 90.7113 166.258 3
4 4 -5 112140 3819.34 3
4 4 -4 11846.2 853.145 3
4 4 -3 4687.94 364.078 4
4 4 -3 4280.77 469.046 3
4 4 -2 1719.57 223.231 4
4 4 -1 5659.14 440.978 4
-4 -4 1 6101.65 510.612 2
4 4 0 89463.6 2845.04 4
-4 -4 0 89583.9 2850.07 2
4 4 1 66306.1 2313.05 4
4 4 1 67513.9 1937.66 1
4 4 2 17602.7 970.465 4
4 4 2 18269.9 689.893 1
4 4 3 585.511 115.671 1
4 4 3 383.432 172.751 4
4 4 4 404.649 109.906 1
4 4 5 9281.26 534.05 1
4 4 6 24.221 64.8754 1
-4 -4 -6 6.31579 65.4885 3
4 4 7 1503.05 228.714 1
-4 -4 -7 1371.61 298.921 3
4 4 8 431.614 156.892 1
-4 -4 -8 374.177 183.062 3
4 4 9 41.9418 105.126 1
-4 -4 -9 -36.0266 97.167 3
-4 -4 -10 4743.35 635.822 3
4 4 10 5193.3 544.83 1
4 4 11 99.1694 121.322 1
-4 -4 -11 485.132 239.207 3
4 4 12 408.9 202.301 1
-4 -4 -12 448.074 223.053 3
-4 -4 -13 579.55 292.075 3
4 5 -9 298.021 228.571 3
4 5 -8 1524.26 411.487 3
4 5 -7 1750.09 407.657 3
4 5 -6 41658 2047.16 3
4 5 -5 106262 3753.63 3
4 5 -4 4028.72 504.265 3
4 5 -3 8519.64 564.437 4
4 5 -3 8032.08 700.145 3
4 5 -2 1513.54 233.052 4
4 5 -1 152.262 99.7155 4
4 5 0 192.52 107.515 4
4 5 1 67.7031 116.654 4
4 5 2 29325.5 1380.15 4
4 5 2 31244.3 966.53 1
4 5 3 60.0631 99.0931 4
4 5 3 -25.5061 31.2578 1
4 5 4 7760.28 661.088 4
4 5 4 7563.03 429.15 1
4 5 5 770.834 204.047 4
4 5 5 552.29 121.551 1
4 5 6 256.643 102.057 1
4 5 6 65.3163 113.181 4
4 5 7 270.787 110.869 1
4 5 7 219.014 146.918 4
-4 -5 -7 67.8967 136.55 3
4 5 8 457.647 148.232 1
4 5 8 1072.07 274.829 4
-4 -5 -8 874.702 257.48 3
4 5 9 531.74 179.71 1
4 5 9 249.395 168.386 4
-4 -5 -9 431.327 199.489 3
4 5 10 191.579 127.154 4
4 5 10 305.344 155.366 1
4 5 11 -72.5276 129.919 4
-4 -5 -11 232.807 173.276 3
-4 -5 -12 314.658 189.633 3
-4 -5 -13 540.42 301.423 3
4 6 -8 7554.06 896.817 3
4 6 -7 680.176 259.956 3
4 6 -6 48.0836 122.857 3
4 6 -5 -38.057 138.451 3
4 6 -4 5764.98 639.408 3
4 6 -3 7125.75 566.048 4
4 6 -2 651.329 167.092 4
4 6 -1 692.746 179.875 4
4 6 0 1076.43 226.05 4
4 6 1 142.301 108.526 4
4 6 2 70.8882 81.8458 4
4 6 3 9683.97 747.441 4
4 6 4 12827.3 901.268 4
4 6 5 2766.5 414.474 4
4 6 6 38731.6 1791.32 4
4 6 6 36906.7 1396.29 1
4 6 7 24048.9 1383.02 4
4 6 7 21982.7 1051.3 1
-4 -6 -7 25564.6 1456.67 3
4 6 8 1463.78 345.818 4
-4 -6 -8 1641.72 367.855 3
4 6 9 2511.21 438.464 4
-4 -6 -9 3010.91 508.665 3
4 6 10 317.104 183.566 4
-4 -6 -10 541.131 237.93 3
4 6 11 103.209 139.467 4
-4 -6 -11 168.55 200.338 3
-4 -6 -12 384.089 228.606 3
-4 -6 -13 149.187 185.908 3
4 7 -7 136.196 129.865 3
4 7 -6 -80.1436 128.643 3
4 7 -5 1279.03 337.374 3
4 7 -4 1653.95 359.59 3
4 7 -3 475.992 166.938 4
4 7 -2 446 162.775 4
4 7 -1 4201.83 467.657 4
4 7 0 1006.41 238.93 4
4 7 1 561.445 178.989 4
4 7 2 1742.99 313.112 4
4 7 3 5092.27 553.104 4
4 7 4 5197.72 572.835 4
4 7 5 204.265 116.801 4
4 7 6 39553.3 1882.43 4
4 7 7 1062.31 271.645 4
4 7 8 741.776 255.641 4
4 7 9 827.603 283.518 4
-4 -7 -9 988.031 331.957 3
4 7 10 3067.3 503.548 4
-4 -7 -10 3434.04 602.212 3
4 7 11 489.314 259.58 4
-4 -7 -11 473.92 269.554 3
-4 -7 -12 4277.33 717.831 3
4 8 -6 82.8874 174.713 3
4 8 -5 452.185 210.687 3
4 8 -4 79.6343 154.642 3
4 8 -3 10197.9 806.143 4
4 8 -2 11724.3 877.632 4
4 8 -1 85.1563 94.2432 4
4 8 0 3308.77 453.601 4
4 8 1 1223.73 298.482 4
4 8 2 185.331 172.418 4
4 8 3 36336.9 1760.07 4
4 8 4 4347.15 563.827 4
4 8 5 1726.12 348.762 4
4 8 6 38.498 98.4387 4
4 8 7 452.649 212.973 4
4 8 8 1023.54 294.39 4
4 8 9 103.575 164.19 4
4 8 10 589.599 256.322 4
-4 -8 -10 86.6556 168.434 3
4 8 11 205.201 193.651 4
-4 -8 -11 583.441 299.817 3
4 9 -5 643.235 290.632 3
4 9 -4 1678.64 414.368 3
4 9 -3 9742.12 849.225 4
4 9 -2 6098.45 664.033 4
4 9 -1 550.439 223.628 4
4 9 0 515.172 210.99 4
4 9 1 860.41 269.319 4
4 9 2 2694.13 454.715 4
4 9 3 2209.03 424.296 4
4 9 4 572.102 251.966 4
4 9 5 21139.6 1356.47 4
4 9 6 613.461 270.409 4
4 9 7 151.487 162.566 4
4 9 8 220.17 178.305 4
4 9 9 25.8445 147.115 4
4 9 10 131.972 168.371 4
4 9 11 1609.86 384.568 4
4 10 -3 36.9528 133.594 4
4 10 -2 78.7581 92.1391 4
4 10 -1 289.916 179.499 4
4 10 0 427.632 211.43 4
4 10 1 697.373 258.65 4
4 10 2 800.751 284.032 4
4 10 3 207.714 208.264 4
4 10 4 393.838 229.641 4
4 10 5 144.504 125.309 4
4 10 6 50.7901 99.2888 4
4 10 7 -43.1196 146.247 4
4 10 8 154.773 187.466 4
4 10 9 2478.22 478.56 4
4 10 10 1016.73 323.005 4
4 11 0 -30.2252 126.813 4
4 11 1 895.838 318.867 4
4 11 2 551.21 248.283 4
4 11 3 424.97 219.058 4
4 11 4 261.617 192.959 4
4 11 5 301.637 243.979 4
4 11 6 232.848 210.818 4
-5 7 4 -2.75666 137.394 2
-5 7 3 571.165 323.125 2
-5 7 2 180.422 224.543 2
-5 7 1 387.578 215.636 4
-5 7 1 736.759 346.196 2
-5 7 0 152.855 178.313 4
-5 7 0 -154.464 229.727 2
-5 7 -1 89.9513 102.574 4
-5 7 -2 1401.47 399.271 4
-5 6 8 489.748 284.01 2
-5 6 7 3280.25 662.739 2
-5 6 6 7027.03 960.352 2
-5 6 5 -123.633 185.531 2
-5 6 4 1439.18 423.047 2
-5 6 3 2765.86 583.671 2
-5 6 2 39.7657 102.549 4
-5 6 2 175.863 201.761 2
-5 6 1 2593.92 460.559 4
-5 6 1 2386.36 539.747 2
-5 6 0 297.794 181.595 4
-5 6 0 340.504 237.711 2
-5 6 -1 75.7784 109.094 4
-5 6 -2 374.362 217.889 4
5 -6 2 134.696 104.215 1
-5 6 -3 -42.202 103.778 4
5 -6 3 -59.0781 113.616 1
5 -6 4 405.805 181.015 1
-5 6 -4 239.952 187.787 4
-5 5 9 774.924 355.993 2
-5 5 8 38.7513 141.886 2
-5 5 7 2869.67 584.707 2
-5 5 6 1269.02 408.636 2
-5 5 5 464.582 267.795 2
-5 5 4 1667.63 431.39 2
-5 5 3 173.73 165.118 2
-5 5 2 8514.21 972.841 2
-5 5 2 8671.14 781.968 4
-5 5 1 215.97 170.26 4
-5 5 1 648.64 316.344 2
-5 5 0 459.699 202.968 4
-5 5 0 1111.55 362.475 2
-5 5 -1 245.898 169.043 4
-5 5 -1 92.5344 186.787 2
-5 5 -2 3.24756 149.979 4
5 -5 3 982.884 260.743 1
-5 5 -3 294.392 179.099 4
5 -5 4 716.909 227.225 1
5 -5 5 3523.57 474.335 1
5 -5 6 3910.02 500.402 1
5 -5 7 262.945 147.579 1
5 -5 8 228.146 149.512 1
-5 4 9 2325.23 517.882 2
-5 4 8 82.8445 122.515 2
-5 4 7 530.973 305.239 2
-5 4 6 -67.8706 99.9225 2
-5 4 5 153.293 166.843 2
-5 4 4 1496.66 427.151 2
-5 4 3 2423.24 492.792 2
-5 4 2 1483.02 295.913 4
-5 4 2 1161.93 338.527 2
-5 4 1 2343.69 384.439 4
-5 4 1 1566.58 401.131 2
-5 4 0 4120.79 634.884 2
-5 4 0 4350.19 540.3 4
-5 4 -1 4621.42 649.94 2
-5 4 -1 4054.73 542.567 4
-5 4 -2 3717.44 584.984 2
-5 4 -2 3023.48 476.217 4
5 -4 3 13883.8 927.361 1
5 -4 4 2324.21 376.276 1
5 -4 5 36113.9 1675.25 1
5 -4 6 4613.52 536.39 1
5 -4 7 653.556 213.599 1
5 -4 8 290.717 176.846 1
5 -3 -10 160.424 152.602 3
5 -3 -9 3430.25 556.772 3
-5 3 9 2487.77 508.397 2
-5 3 8 1889.59 444.103 2
-5 3 7 1292.66 381.218 2
-5 3 6 2991.26 550.985 2
-5 3 5 995.233 309.962 2
-5 3 4 756.011 302.793 2
-5 3 3 47104.2 2324.11 2
-5 3 2 3191.65 546.395 2
-5 3 1 512.53 247.31 2
-5 3 0 2676.73 479.265 2
-5 3 -1 7666.15 795.002 2
-5 3 -2 410.582 195.452 2
-5 3 -3 229.219 203.814 2
5 -3 3 -31.1554 97.5904 1
5 -3 4 13108.9 886.576 1
-5 3 -4 13742.2 1069.15 2
5 -3 5 24753.4 1286.25 1
5 -3 6 -58.0254 128.719 1
5 -3 7 2027.81 347.872 1
5 -3 8 -40.0358 95.3412 1
5 -3 9 369.281 196.622 1
5 -2 -10 -119.012 147.478 3
-5 2 9 1478.86 394.462 2
5 -2 -9 1269.31 348.794 3
-5 2 8 941.435 298.332 2
5 -2 -8 918.544 275.662 3
-5 2 7 118.347 163.784 2
5 -2 -7 194.247 140.669 3
-5 2 6 5101.19 682.266 2
5 -2 -6 5057.02 568.627 3
-5 2 5 3530.43 576.362 2
-5 2 4 147421 5058.45 2
-5 2 3 48655.3 2297.7 2
-5 2 2 1251.64 321.432 2
-5 2 1 244.328 193.585 2
-5 2 0 14428.1 1071.89 2
-5 2 -1 750.015 255.465 2
-5 2 -2 7014.57 722.027 2
-5 2 -3 247.649 197.239 2
5 -2 4 7.14811 98.9323 1
-5 2 -4 21.359 139.584 2
5 -2 5 34.0245 108.95 1
-5 2 -5 246.803 173.881 2
5 -2 6 76.9985 117.631 1
5 -2 7 717.274 185.24 1
5 -2 8 48.317 96.7405 1
5 -2 9 900.34 263.855 1
5 -2 10 -39.7253 86.1453 1
5 -1 -10 74.5022 151.082 3
5 -1 -9 951.051 303.412 3
-5 1 9 1103.74 325.899 2
5 -1 -8 3149.11 509.732 3
-5 1 8 2629.68 486.88 2
5 -1 -7 446.561 206.765 3
-5 1 7 1303.54 370.741 2
5 -1 -6 876.322 254.936 3
-5 1 6 1417.91 347.043 2
-5 1 5 12114.1 1007.49 2
5 -1 -5 11786 830.532 3
-5 1 4 66566.2 2784.05 2
5 -1 -4 67953 2403.53 3
5 -1 -3 843.971 179.904 3
-5 1 3 1279.56 326.274 2
-5 1 2 2532.21 428.827 2
-5 1 1 398.545 187.403 2
-5 1 0 18643.9 1186.83 2
-5 1 -1 35.0149 114.514 2
-5 1 -2 6103.26 627.277 2
-5 1 -3 115.138 136.094 2
5 -1 4 1158.23 235.696 1
-5 1 -4 1027.71 259.983 2
5 -1 5 2703.92 359.767 1
-5 1 -5 2627.37 391.038 2
5 -1 6 180.792 138.613 1
5 -1 7 2384.27 351.071 1
5 -1 8 2684.75 394.002 1
5 -1 9 808.083 243.51 1
5 -1 10 575.525 217.37 1
5 -1 11 256.352 165.543 1
5 0 -10 -74.9519 144.63 3
5 0 -9 1586.07 396.861 3
-5 0 9 1148.87 333.457 2
5 0 -8 211.077 160.545 3
-5 0 8 711.043 246.602 2
-5 0 7 4823.27 633.837 2
5 0 -7 6351.97 670.577 3
5 0 -6 834.907 233.997 3
-5 0 6 1114.94 316.056 2
5 0 -5 1275.27 263.54 3
-5 0 5 693.799 215.24 2
-5 0 4 5026.41 599.196 2
5 0 -4 4886.84 485.012 3
-5 0 3 9135.27 808.182 2
5 0 -3 9497.26 635.468 3
-5 0 2 2220.87 404.286 2
5 0 -2 2352.74 272.975 3
-5 0 1 10852.7 855.084 2
5 0 -1 11195.7 572.313 3
-5 0 0 31853.5 1565.22 2
-5 0 -1 6267.89 604.32 2
-5 0 -2 3487.51 444.768 2
-5 0 -3 7990.09 660.909 2
5 0 4 411.081 156.063 1
-5 0 -4 558.593 181.818 2
5 0 5 15807 900.374 1
-5 0 -5 17304.3 984.094 2
5 0 6 3836.38 420.265 1
5 0 7 20678.9 1094.82 1
5 0 8 6767.83 620.162 1
5 0 9 141.607 129.193 1
5 0 10 58.0434 116.987 1
5 0 11 847.565 271.998 1
5 1 -10 382.982 210.035 3
5 1 -9 1728.86 409.562 3
-5 -1 9 1819.4 379.983 2
5 1 -8 170.519 172.233 3
-5 -1 8 109.462 155.279 2
-5 -1 7 7890.95 787.034 2
5 1 -7 8400.2 797.68 3
5 1 -6 712.192 248.935 3
-5 -1 6 451.424 196.456 2
5 1 -5 6.75814 88.6 3
-5 -1 5 49.1008 97.7217 2
5 1 -4 1721.43 289.222 3
-5 -1 4 2309.77 390.939 2
5 1 -3 83.6138 79.3974 3
-5 -1 3 383.435 163.891 2
-5 -1 2 20707.3 1216.93 2
5 1 -2 20681.1 972.485 3
-5 -1 1 20958.5 1199.34 2
5 1 -1 20191.1 891.793 3
-5 -1 0 58851.2 2269.87 2
5 1 0 57145.1 1789.06 3
-5 -1 -1 731.346 216.751 2
5 1 1 778.24 110.517 3
-5 -1 -2 18768.4 1053.75 2
-5 -1 -3 1217.57 246.067 2
5 1 3 1344.54 214.881 1
-5 -1 -4 921.78 198.962 2
5 1 4 1073.18 205.168 1
5 1 5 2264.9 304.006 1
5 1 6 1793.76 296.027 1
5 1 7 22737.9 1137.36 1
5 1 8 3848.7 447.329 1
5 1 9 130.468 113.599 1
5 1 10 1790.28 335.195 1
5 1 11 5.36953 140.154 1
5 2 -10 1283.18 389.804 3
5 2 -9 881.439 290.427 3
-5 -2 9 1107.88 307.171 2
5 2 -8 2792.82 495.001 3
-5 -2 8 3480.2 507.501 2
-5 -2 7 6184.12 697.032 2
5 2 -7 6198.19 700.884 3
5 2 -6 2494.67 419.542 3
-5 -2 6 2685.89 433.252 2
5 2 -5 348.744 174.163 3
-5 -2 5 429.144 204.135 2
5 2 -4 37.2646 106.005 3
-5 -2 4 16.4379 112.932 2
-5 -2 3 11347.8 865.532 2
5 2 -3 10757.1 731.369 3
-5 -2 2 19917 1167.17 2
5 2 -2 20015.4 881.594 4
5 2 -2 20307.2 994.947 3
-5 -2 1 135469 4359.29 2
5 2 -1 138933 3993.05 3
5 2 0 -13.188 49.2505 3
-5 -2 0 -13.6633 108.715 2
-5 -2 -1 15482.5 919.03 2
-5 -2 -2 3029.23 371.451 2
5 2 3 3316.31 338.591 1
-5 -2 -3 2916.06 348.318 2
5 2 4 37582.9 1442.09 1
-5 -2 -4 37110.8 1463.51 2
5 2 5 6943.85 516.421 1
5 2 6 2372.17 313.572 1
5 2 7 1507.13 266.746 1
5 2 8 380.83 164.405 1
5 2 9 1458.52 280.603 1
5 2 10 411.703 177.004 1
5 2 11 1294.78 301.629 1
5 2 12 244.411 177.226 1
5 3 -9 710.061 274.917 3
5 3 -8 -8.17383 133.901 3
-5 -3 8 289.561 196.946 2
5 3 -7 132.557 160.496 3
-5 -3 7 71.6675 129.931 2
5 3 -6 1532.47 333.125 3
-5 -3 6 1406.78 321.002 2
5 3 -5 -42.4611 106.796 3
-5 -3 5 216.022 178.802 2
-5 -3 4 38393.4 1760.9 2
5 3 -4 36276.9 1679.43 3
-5 -3 3 6703.39 635.327 2
5 3 -3 6982.33 598.223 3
5 3 -2 28208.5 1128.39 4
-5 -3 2 28441.4 1414.55 2
5 3 -2 28318.8 1291.19 3
5 3 -1 35591.7 1401.79 4
-5 -3 1 33048.8 1552.69 2
5 3 -1 37030.9 1445.2 3
-5 -3 0 2327.16 332.542 2
-5 -3 -1 10224 702.223 2
5 3 2 1269.21 186.37 1
-5 -3 -2 1236.71 224.652 2
5 3 3 41717.4 1477.26 1
-5 -3 -3 40293.4 1561.33 2
-5 -3 -4 6848.85 481.831 2
5 3 4 6419.12 464.866 1
5 3 5 1478.46 227.521 1
-5 -3 -6 16727.4 952.937 3
5 3 6 16966.6 871.39 1
5 3 7 2657.84 327.736 1
-5 -3 -7 1544.27 285.284 3
5 3 8 923.607 228.722 1
5 3 9 1699.88 303.953 1
5 3 10 2091.58 363.773 1
5 3 11 1728.73 336.798 1
5 3 12 479.227 214.261 1
5 4 -9 348.943 222.06 3
5 4 -8 436.018 208.287 3
5 4 -7 461.575 203.953 3
5 4 -6 2033.56 390.14 3
-5 -4 5 34805 1683.25 2
5 4 -5 30983 1647.61 3
-5 -4 4 51410.6 2140.54 2
5 4 -4 50984.8 2139.21 3
5 4 -3 57.5398 121.098 3
-5 -4 3 179.171 146.84 2
5 4 -2 3385.86 337.075 4
-5 -4 2 3409.44 429.021 2
5 4 -2 3363.87 405.272 3
5 4 -1 13583.6 763.805 4
-5 -4 1 11972.9 813.694 2
5 4 0 50813.6 1908.22 4
-5 -4 0 50736.9 1955.23 2
5 4 1 1457.91 272.88 4
-5 -4 -1 1549.72 267.093 2
5 4 2 1070.36 235.425 4
-5 -4 -2 1202.41 212.317 2
5 4 2 1048.31 161.297 1
5 4 3 8036.53 461.617 1
-5 -4 -3 5054.12 430.952 2
-5 -4 -4 202.826 90.3977 2
5 4 4 148.754 85.584 1
5 4 5 18213 850.654 1
5 4 6 6630.58 491.874 1
-5 -4 -7 4264.55 504.2 3
5 4 7 3636.04 382.055 1
5 4 8 182.968 114.583 1
-5 -4 -8 253.821 161.377 3
5 4 9 1510.37 284.947 1
-5 -4 -9 1441.2 338.406 3
-5 -4 -10 5556.25 677.817 3
5 4 10 5893 581.225 1
5 4 11 2990.51 441.784 1
5 4 12 338.021 194.43 1
5 5 -8 583.723 258.794 3
5 5 -7 308.112 219.877 3
5 5 -6 9577.37 914.344 3
5 5 -5 1129.51 312.613 3
5 5 -4 4628.57 578.609 3
5 5 -3 41983.7 1891.06 3
5 5 -2 6343.13 503.561 4
5 5 -1 10210.7 686.767 4
5 5 0 5019.69 482.804 4
5 5 1 2463.9 353.427 4
5 5 2 33925.9 1559.32 4
5 5 3 1256.19 269.954 4
5 5 3 2043.15 203.834 1
5 5 4 3123.85 437.918 4
5 5 4 3335.69 287.389 1
5 5 5 5150.55 599.268 4
5 5 5 6115.92 433.77 1
5 5 6 159.39 122.016 4
5 5 6 319.191 115.045 1
5 5 7 5720.91 477.952 1
5 5 8 136.162 117.522 1
-5 -5 -8 136.127 177.738 3
-5 -5 -9 10102.3 913.665 3
5 5 9 10144.7 729.903 1
5 5 10 2032.49 343.476 1
-5 -5 -10 1676.15 383.664 3
5 5 11 633.811 212.471 1
-5 -5 -11 1073.89 349.253 3
5 5 12 115.632 124.155 1
5 5 12 32.9644 117.027 4
-5 -5 -12 170.43 125.773 3
5 6 -7 122.382 214.332 3
5 6 -6 2676.71 505.065 3
5 6 -5 1122.35 318.305 3
5 6 -4 712.254 248.396 3
5 6 -3 1204.14 296.175 3
5 6 -2 156.166 112.445 4
5 6 -1 1601.75 278.579 4
5 6 0 5553.3 531.704 4
5 6 1 11733.7 820.358 4
5 6 2 61571 2387.16 4
5 6 3 945.02 236.612 4
5 6 4 4939.42 564.996 4
5 6 5 1872.01 376.096 4
5 6 6 19.4403 94.5158 4
5 6 7 883.356 198.031 1
5 6 7 1211.06 304.358 4
5 6 8 285.817 125.386 1
5 6 8 662.117 247.68 4
5 6 9 334.012 151.613 1
5 6 9 21.5323 149.454 4
-5 -6 -9 215.916 192.611 3
5 6 10 790.832 224.16 1
5 6 10 636.925 267.588 4
-5 -6 -10 604.219 255.65 3
5 6 11 75.3996 160.497 4
-5 -6 -11 429.045 226.859 3
5 6 12 105.031 119.742 4
-5 -6 -12 359.919 220.071 3
-5 -6 -13 42.977 152.373 3
5 7 -6 566.403 262.912 3
5 7 -5 -9.60427 120.899 3
5 7 -4 85.6736 157.253 3
5 7 -3 441.588 236.341 3
5 7 -2 4165.35 467.024 4
5 7 -1 656.951 190.361 4
5 7 0 13310.9 903.588 4
5 7 1 18281.3 1100.21 4
5 7 2 1521.01 324.364 4
5 7 3 3136.36 469.197 4
5 7 4 4172.21 533.2 4
5 7 5 521.085 220.334 4
5 7 6 228.811 164.146 4
5 7 7 3903.52 553.535 4
5 7 8 173.562 181.758 4
5 7 9 2641.52 490.814 4
5 7 10 -3.52093 176.665 4
-5 -7 -10 281.037 229.952 3
5 7 11 92.4602 140.467 4
-5 -7 -11 448.578 263.707 3
5 7 12 707.038 292.555 4
-5 -7 -12 440.029 277.412 3
5 8 -5 1463.8 374.317 3
5 8 -4 2244.48 470.962 3
5 8 -2 5507.02 577.499 4
5 8 -1 4103.26 515.9 4
5 8 0 2240.53 380.677 4
5 8 1 2235.78 382.698 4
5 8 2 2318.98 400.984 4
5 8 3 11.1167 91.4404 4
5 8 4 190.938 123.737 4
5 8 5 267.355 171.28 4
5 8 6 1070.53 293.979 4
5 8 7 570.622 235.776 4
5 8 8 231.944 228.487 4
5 8 9 223.82 158.762 4
5 8 10 363.546 201.594 4
5 8 11 1306.02 385.922 4
5 8 12 1965.37 444.065 4
5 9 -4 68.0568 122.94 3
5 9 -2 358.494 183.336 4
5 9 -1 316.434 172.662 4
5 9 0 12177.4 971.889 4
5 9 1 102.479 129.071 4
5 9 2 4094.45 564.95 4
5 9 3 4449.27 593.464 4
5 9 4 8366.85 818.397 4
5 9 5 9399.32 904.626 4
5 9 6 798.289 299.313 4
5 9 7 145.893 178.375 4
5 9 8 -95.8697 174.331 4
5 9 9 -23.5628 122.319 4
5 9 10 6.87845 136.906 4
5 9 11 73.3214 140.641 4
5 10 -2 433.266 223.441 4
5 10 -1 -29.6693 102.339 4
5 10 0 231.079 194.652 4
5 10 1 168.753 161.817 4
5 10 2 605.82 284.741 4
5 10 3 897.156 299.383 4
5 10 4 37933.2 2008.87 4
5 10 5 12787.7 1098.23 4
5 10 6 478.592 241.465 4
5 10 7 828.416 303.192 4
5 10 8 -99.4597 131.296 4
5 10 9 1094.78 345.623 4
5 11 0 120.79 129.661 4
5 11 1 968.734 325.145 4
5 11 2 -11.5829 164.196 4
5 11 3 7229.09 855.151 4
5 11 4 5476.28 736.334 4
5 11 5 281.656 227.061 4
-6 6 2 489.079 319.937 2
-6 6 1 346.386 248.225 2
-6 6 0 518.107 314.816 2
-6 6 0 577.437 274.755 4
-6 6 -1 92.9735 198.622 2
-6 6 -2 192.956 260.331 2
6 -6 2 133.252 150.308 1
6 -6 3 233.85 158.989 1
-6 6 -3 619.341 302.786 2
6 -6 4 371.102 186.718 1
-6 5 6 902.573 402.723 2
-6 5 5 2377.33 583.163 2
-6 5 4 370.765 246.445 2
-6 5 3 -37.4459 205.581 2
-6 5 2 289.344 247.183 2
-6 5 1 188.721 232.019 2
-6 5 0 1776.4 478.146 2
-6 5 -1 1788.01 488.363 2
-6 5 -2 367.309 294.576 2
6 -5 3 106.426 109.526 1
-6 5 -3 -45.5446 165.798 2
-6 5 -4 -25.6865 202.852 2
6 -5 4 186.805 133.151 1
6 -5 5 340.85 191.359 1
-6 4 8 657.553 342.567 2
-6 4 7 -287.86 222.154 2
-6 4 6 292.391 224.792 2
-6 4 5 128.878 152.096 2
-6 4 4 168.604 179.851 2
-6 4 3 145.312 159 2
-6 4 2 724.35 327.944 2
-6 4 1 645.167 323.543 2
-6 4 0 13848.5 1264.78 2
-6 4 -1 3276.41 631.165 2
-6 4 -2 517.328 246.604 2
-6 4 -3 531.725 271.992 2
6 -4 3 -115.442 157.976 1
6 -4 4 -90.5212 121.047 1
-6 4 -4 -112.06 166 2
6 -4 5 102.516 145.976 1
6 -4 6 545.285 215.871 1
6 -4 7 588.244 230.523 1
-6 3 9 181.122 169.048 2
-6 3 8 4322.44 725.215 2
-6 3 7 83.5551 132.346 2
-6 3 6 356.427 230.681 2
-6 3 5 529.284 282.227 2
-6 3 4 2808.21 533.912 2
-6 3 3 11169 1125.82 2
-6 3 2 16594.2 1363.78 2
-6 3 1 102.15 114.274 2
-6 3 0 104.938 175.229 2
-6 3 -1 303.863 214.26 2
-6 3 -2 1426.99 386.894 2
-6 3 -3 3018.94 554.049 2
6 -3 3 2961.73 439.952 1
6 -3 4 17188 1096.98 1
-6 3 -4 15512.7 1253.11 2
6 -3 5 609.516 240.807 1
6 -3 6 485.562 229.578 1
6 -3 7 2350.69 406.525 1
6 -3 8 -26.6865 97.0911 1
-6 2 9 6150.41 846.059 2
-6 2 8 3668.01 645.375 2
-6 2 7 76.1723 123.878 2
-6 2 6 644.839 282.431 2
-6 2 5 126.014 154.153 2
-6 2 4 310.237 210.706 2
-6 2 3 14816 1228.45 2
-6 2 2 340.08 211.009 2
-6 2 1 579.227 256.33 2
-6 2 0 1642.08 384.623 2
-6 2 -1 855.328 286.132 2
-6 2 -2 171.12 110.796 2
-6 2 -3 2348.47 455.648 2
-6 2 -4 398.569 213.985 2
6 -2 4 308.803 160.57 1
6 -2 5 88.4511 137.593 1
6 -2 6 6822.87 659.736 1
6 -2 7 716.422 227.927 1
6 -2 8 186.56 147.711 1
6 -2 9 125.499 135.402 1
6 -1 -10 126.405 208.825 3
6 -1 -9 169.192 167.32 3
-6 1 9 142.444 193.592 2
-6 1 8 496.675 256.781 2
-6 1 7 2022.29 453.254 2
-6 1 6 8114.94 905.319 2
-6 1 5 21336.9 1500.87 2
-6 1 4 16170.1 1265.93 2
-6 1 3 20122.7 1404.98 2
-6 1 2 1881.52 398.229 2
-6 1 1 934.671 296.855 2
-6 1 0 1906.66 401.875 2
-6 1 -1 6.36148 145.806 2
-6 1 -2 1129.78 304.689 2
-6 1 -3 27647.2 1564.8 2
-6 1 -4 670.061 226.862 2
6 -1 4 860.886 236.453 1
6 -1 5 858.575 243.194 1
6 -1 6 2509.57 389.389 1
6 -1 7 563.835 201.063 1
6 -1 8 -80.7297 129.689 1
6 -1 9 144.762 160.224 1
6 -1 10 205.775 134.449 1
6 0 -10 477.337 257.197 3
6 0 -9 2023.95 452.65 3
-6 0 9 2817.83 533.74 2
6 0 -8 145.762 146.069 3
-6 0 8 256.952 152.905 2
6 0 -7 98.7238 135.094 3
-6 0 7 -251.978 181.953 2
6 0 -6 1384.23 313.321 3
-6 0 6 1627.36 400.765 2
-6 0 5 9117.03 916.741 2
-6 0 4 409.692 211.197 2
-6 0 3 3590.31 552.881 2
-6 0 2 23.488 121.95 2
-6 0 1 363.603 175.355 2
-6 0 0 8417.85 802.316 2
-6 0 -1 3602.37 513.5 2
-6 0 -2 15956.2 1100.66 2
-6 0 -3 35393.5 1728.52 2
-6 0 -4 3331.22 465.767 2
6 0 4 2846.16 376.862 1
6 0 5 2438.27 355.347 1
6 0 6 5135.99 535.535 1
6 0 7 246.439 135.066 1
6 0 8 774.672 231.716 1
6 0 9 901.825 260.889 1
6 0 10 222.532 154.606 1
-6 -1 10 584.999 257.152 2
6 1 -9 64.3132 92.0746 3
-6 -1 9 327.743 194.853 2
6 1 -8 1228.57 346.23 3
-6 -1 8 1208.68 337.434 2
6 1 -7 2342.84 432.803 3
-6 -1 7 2614.07 495.818 2
6 1 -6 3040.41 464.008 3
-6 -1 6 3044.23 508.407 2
6 1 -5 1666.94 317.765 3
-6 -1 5 1136.43 325.345 2
6 1 -4 3927 459.808 3
-6 -1 4 3964.77 563.404 2
6 1 -3 3046.24 374.615 3
-6 -1 3 2276.37 422.128 2
-6 -1 2 246.42 202.873 2
-6 -1 1 163.24 155.433 2
-6 -1 0 7315.21 709.479 2
-6 -1 -1 139.514 134.724 2
-6 -1 -2 5028.21 566.854 2
-6 -1 -3 102.302 107.674 2
6 1 3 488.577 156.102 1
-6 -1 -4 2058.88 340.388 2
6 1 4 1960.59 302.689 1
6 1 5 7872.22 620.495 1
6 1 6 121.841 117.728 1
6 1 7 6669.02 606.83 1
6 1 8 77.1755 108.972 1
6 1 9 430.626 174.931 1
6 1 10 18.6837 146.814 1
6 1 11 1207.14 310.973 1
-6 -2 10 183.382 166.307 2
6 2 -9 547.354 230.817 3
-6 -2 9 767.434 271.168 2
6 2 -8 878.411 309.468 3
-6 -2 8 1138.99 337.62 2
6 2 -7 1872.53 389.604 3
-6 -2 7 2810.99 496.957 2
-6 -2 6 12090.5 1020.76 2
6 2 -6 11402.9 937.757 3
6 2 -5 1878.64 359.324 3
-6 -2 5 2802.95 477.481 2
6 2 -4 4244.98 491.637 3
-6 -2 4 4347.84 579.329 2
-6 -2 3 8697.57 817.014 2
6 2 -3 8865.96 687.785 3
6 2 -2 1082.21 219.017 3
-6 -2 2 715.751 234.576 2
-6 -2 1 18592 1200.89 2
6 2 -1 18510.5 916.979 3
-6 -2 0 772.972 228.532 2
-6 -2 -1 961.166 244.578 2
-6 -2 -2 -48.913 104.514 2
6 2 3 1722.45 257.279 1
-6 -2 -3 1669.29 300.725 2
6 2 4 5871.42 504.386 1
-6 -2 -4 6149.31 552.208 2
6 2 5 668.935 213.991 1
6 2 6 3596.52 411.465 1
6 2 7 802.867 212.432 1
6 2 8 1799.01 310.83 1
6 2 9 2273.72 359.973 1
6 2 10 2.01614 91.6263 1
6 2 11 165.738 124.976 1
6 3 -9 3516.02 615.976 3
-6 -3 9 2789.94 513.322 2
6 3 -8 279.401 179.807 3
-6 -3 8 518.691 227.11 2
6 3 -7 1201.38 328.455 3
-6 -3 7 1648.8 383.299 2
6 3 -6 461.727 217.432 3
-6 -3 6 612.026 250.161 2
6 3 -5 945.334 267.494 3
-6 -3 5 1856.68 389.247 2
-6 -3 4 9789.89 864.172 2
6 3 -4 8730.39 756.885 3
-6 -3 3 6695.09 689.729 2
6 3 -3 5817.85 574.727 3
-6 -3 2 36644.9 1742.84 2
6 3 -2 32977.3 1494.76 3
6 3 -1 2549.06 328.908 4
6 3 -1 2465.59 321.556 3
-6 -3 1 2288.73 385.081 2
-6 -3 0 11252.8 842.135 2
6 3 0 9180.17 637.23 3
-6 -3 -1 9660.23 755.3 2
-6 -3 -2 82.5635 102.624 2
6 3 3 1270.37 221.651 1
-6 -3 -3 1658.5 289.344 2
6 3 4 38768.3 1538.04 1
-6 -3 -4 39542.7 1602.22 2
6 3 5 14507.1 814.933 1
6 3 6 121147 3729.26 1
6 3 7 395.983 188.295 1
6 3 8 14.1117 81.7881 1
6 3 9 1340.83 283.63 1
6 3 10 -100.267 104.576 1
6 3 11 143.702 137.859 1
6 4 -8 455.924 258.907 3
6 4 -7 1776.4 429.958 3
6 4 -6 209.919 192.748 3
-6 -4 6 253.158 187.821 2
6 4 -5 271.129 174.295 3
-6 -4 5 674.657 248.518 2
6 4 -4 3896.87 508.623 3
-6 -4 4 4079.23 534.521 2
6 4 -3 333.903 186.459 3
-6 -4 3 944.252 295.172 2
6 4 -2 447.88 158.121 3
-6 -4 2 613.273 227.266 2
6 4 -1 754.13 189.186 3
6 4 -1 397.377 145.699 4
-6 -4 1 785.666 217.262 2
6 4 0 13028.7 843.323 4
-6 -4 0 13530.3 907.918 2
6 4 1 18.3605 92.1472 4
-6 -4 -1 149.07 137.854 2
6 4 2 -29.7615 72.1711 1
-6 -4 -2 330.985 138.309 2
6 4 3 5813.17 449.283 1
-6 -4 -3 5285.28 489.95 2
-6 -4 -4 3082.27 353.755 2
6 4 4 2505.65 300.782 1
6 4 5 117826 3541.88 1
6 4 6 37907.1 1528.08 1
6 4 7 419.409 161.454 1
6 4 8 507.84 161.782 1
6 4 9 1019.76 251.205 1
6 4 10 133.982 103.143 1
6 4 11 258.701 143.539 1
6 4 12 261.446 169.912 1
6 5 -7 259.937 199.66 3
6 5 -6 -372.665 206.722 3
6 5 -5 3782.23 556.524 3
6 5 -4 16.7949 136.867 3
6 5 -3 81397.7 3039.67 3
6 5 -2 1582.14 326.441 3
-6 -5 2 2091.74 370.873 2
6 5 -1 6278.12 551.49 4
-6 -5 1 7523.27 683.545 2
6 5 0 604.526 189.847 4
-6 -5 0 887.718 236.154 2
6 5 1 5937.56 583.809 4
-6 -5 -1 6192.01 571.984 2
6 5 2 5615.78 585.151 4
-6 -5 -2 6818.1 570.054 2
6 5 3 2249.3 374.616 4
6 5 4 18626.4 1174.44 4
6 5 4 17211.5 813.366 1
6 5 5 19303.3 914.609 1
6 5 6 4274.33 405.952 1
6 5 7 193.426 123.292 1
6 5 8 567.109 167.994 1
6 5 9 196.094 113.262 1
6 5 10 -37.5774 70.3226 1
6 5 11 499.915 200.022 1
6 5 12 -75.7591 111.983 1
6 6 -7 -121.97 153.048 3
6 6 -6 1451.74 379.5 3
6 6 -5 1553.36 379.425 3
6 6 -4 23448.3 1463.59 3
6 6 -3 60363.5 2562.48 3
6 6 -2 900.79 241.196 3
6 6 -1 3532.27 423.17 4
6 6 0 6433.09 603.384 4
6 6 1 2066.47 351.208 4
6 6 2 824.941 227.724 4
6 6 3 17036.6 1150.17 4
6 6 4 182.477 161.029 4
6 6 5 1965.67 383.811 4
6 6 6 7790.05 801.628 4
6 6 7 53.2287 145.986 4
6 6 8 175.778 170.207 4
6 6 8 264.589 129.349 1
6 6 9 1572.45 285.265 1
6 6 9 2367.17 477.4 4
6 6 10 -19.2514 96.5214 1
6 6 10 2.28974 104.981 4
6 6 11 179.943 140.286 1
6 6 11 220.335 190.379 4
6 6 12 204.927 144.885 1
6 6 12 636.458 282.582 4
6 7 -6 4056.56 659.981 3
6 7 -5 879.282 334.15 3
6 7 -4 3891.58 590.933 3
6 7 -3 580.268 243.764 3
6 7 -1 6762.35 631.577 4
6 7 0 2148.99 364.047 4
6 7 1 287.63 150.861 4
6 7 2 431.753 186.439 4
6 7 3 631.957 238.515 4
6 7 4 179.352 135.12 4
6 7 5 462.302 212.848 4
6 7 6 1518.9 377.403 4
6 7 7 2972.93 503.913 4
6 7 8 5397.64 708.247 4
6 7 9 4454.17 647.077 4
6 7 10 185.883 185.726 4
6 7 11 514.346 265.657 4
6 7 12 -81.7243 161.329 4
6 8 -4 160.392 198.961 3
6 8 -3 336.791 191.716 3
6 8 -1 206.909 188.085 4
6 8 0 209.499 150.905 4
6 8 1 2375.16 409.991 4
6 8 2 508.803 191.502 4
6 8 3 103.943 159.597 4
6 8 4 149.516 162.614 4
6 8 5 32.7939 160.643 4
6 8 6 143.821 140.304 4
6 8 7 2810.15 504.02 4
6 8 8 8771.59 914.579 4
6 8 9 223.38 178.651 4
6 8 10 175.929 209.759 4
6 8 11 225.797 198.484 4
6 9 -3 309.452 212.665 3
6 9 -1 3726.66 519.165 4
6 9 0 6798.15 722.573 4
6 9 1 -5.01331 89.2164 4
6 9 2 878.041 287.823 4
6 9 3 347.086 192.092 4
6 9 4 50.0282 120.534 4
6 9 5 4077.71 612.391 4
6 9 6 -79.6772 140.355 4
6 9 7 4509.96 656.597 4
6 9 8 665.755 259.242 4
6 9 9 1410.78 400.994 4
6 10 -1 4676.82 635.752 4
6 10 0 2036.12 419.58 4
6 10 1 212.28 156.687 4
6 10 2 200.339 180.157 4
6 10 3 217.963 199.971 4
6 10 4 3291.03 552.129 4
6 10 5 -49.5463 138.834 4
6 10 6 235.153 197.065 4
6 10 7 1591.84 411.506 4
-7 4 4 195.651 238.173 2
-7 4 3 876.975 375.32 2
-7 4 2 360.009 258.682 2
-7 4 1 480.442 296.316 2
-7 4 0 687.275 361.905 2
-7 4 -1 1062.01 374.747 2
-7 4 -2 32.8277 174.854 2
-7 4 -3 292.208 228.328 2
7 -4 3 826.461 256.629 1
7 -4 4 404.716 207.994 1
-7 4 -4 529.797 296.432 2
-7 3 6 510.834 315.872 2
-7 3 5 183.836 215.224 2
-7 3 4 664.211 343.869 2
-7 3 3 354.556 256.483 2
-7 3 2 847.755 333.432 2
-7 3 1 3332.07 636.363 2
-7 3 0 317.422 219.765 2
-7 3 -1 -94.8651 138.287 2
-7 3 -2 -34.4649 115.887 2
-7 3 -3 464.726 279.538 2
7 -3 3 -42.3145 138.498 1
-7 3 -4 1065.03 337.756 2
7 -3 4 275.313 163.726 1
7 -3 5 2225.71 413.576 1
7 -3 6 828.365 268.279 1
-7 2 7 157.115 194.757 2
-7 2 6 562.291 295.165 2
-7 2 5 378.026 234.526 2
-7 2 4 2094.06 505.982 2
-7 2 3 2274.56 505.987 2
-7 2 2 572.62 301.105 2
-7 2 1 6062.56 823.923 2
-7 2 0 917.023 345.449 2
-7 2 -1 3052.15 569.288 2
-7 2 -2 34.6214 134.56 2
-7 2 -3 -93.4874 171.909 2
-7 2 -4 1783.95 421.957 2
7 -2 4 1991.76 379.66 1
7 -2 5 238.275 155.558 1
7 -2 6 9338.02 823.876 1
7 -2 7 7651.65 743.59 1
-7 1 8 420.416 246.703 2
-7 1 7 651.315 308.002 2
-7 1 6 78.851 211.409 2
-7 1 5 411.396 274.812 2
-7 1 4 238.696 182.738 2
-7 1 3 1710.25 430.573 2
-7 1 2 48771.8 2510.66 2
-7 1 1 18475.8 1422.43 2
-7 1 0 25.9275 196.975 2
-7 1 -1 351.147 218.83 2
-7 1 -2 771.386 286.898 2
-7 1 -3 -103.662 120.562 2
7 -1 4 6572.19 646.673 1
-7 1 -4 6393.59 752.936 2
7 -1 5 333.301 159.458 1
7 -1 6 667.905 240.241 1
7 -1 7 450.41 194.081 1
7 -1 8 432.491 204.652 1
-7 0 8 620.883 277.038 2
-7 0 7 641.591 317.035 2
-7 0 6 39.4791 206.806 2
-7 0 5 294.602 235.986 2
-7 0 4 2413.29 509.769 2
-7 0 3 21843.9 1539.74 2
-7 0 2 46700.7 2376.94 2
-7 0 1 149.688 148.567 2
-7 0 0 1928.35 436.999 2
-7 0 -1 5146.56 670.098 2
-7 0 -2 93.8788 166.939 2
-7 0 -3 2327.01 437.773 2
-7 0 -4 145.492 125.277 2
7 0 4 345.799 185.572 1
7 0 5 743.024 229.343 1
7 0 6 156.664 125.032 1
7 0 7 2853.04 435.246 1
7 0 8 93.452 138.982 1
7 0 9 95.9385 88.551 1
-7 -1 8 154.34 188.522 2
-7 -1 7 58.6399 146.381 2
-7 -1 6 266.083 238.478 2
-7 -1 5 10942.3 1050.79 2
-7 -1 4 2687.16 520.869 2
-7 -1 3 906.926 319.031 2
-7 -1 2 1063.96 297.968 2
-7 -1 1 1173.93 315.843 2
-7 -1 0 1266.33 327.444 2
-7 -1 -1 2256.11 424.025 2
-7 -1 -2 1806.68 381.499 2
-7 -1 -3 3184.31 483.975 2
-7 -1 -4 -77.6238 133.08 2
7 1 4 522.62 184.814 1
7 1 5 4372.23 497.895 1
7 1 6 147.076 125.58 1
7 1 7 1403.63 284.621 1
7 1 8 576.59 214.771 1
7 1 9 1944.86 367.158 1
7 1 10 2915.35 467.152 1
7 2 -8 30.3405 90.5524 3
-7 -2 8 363.983 260.639 2
7 2 -7 217.369 163.377 3
-7 -2 7 59.4281 174.322 2
7 2 -6 293.984 184.083 3
-7 -2 6 235.982 198.603 2
-7 -2 5 364.463 218.206 2
-7 -2 4 2817.46 501.408 2
-7 -2 3 216.628 294.86 2
-7 -2 2 1615.71 359.552 2
-7 -2 1 -6.25645 105.188 2
-7 -2 0 591.402 210.022 2
-7 -2 -1 819.29 262.881 2
-7 -2 -2 117.796 140.535 2
7 2 3 62.4933 107.508 1
-7 -2 -3 128.673 115.81 2
7 2 4 339.324 148.978 1
-7 -2 -4 108.897 107.517 2
7 2 5 339.87 153.341 1
7 2 6 532.247 174.792 1
7 2 7 394.102 183.284 1
7 2 8 232.705 158.453 1
7 2 9 5084.21 588.948 1
7 2 10 697.808 244.796 1
7 3 -8 1509.16 414.413 3
-7 -3 8 653.73 260.024 2
7 3 -7 723.533 273.853 3
-7 -3 7 927.803 330.098 2
7 3 -6 375.729 183.809 3
-7 -3 6 422.239 208.208 2
7 3 -5 2040.84 394.244 3
-7 -3 5 1734.2 399.628 2
7 3 -4 275.008 170.257 3
-7 -3 4 478.584 204.358 2
7 3 -3 817.334 227.1 3
-7 -3 3 1035.25 308.818 2
-7 -3 2 1339.2 330.409 2
-7 -3 1 4144.04 559.563 2
-7 -3 0 5934.28 658.998 2
-7 -3 -1 46905.2 2095.31 2
-7 -3 -2 630.105 226.869 2
-7 -3 -3 1860.09 337.444 2
7 3 3 1851.72 289.584 1
7 3 4 12.1777 85.901 1
7 3 5 1233.7 256.717 1
7 3 6 5453.71 529.024 1
7 3 7 1504.29 292.635 1
7 3 8 742.096 224.614 1
7 3 9 587.517 200.048 1
7 3 10 30.9139 134.2 1
7 4 -7 310.574 203.757 3
-7 -4 7 177.931 165.607 2
7 4 -6 -48.6848 136.853 3
-7 -4 6 434.487 228.479 2
7 4 -5 2899.62 483.395 3
-7 -4 5 3683.11 559.452 2
7 4 -4 731.736 235.78 3
-7 -4 4 874.474 275.312 2
7 4 -3 2461.84 396.687 3
-7 -4 3 2626.81 459.731 2
-7 -4 2 5898.15 673.534 2
7 4 -2 4635.91 522.175 3
7 4 -1 2078.52 327.953 3
-7 -4 1 2262.33 405.58 2
7 4 0 16793.3 1030.13 4
-7 -4 0 17502.1 1140.07 2
7 4 0 15926.6 943.495 3
7 4 1 5548.11 585.509 4
-7 -4 -1 6290.41 642.547 2
7 4 2 1412.22 248.891 1
-7 -4 -2 1653.26 314.853 2
-7 -4 -3 46.1861 100.607 2
7 4 3 -32.9773 68.8113 1
7 4 4 4576.86 442.334 1
7 4 5 215.241 145.425 1
7 4 6 1812.91 291.272 1
7 4 7 731.213 190.185 1
7 4 8 1116.6 260.883 1
7 4 9 3.21886 88.6724 1
7 4 10 30.5287 101.305 1
7 4 11 367.837 193.845 1
7 5 -7 572.887 290.478 3
7 5 -6 1008.43 318.351 3
7 5 -5 -98.5863 178.442 3
-7 -5 4 4865.29 635.824 2
7 5 -4 5271.68 652.034 3
-7 -5 3 14489.2 1087.19 2
7 5 -3 13927.2 1049.72 3
-7 -5 2 27483.2 1529.93 2
7 5 -2 26347.4 1441.49 3
7 5 -1 1118.71 268.844 3
-7 -5 1 997.023 280.147 2
7 5 0 94.1066 91.2587 4
-7 -5 0 274.29 169.529 2
7 5 1 1764.24 330.813 4
-7 -5 -1 2405.01 394.25 2
7 5 2 387.31 190.17 4
-7 -5 -2 275.058 140.009 2
7 5 3 256.887 183.643 4
-7 -5 -3 318.638 149.658 2
7 5 5 814.118 188.422 1
7 5 6 1033.31 215.583 1
7 5 7 940.064 221.102 1
7 5 8 388.328 154.624 1
7 5 9 -76.1284 110.15 1
7 5 10 791.634 232.445 1
7 5 11 88.5248 133.042 1
7 6 -6 296.249 230.303 3
7 6 -5 175.793 172.154 3
7 6 -4 126.472 168.008 3
7 6 -3 985.869 294.645 3
7 6 -2 675.451 292.141 3
7 6 0 1959.58 345.511 4
7 6 1 45.4743 146.329 4
7 6 2 691.282 227.275 4
7 6 3 30.7302 108.178 4
7 6 4 5239.01 649.772 4
7 6 5 649.412 255.983 4
7 6 6 2110.69 440.827 4
7 6 7 801.994 277.73 4
7 6 8 247.401 228.241 4
7 6 9 888.748 333.521 4
7 6 10 424.537 185.864 1
7 6 10 475.336 251.154 4
7 6 11 794.768 241.319 1
7 6 11 674.06 274.979 4
7 7 -5 837.856 299.742 3
7 7 -4 1672.46 416.034 3
7 7 -3 760.018 280.991 3
7 7 -2 1669.38 383.501 3
7 7 0 731.455 228.509 4
7 7 1 -52.5754 90.2977 4
7 7 2 545.608 219.066 4
7 7 3 6767.01 727.61 4
7 7 4 6143.17 703.622 4
7 7 5 147.622 174.474 4
7 7 6 123.915 158.454 4
7 7 7 5305.37 730.823 4
7 7 8 281.119 216.849 4
7 7 9 156.156 179.971 4
7 7 10 374.209 249.217 4
7 8 -4 759.237 288.612 3
7 8 -3 227.384 186.883 3
7 8 -2 557.368 230.953 3
7 8 0 1887.36 365.834 4
7 8 1 740.815 236.479 4
7 8 2 1832.16 379.587 4
7 8 3 8782.57 860.758 4
7 8 4 482.838 241.432 4
7 8 5 1308.52 365.673 4
7 8 6 135.64 126.868 4
7 8 7 48.2987 116.623 4
7 8 8 446.258 244.539 4
7 8 9 112.102 168.268 4
7 9 -2 503.811 267.92 3
7 9 0 1550.84 358.744 4
7 9 1 231.141 129.231 4
7 9 2 -59.4378 93.3426 4
7 9 3 179.842 182.336 4
7 9 4 -111.921 123.7 4
7 9 5 942.182 316.902 4
7 9 6 131.454 195.014 4
7 9 7 1399.87 376.525 4
7 9 8 568.627 282.311 4
7 10 0 23.1836 119.433 4
7 10 1 542.067 241.319 4
7 10 2 2000.4 428.928 4
7 10 3 38.2694 142.843 4
7 10 4 450.999 243.925 4
7 10 5 264.745 156.631 4
7 10 6 554.862 261.527 4
-8 3 1 1112.43 439.912 2
-8 3 0 779.679 315.579 2
-8 3 -1 1498.87 447.062 2
-8 3 -2 4413.03 776.047 2
-8 3 -3 281.534 253.793 2
-8 2 4 165.425 196.352 2
-8 2 3 42.2708 229.81 2
-8 2 2 213.353 206.416 2
-8 2 1 2997.77 627.203 2
-8 2 0 793.292 342.969 2
-8 2 -1 81.2256 204.764 2
-8 2 -2 2313.56 531.722 2
-8 2 -3 531.714 300.361 2
8 -2 3 377.641 192.386 1
8 -2 4 867.937 257.632 1
-8 1 5 -30.6612 137.746 2
-8 1 4 588.268 311.408 2
-8 1 3 173.176 201.981 2
-8 1 2 859.392 352.151 2
-8 1 1 13191.4 1278.19 2
-8 1 0 2079.41 510.815 2
-8 1 -1 1249.86 416.124 2
-8 1 -2 1307.98 393.334 2
-8 1 -3 683.379 307.639 2
8 -1 3 373.231 188.086 1
8 -1 4 -38.7433 134.005 1
8 -1 5 1637.92 346.953 1
8 -1 6 1313.08 320.094 1
-8 0 5 49.4164 211.69 2
-8 0 4 5010.14 768.501 2
-8 0 3 5729.63 818.515 2
-8 0 2 1391.9 422.948 2
-8 0 1 987.495 352.974 2
-8 0 0 1869.34 472.695 2
-8 0 -1 639.646 314.876 2
-8 0 -2 32.4061 112.107 2
-8 0 -3 775.11 297.821 2
8 0 4 251.781 131.429 1
8 0 5 4165.4 539.496 1
8 0 6 445.019 195.751 1
8 0 7 157.906 147.684 1
-8 -1 6 759.168 339.121 2
-8 -1 5 70.4542 183.297 2
-8 -1 4 120.614 201.889 2
-8 -1 3 6996.51 869.474 2
-8 -1 2 813.359 303.262 2
-8 -1 1 27.9225 130.225 2
-8 -1 0 2697.06 515.019 2
-8 -1 -1 63.7228 179.391 2
-8 -1 -2 228.653 185.025 2
-8 -1 -3 1143.91 343.806 2
8 1 3 1606.61 321.087 1
8 1 4 1037.88 256.553 1
8 1 5 6811.93 671.431 1
8 1 6 405.722 166.752 1
8 1 7 235.743 109.14 1
8 1 8 140.939 125.707 1
-8 -2 6 64.1345 148.708 2
-8 -2 5 546.139 249.112 2
-8 -2 4 2928.74 554.735 2
-8 -2 3 1594.48 420.187 2
-8 -2 2 483.613 255.806 2
-8 -2 1 113.988 148.443 2
-8 -2 0 94.1606 105.617 2
-8 -2 -1 3800.23 584.403 2
-8 -2 -2 5032.36 668.169 2
8 2 3 4560.2 514.672 1
-8 -2 -3 3025.86 499.045 2
8 2 4 3940.14 497.09 1
8 2 5 144.696 148.563 1
8 2 6 321.212 178.764 1
8 2 7 532.505 197.433 1
8 2 8 442.209 204.166 1
8 2 9 -11.2431 132.909 1
-8 -3 6 273.95 190.875 2
-8 -3 5 13.2622 107.58 2
-8 -3 4 6975.21 844.932 2
-8 -3 3 1415.68 374.702 2
-8 -3 2 551.045 244.742 2
-8 -3 1 794.66 278.508 2
-8 -3 0 1073.65 304.786 2
-8 -3 -1 1361.59 332.872 2
-8 -3 -2 2028.89 405.582 2
8 3 3 952.76 253.576 1
-8 -3 -3 783.5 255.725 2
8 3 4 696.026 204.571 1
8 3 5 453.856 184.525 1
8 3 6 17.3855 93.4573 1
8 3 7 238.386 152.675 1
8 3 8 2751.84 416.704 1
8 3 9 270.965 185.939 1
-8 -4 5 3124.97 555.811 2
-8 -4 4 107.37 178.058 2
-8 -4 3 1170.95 347.96 2
-8 -4 2 2216.65 439.483 2
-8 -4 1 1399.04 347.876 2
-8 -4 0 3551.68 540.622 2
-8 -4 -1 170.342 164.793 2
-8 -4 -2 190.669 141.499 2
8 4 2 63.0518 83.8449 1
8 4 3 1529.08 281.205 1
-8 -4 -3 1271.89 300.896 2
8 4 4 1101.9 244.985 1
8 4 5 46.5361 113.606 1
8 4 6 4495.58 494.851 1
8 4 7 2021.06 337.196 1
8 4 8 10402.5 827.735 1
8 4 9 416.767 167.382 1
8 4 10 381.071 208.12 1
8 5 -6 312.536 228.954 3
8 5 -5 515.311 265.731 3
-8 -5 5 145.837 179.668 2
8 5 -4 184.709 131.584 3
-8 -5 4 768.685 303.38 2
8 5 -3 -20.2768 113.866 3
-8 -5 3 632.265 244.707 2
-8 -5 2 2047.3 412.134 2
-8 -5 1 3043.75 497.17 2
-8 -5 0 689.238 250.089 2
8 5 1 736.923 234.003 4
-8 -5 -1 785.99 253.217 2
8 5 2 -169.177 132.554 4
-8 -5 -2 -65.7227 81.2093 2
8 5 3 1128.56 298.656 4
-8 -5 -3 1405.58 303.192 2
8 5 6 -23.1235 87.5001 1
8 5 7 25644.1 1294.66 1
8 5 8 7181.82 655.889 1
8 5 9 195.785 156.447 1
8 5 10 -17.7111 93.5173 1
8 6 -5 311.142 210.413 3
8 6 -4 52.4712 150.789 3
8 6 -3 2429.35 446.959 3
8 6 -2 147.815 197.499 3
-8 -6 1 18303.2 1250.02 2
8 6 -1 14624.5 1092.47 3
-8 -6 0 1942.42 387.396 2
-8 -6 -1 514.831 211.405 2
8 6 1 89.4774 100.643 4
8 6 2 9.79836 137.438 4
8 6 3 427.039 209.877 4
8 6 4 -11.4909 134.056 4
8 6 5 -62.6257 131.861 4
8 6 6 9487.51 986.03 4
8 6 7 9013.23 966.929 4
8 7 -4 228.001 207.884 3
8 7 -3 1326.61 372.521 3
8 7 -2 12573.1 1077.69 3
8 7 -1 20645 1369.47 3
8 7 1 813.378 261.259 4
8 7 2 176.953 156.667 4
8 7 3 857.15 280.025 4
8 7 4 1002.91 299.901 4
8 7 5 239.645 214.483 4
8 7 6 239.628 202.137 4
8 7 7 67.6254 176.961 4
8 7 8 7.33409 193.121 4
8 8 -2 5633.12 755.493 3
8 8 -1 269.048 195.094 3
8 8 1 84.3853 132.597 4
8 8 2 125.479 140.985 4
8 8 3 -75.0757 91.5359 4
8 8 4 3867.44 610.93 4
8 8 5 296.446 198.164 4
8 8 6 189.616 193.609 4
8 8 7 49.4773 132.523 4
8 9 1 276.773 186.677 4
8 9 2 1244.77 349.447 4
8 9 3 132.203 158.19 4
8 9 4 76.4921 152.497 4
8 9 5 267.147 199.649 4
8 9 6 218.652 218.296 4
8 10 2 438.882 223.487 4
8 10 3 186.133 141.583 4
-9 1 1 145.747 244.064 2
-9 1 0 982.095 443.076 2
-9 1 -1 850.096 364.932 2
-9 1 -2 61.652 187.11 2
-9 0 2 1045.59 411.472 2
-9 0 1 766.026 338.017 2
-9 0 0 19447.5 1593.63 2
-9 0 -1 3839.31 687.936 2
-9 0 -2 186.843 203.983 2
9 0 3 64.1295 147.787 1
9 0 4 62.7888 96.4082 1
-9 -1 3 169.729 195.491 2
-9 -1 2 76.5217 196.651 2
-9 -1 1 7432.45 941.202 2
-9 -1 0 11717.7 1176.57 2
-9 -1 -1 1967.75 483.485 2
-9 -1 -2 17.9989 122.792 2
9 1 3 911.49 265.061 1
9 1 4 -30.3345 105.66 1
9 1 5 -98.3202 93.8678 1
9 1 6 131.142 166.963 1
-9 -2 3 1705.92 455.088 2
-9 -2 2 2694.2 569.182 2
-9 -2 1 3391.53 623.661 2
-9 -2 0 422.092 258.638 2
-9 -2 -1 68.4312 143.802 2
-9 -2 -2 160.106 158.336 2
9 2 3 645.456 228.786 1
9 2 4 481.712 197.695 1
9 2 5 307.312 193.416 1
9 2 6 4.13105 77.0908 1
9 2 7 298.455 183.568 1
-9 -3 3 702.164 296.587 2
-9 -3 2 -38.4444 148.294 2
-9 -3 1 84.4737 116.725 2
-9 -3 0 206.596 180.724 2
-9 -3 -1 -186.758 158.05 2
-9 -3 -2 93.5751 158.907 2
9 3 3 759.881 244.924 1
9 3 4 84.3509 86.8805 1
9 3 5 69.1857 107.591 1
9 3 6 1535.03 318.409 1
9 3 7 356.772 191.178 1
9 3 8 113.644 154.671 1
-9 -4 3 1230.03 373.302 2
-9 -4 2 -44.54 166.862 2
-9 -4 1 -183.71 197.249 2
-9 -4 0 261.733 154.439 2
-9 -4 -1 2353.44 460.69 2
-9 -4 -2 242.469 195.312 2
9 4 3 6415.4 617.982 1
9 4 4 297.709 155.38 1
9 4 5 35.4921 119.433 1
9 4 6 300.055 140.175 1
9 4 7 101.029 126.857 1
9 4 8 741.744 244.637 1
-9 -5 3 409.887 233.408 2
-9 -5 2 193.903 159.387 2
-9 -5 1 216.727 185.022 2
-9 -5 0 1136.59 328.903 2
-9 -5 -1 651.126 245.473 2
9 5 2 6396.12 738.308 4
-9 -5 -2 6559.02 728.808 2
9 5 3 1165.14 345.853 4
9 5 9 -50.4475 101.039 1
-9 -6 2 846.045 290.097 2
-9 -6 1 5370.64 703.88 2
-9 -6 0 2694.72 490.655 2
-9 -6 -1 1412.7 353.142 2
9 6 2 1571.51 369.849 4
-9 -6 -2 1174.4 307.93 2
9 6 3 3104.06 549.654 4
9 6 4 603.305 261.357 4
9 6 5 241.401 211.858 4
9 6 6 852.578 333.79 4
9 6 7 697.771 339.821 4
9 7 2 129.959 141.563 4
9 7 3 220.468 181.119 4
9 7 4 120.876 140.304 4
9 7 5 362.391 205.502 4
9 7 6 1719.82 434.756 4
9 8 3 837.861 335.215 4
9 8 4 144.057 175.163 4
9 8 5 1815.5 452.067 4
9 9 3 -37.2222 110.01 4
-10 -1 -1 273.601 254.796 2
-10 -1 -2 208.491 203.651 2
-10 -2 0 767.69 345.001 2
-10 -2 -1 149.338 205.123 2
-10 -2 -2 -191.397 178.923 2
10 2 3 92.5076 129.537 1
-10 -3 0 382.052 251.417 2
-10 -3 -1 -84.4889 129.687 2
10 3 2 -108.776 139.916 1
-10 -3 -2 -53.0167 136.598 2
10 3 3 327.001 176.088 1
10 3 4 632.513 226.307 1
10 3 5 408.447 200.99 1
-10 -4 0 -74.3243 135.551 2
-10 -4 -1 430.006 238.449 2
-10 -4 -2 -53.4113 111.882 2
10 4 6 117.394 128.523 1
-10 -5 0 207.906 197.321 2
-10 -5 -1 55.5182 127.179 2
-10 -5 -2 237.026 181.962 2
-10 -6 -1 1653.41 408.228 2
10 6 4 -116.575 130.072 4
10 6 5 170.995 191.845 4
10 7 4 297.097 207.34 4
