#------------------------------------------------------------------------------
#$Date: 2016-03-04 13:46:30 +0200 (Fri, 04 Mar 2016) $
#$Revision: 177490 $
#$URL: svn://www.crystallography.net/cod/cif/1/54/25/1542512.cif $
#------------------------------------------------------------------------------
#
# This file is available in the Crystallography Open Database (COD),
# http://www.crystallography.net/
#
# All data on this site have been placed in the public domain by the
# contributors.
#
data_1542512
loop_
_publ_author_name
'Golen, James A.'
'Manke, David R.'
_publ_section_title
;
 4-Iodo-1<i>H</i>-indole-2,3-dione
;
_journal_coeditor_code           SU4013
_journal_issue                   2
_journal_name_full               IUCrData
_journal_page_first              x160215
_journal_paper_doi               10.1107/S2414314616002157
_journal_volume                  1
_journal_year                    2016
_chemical_formula_iupac          'C8 H4 I N O2'
_chemical_formula_moiety         'C8 H4 I N O2'
_chemical_formula_sum            'C8 H4 I N O2'
_chemical_formula_weight         273.02
_chemical_name_systematic
;
4-Iodo-1<i>H</i>-indole-2,3-dione
;
_space_group_crystal_system      monoclinic
_space_group_IT_number           14
_space_group_name_Hall           '-P 2ybc'
_space_group_name_H-M_alt        'P 1 21/c 1'
_symmetry_space_group_name_Hall  '-P 2ybc'
_symmetry_space_group_name_H-M   'P 1 21/c 1'
_atom_sites_solution_hydrogens   mixed
_cell_angle_alpha                90
_cell_angle_beta                 91.249(5)
_cell_angle_gamma                90
_cell_formula_units_Z            4
_cell_length_a                   7.6138(9)
_cell_length_b                   13.9658(17)
_cell_length_c                   7.3866(10)
_cell_measurement_reflns_used    7683
_cell_measurement_temperature    298(2)
_cell_measurement_theta_max      25.73
_cell_measurement_theta_min      2.92
_cell_volume                     785.25(17)
_computing_cell_refinement
;
SAINT (Bruker, 2014)
;
_computing_data_collection
;
APEX2 (Bruker, 2014)
;
_computing_data_reduction
;
SAINT (Bruker, 2014)
;
_computing_molecular_graphics
;
<i>OLEX2</i> (Dolomanov <i>et al.</i>,  2009) and Mercury (Macrae <i>et
al.</i>,  2008)
;
_computing_publication_material
;
<i>OLEX2</i> (Dolomanov <i>et al.</i>,  2009) and publCIF (Westrip,
2010)
;
_computing_structure_refinement
;
SHELXL2014 (Sheldrick, 2015)
;
_computing_structure_solution
;
SHELXS97 (Sheldrick, 2008)
;
_diffrn_ambient_temperature      297.68
_diffrn_measured_fraction_theta_full 0.995
_diffrn_measured_fraction_theta_max 0.991
_diffrn_measurement_device_type  'Bruker D8 Venture CMOS'
_diffrn_measurement_method       '\f and \w scans'
_diffrn_radiation_type           MoK\a
_diffrn_radiation_wavelength     0.71073
_diffrn_reflns_av_R_equivalents  0.0504
_diffrn_reflns_limit_h_max       9
_diffrn_reflns_limit_h_min       -9
_diffrn_reflns_limit_k_max       17
_diffrn_reflns_limit_k_min       -17
_diffrn_reflns_limit_l_max       9
_diffrn_reflns_limit_l_min       -9
_diffrn_reflns_number            16058
_diffrn_reflns_theta_full        25.250
_diffrn_reflns_theta_max         25.742
_diffrn_reflns_theta_min         2.917
_diffrn_standards_number         0
_exptl_absorpt_coefficient_mu    4.029
_exptl_absorpt_correction_T_max  0.2594
_exptl_absorpt_correction_T_min  0.1815
_exptl_absorpt_correction_type   multi-scan
_exptl_absorpt_process_details
;
(SADABS; Bruker, 2014)
;
_exptl_crystal_colour            orange
_exptl_crystal_density_diffrn    2.309
_exptl_crystal_description       rod
_exptl_crystal_F_000             512
_exptl_crystal_size_max          0.25
_exptl_crystal_size_mid          0.1
_exptl_crystal_size_min          0.08
_refine_diff_density_max         0.950
_refine_diff_density_min         -0.834
_refine_ls_extinction_method     none
_refine_ls_goodness_of_fit_ref   1.193
_refine_ls_hydrogen_treatment    constr
_refine_ls_matrix_type           full
_refine_ls_number_parameters     112
_refine_ls_number_reflns         1491
_refine_ls_number_restraints     1
_refine_ls_restrained_S_all      1.192
_refine_ls_R_factor_all          0.0437
_refine_ls_R_factor_gt           0.0332
_refine_ls_shift/su_max          0.001
_refine_ls_shift/su_mean         0.000
_refine_ls_structure_factor_coef Fsqd
_refine_ls_weighting_details
'w=1/[\s^2^(Fo^2^)+(0.0260P)^2^+3.7223P] where P=(Fo^2^+2Fc^2^)/3'
_refine_ls_weighting_scheme      calc
_refine_ls_wR_factor_gt          0.0761
_refine_ls_wR_factor_ref         0.0819
_reflns_number_gt                1268
_reflns_number_total             1491
_reflns_threshold_expression     'I > 2\s(I)'
_cod_data_source_file            su4013sup1.cif
_cod_data_source_block           I
_cod_depositor_comments          'Adding full bibliography for 1542512.cif.'
_cod_database_code               1542512
_cod_database_fobs_code          1542512
_shelx_space_group_comment
;
The symmetry employed for this shelxl refinement is uniquely defined
by the following loop, which should always be used as a source of
symmetry information in preference to the above space-group names.
They are only intended as comments.
;
_shelx_estimated_absorpt_t_min   0.432
_shelx_estimated_absorpt_t_max   0.739
_shelx_hkl_file
;
   0   0   2 1899.71   75.09
   0   0   2 2001.00   75.19
   0   0  -2 1945.71   75.19
   0   0  -2 1930.21   75.19
   0   0  -3   -1.80    1.70
   0   0   3   -0.40    1.80
   0   0   3   -1.80    1.90
   0   0  -3   -3.90    1.80
   0   0  -4  347.17   15.20
   0   0   4  327.47   15.00
   0   0   4  358.76   15.30
   0   0  -4  346.07   15.20
   0   0   5   -0.80    3.30
   0   0  -5    0.60    3.30
   0   0  -5    0.30    3.20
   0   0   5    3.10    2.30
   0   0   5    2.20    3.40
   0   0  -6  397.46   19.00
   0   0  -6  403.86   18.90
   0   0   6  430.06   19.30
   0   0   6  388.46   18.80
   0   0   6  429.46   18.30
   0   0  -7    2.90    5.80
   0   0  -7    0.80    5.00
   0   0   7   -2.20    5.60
   0   0   7   -1.90    3.70
   0   0   7    5.70    6.00
   0   0  -8   15.90    7.40
   0   0  -8   17.60    7.00
   0   0   8    6.70    7.50
   0   0   8   11.50    7.50
   0   0   9  -11.40    8.70
   0   0   9   -5.10    7.30
   0   0  -9   -8.90    8.60
   0   0  -9   -1.20    8.70
   0   0   9   -0.10   11.30
   0   1   1 1267.47   49.20
   0   1  -1 1225.38   48.50
   0   1   1 1308.87   48.50
   0  -1  -1 1296.07   48.60
   0  -1  -1 1261.57   49.00
   0  -1   1 1174.98   48.40
   0   1  -2  740.83   29.10
   0   1   2  730.53   29.20
   0   1   2  746.23   29.20
   0   1  -2  719.93   29.10
   0  -1   2  721.13   29.10
   0  -1  -2  735.83   29.20
   0  -1   2  755.92   29.10
   0  -1  -2  759.92   29.30
   0   1  -3   41.10    3.80
   0   1  -3   41.50    3.50
   0   1   3   41.50    3.90
   0   1   3   41.90    3.80
   0  -1  -3   44.30    3.70
   0  -1  -3   41.20    3.90
   0  -1   3   43.50    3.60
   0  -1   3   45.30    3.80
   0   1   4    1.80    2.70
   0   1   4    2.30    2.80
   0   1  -4    5.60    2.80
   0   1  -4    8.00    2.70
   0  -1  -4    4.80    2.80
   0  -1   4    4.20    2.50
   0  -1  -4    6.80    2.90
   0  -1   4    5.30    2.80
   0   1  -5  617.64   25.50
   0   1  -5  652.33   25.80
   0   1   5  584.54   25.70
   0   1   5  620.84   25.30
   0   1   5  560.14   25.50
   0  -1  -5  565.64   25.60
   0  -1  -5  593.34   25.60
   0  -1   5  623.04   25.00
   0  -1   5  595.74   25.50
   0  -1   5  650.43   25.80
   0   1   6   11.40    5.10
   0   1   6   13.10    4.60
   0   1  -6    5.70    4.50
   0   1   6    4.40    3.50
   0   1  -6    7.90    4.50
   0  -1   6    2.10    4.50
   0  -1   6    2.30    3.90
   0  -1  -6    8.60    4.70
   0  -1   6    6.60    3.30
   0  -1  -6    8.90    4.60
   0   1   7  118.99    9.40
   0   1   7  111.99   10.50
   0   1  -7  109.09    9.80
   0   1   7   98.09   10.00
   0   1  -7  105.89    9.60
   0  -1  -7   94.89   10.10
   0  -1   7  110.19    9.80
   0  -1   7  107.69   10.10
   0  -1  -7  111.79    9.90
   0  -1   7  114.69    8.50
   0   1   8   14.40    8.10
   0   1   8    1.40    7.30
   0   1  -8    4.70    6.70
   0   1  -8   10.50    7.00
   0  -1  -8    2.60    6.80
   0  -1  -8   25.30    7.60
   0  -1   8    4.60    6.80
   0  -1   8    2.50    5.60
   0  -1   8   22.60    8.10
   0  -1  -8   13.30    7.90
   0   1  -9   21.40    9.30
   0   1   9  -11.50    8.70
   0  -1   9    5.60    9.90
   0  -1  -9   -2.40    9.30
   0   2   0  563.54   21.00
   0  -2   0  540.65   21.30
   0  -2   0  485.55   20.70
   0  -2   0  522.65   20.80
   0   2   1   29.80    2.10
   0   2  -1   27.60    2.00
   0   2  -1   34.50    2.10
   0   2   1   35.50    2.40
   0   2   1   28.20    2.30
   0  -2  -1   31.20    2.30
   0  -2   1   31.90    2.10
   0  -2   1   29.60    2.10
   0  -2  -1   28.50    2.20
   0   2  -2  416.46   16.50
   0   2   2  402.96   16.60
   0   2   2  389.06   16.60
   0   2  -2  406.36   16.40
   0  -2   2  411.36   16.50
   0  -2  -2  389.96   16.60
   0  -2   2  423.56   16.50
   0  -2  -2  405.76   16.60
   0  -2  -2  414.76   16.50
   0   2   3   91.09    5.60
   0   2   3   92.59    5.60
   0   2  -3   98.29    5.30
   0   2  -3   96.99    5.40
   0  -2  -3   89.79    5.40
   0  -2   3   93.29    5.30
   0  -2   3  101.39    5.50
   0  -2  -3   97.19    5.60
   0  -2  -3   92.19    5.50
   0   2   4  418.46   18.80
   0   2  -4  468.35   18.80
   0   2   4  428.16   18.50
   0   2  -4  440.36   18.60
   0   2   4  410.76   18.80
   0  -2   4  440.36   18.60
   0  -2  -4  449.36   18.80
   0  -2   4  483.65   18.90
   0  -2  -4  437.86   18.90
   0  -2  -4  416.16   18.80
   0   2  -5    7.30    3.30
   0   2   5   11.80    3.90
   0   2   5    6.50    2.90
   0   2  -5    4.40    3.20
   0   2   5    9.30    4.00
   0  -2  -5    4.60    3.30
   0  -2  -5    8.90    3.50
   0  -2   5    4.40    3.20
   0  -2   5    5.00    3.50
   0  -2   5    3.70    2.30
   0  -2  -5    3.50    3.60
   0   2   6  373.26   17.70
   0   2   6  372.56   18.30
   0   2  -6  394.56   18.10
   0   2   6  365.56   18.10
   0   2  -6  395.16   17.90
   0  -2   6  426.56   18.40
   0  -2   6  415.66   17.00
   0  -2  -6  355.86   18.00
   0  -2   6  388.76   18.00
   0  -2  -6  339.87   18.10
   0  -2  -6  384.26   18.20
   0   2   7   14.10    5.10
   0   2  -7    6.80    5.60
   0   2  -7   16.30    5.50
   0   2   7   14.10    6.10
   0   2   7    9.40    6.50
   0  -2   7   13.80    4.10
   0  -2  -7    4.30    5.50
   0  -2   7   12.40    5.60
   0  -2   7   11.30    5.90
   0  -2  -7    4.30    5.90
   0  -2  -7    5.70    5.50
   0   2   8   18.00    7.80
   0   2   8   13.30    6.60
   0   2  -8    4.80    7.70
   0   2  -8    7.50    6.90
   0   2   8   12.80    8.50
   0  -2  -8   -1.60    7.10
   0  -2  -8    6.10    7.40
   0  -2   8   -0.20    7.30
   0  -2   8   10.60    5.30
   0  -2   8    7.00    7.10
   0  -2  -8   -0.80    6.70
   0   3   0    0.50    1.20
   0   3   0   -0.30    1.20
   0   3   0   -1.80    1.00
   0   3   0   -0.70    0.70
   0   3   0   -0.40    1.20
   0  -3   0    0.30    1.30
   0  -3   0   -0.70    1.00
   0  -3   0   -0.50    1.20
   0  -3   0   -1.00    0.90
   0  -3   0    0.10    1.10
   0   3  -1 1993.80   76.49
   0   3   1 1981.00   76.59
   0   3  -1 2067.99   76.59
   0   3   1 1904.51   76.49
   0   3   1 1950.90   76.49
   0   3  -1 2080.69   76.59
   0  -3   1 1948.41   76.49
   0  -3   1 2048.79   76.49
   0  -3  -1 1926.21   76.49
   0  -3  -1 1949.20   76.49
   0  -3   1 2039.20   76.49
   0  -3  -1 1930.21   76.59
   0   3   2  199.38    9.10
   0   3   2  205.28    9.30
   0   3   2  199.68    9.10
   0   3  -2  226.68    9.10
   0   3  -2  198.58    9.00
   0   3   2  201.38    9.10
   0  -3   2  221.88    9.10
   0  -3  -2  211.68    9.20
   0  -3  -2  206.08    9.20
   0  -3   2  217.38    9.10
   0  -3  -2  202.88    9.20
   0   3   3    1.90    2.20
   0   3   3    2.20    2.10
   0   3   3    4.10    2.00
   0   3  -3    2.20    1.70
   0   3  -3    3.80    1.80
   0  -3   3    4.40    1.90
   0  -3   3    1.90    1.80
   0  -3  -3    3.00    2.20
   0  -3  -3    1.30    2.20
   0  -3  -3    3.00    2.00
   0   3   4  105.69    6.40
   0   3   4  100.29    6.90
   0   3   4   95.39    6.90
   0   3  -4  108.79    6.40
   0   3  -4  114.89    6.60
   0  -3   4  109.49    6.60
   0  -3  -4  103.39    6.80
   0  -3  -4  108.69    7.00
   0  -3   4  106.69    6.50
   0  -3  -4  104.19    7.00
   0   3   5  415.16   19.40
   0   3   5  414.96   19.50
   0   3  -5  451.25   19.30
   0   3   5  418.06   19.10
   0   3  -5  477.95   19.50
   0  -3   5  446.56   19.30
   0  -3   5  452.45   18.30
   0  -3  -5  410.36   19.40
   0  -3  -5  425.76   19.40
   0  -3  -5  417.76   19.50
   0  -3   5  491.15   19.50
   0   3   6    6.20    4.80
   0   3  -6    6.50    3.80
   0   3   6    9.40    3.90
   0   3  -6    6.10    4.50
   0   3   6    6.60    5.00
   0  -3  -6    9.70    4.30
   0  -3  -6    9.40    5.00
   0  -3  -6    0.20    4.90
   0  -3   6    8.80    3.00
   0  -3   6    6.30    4.20
   0  -3   6   17.40    4.90
   0   3  -7  102.29    9.20
   0   3   7   91.59    9.90
   0   3  -7   94.49    9.60
   0   3   7   80.89   10.20
   0  -3   7   90.59    7.60
   0  -3   7  111.49    9.90
   0  -3  -7   93.09   10.40
   0  -3  -7   80.19    9.70
   0   3   8    3.90    8.00
   0   3  -8    2.20    7.00
   0   3   8    0.70    7.90
   0   3   8    1.30    6.50
   0   3  -8    9.00    7.10
   0  -3  -8  -10.20    7.60
   0  -3   8    1.70    5.00
   0  -3   8    0.30    6.70
   0  -3  -8    5.40    7.40
   0  -3  -8    2.90    7.40
   0  -3   8    8.90    7.90
   0   4   0  942.41   36.30
   0   4   0 1023.80   36.40
   0   4   0  978.20   36.50
   0   4   0  907.71   36.00
   0   4   0  919.61   36.50
   0  -4   0  972.20   36.50
   0  -4   0  915.71   36.40
   0  -4   0  805.42   36.30
   0  -4   0  868.11   35.90
   0  -4   0  954.00   36.40
   0   4   1  237.48   10.00
   0   4   1  243.38   10.40
   0   4  -1  221.78    9.40
   0   4   1  240.28   10.10
   0   4  -1  242.78   10.20
   0   4  -1  244.18   10.20
   0   4  -1  241.08   10.10
   0  -4   1  245.18   10.10
   0  -4   1  249.88   10.20
   0  -4  -1  238.78   10.10
   0  -4   1  226.38    9.30
   0  -4  -1  234.18   10.10
   0  -4  -1  229.88   10.30
   0  -4   1  247.48   10.20
   0   4  -2  155.38    7.30
   0   4  -2  161.28    7.40
   0   4   2  156.18    7.60
   0   4   2  168.58    7.50
   0   4   2  153.78    7.50
   0   4   2  160.28    7.60
   0  -4   2  168.98    7.40
   0  -4  -2  157.88    7.50
   0  -4   2  155.18    7.30
   0  -4  -2  152.48    7.50
   0   4  -3  520.05   20.80
   0   4   3  490.35   20.90
   0   4   3  497.15   21.00
   0   4   3  496.35   21.00
   0   4  -3  500.55   20.70
   0  -4  -3  515.15   21.10
   0  -4   3  539.45   20.80
   0  -4  -3  504.85   20.90
   0  -4   3  479.75   20.70
   0   4  -4  145.19    7.70
   0   4   4  130.39    7.90
   0   4   4  132.69    8.10
   0   4  -4  151.98    7.80
   0   4   4  131.49    8.10
   0  -4   4  152.78    7.90
   0  -4  -4  134.39    8.20
   0  -4  -4  139.99    8.20
   0  -4  -4  136.99    8.20
   0  -4   4  147.39    7.70
   0   4   5   47.30    6.50
   0   4  -5   56.59    5.80
   0   4   5   48.80    6.80
   0   4   5   57.59    6.20
   0   4  -5   58.59    5.80
   0  -4  -5   54.79    6.60
   0  -4  -5   60.99    6.70
   0  -4   5   55.49    4.30
   0  -4   5   61.09    5.90
   0  -4  -5   62.39    6.70
   0  -4   5   54.39    6.00
   0   4   6  237.08   14.50
   0   4   6  252.47   14.50
   0   4   6  281.07   14.20
   0   4  -6  287.07   14.10
   0   4  -6  308.07   14.30
   0  -4   6  227.98   15.20
   0  -4  -6  261.47   14.80
   0  -4   6  313.87   14.40
   0  -4  -6  283.67   14.60
   0  -4   6  277.97   12.50
   0  -4  -6  259.17   14.60
   0   4   7   21.40    6.90
   0   4   7   21.50    6.90
   0   4  -7   30.50    5.90
   0   4  -7   30.00    5.60
   0  -4   7   21.60    4.20
   0  -4  -7   24.70    7.30
   0  -4  -7   24.10    6.80
   0  -4   7   29.00    6.10
   0   4  -8   10.40    7.00
   0   4   8   -2.50    8.40
   0   4   8   12.30    8.20
   0   4  -8    1.00    6.70
   0   4   8    1.70    6.90
   0  -4  -8   14.90    8.60
   0  -4  -8    1.80    7.80
   0  -4   8    5.00    7.00
   0  -4   8   -7.80    7.60
   0  -4  -8    0.30    7.40
   0  -4   8    6.40    4.70
   0   5   0    0.30    1.40
   0   5   0    0.30    1.70
   0   5   0    0.60    1.70
   0   5   0    1.00    0.90
   0   5   0   -0.90    1.40
   0  -5   0   -2.10    1.50
   0  -5   0    0.90    1.30
   0  -5   0   -0.90    1.60
   0  -5   0    0.10    1.50
   0  -5   0   -0.60    1.60
   0   5  -1 2483.25   91.89
   0   5   1 2482.65   92.09
   0   5  -1 2150.88   91.79
   0   5   1 2409.26   91.79
   0   5  -1 2464.45   91.19
   0   5   1 2339.27   91.69
   0   5  -1 2316.87   91.79
   0   5   1 2416.26   91.59
   0   5  -1 2278.17   90.99
   0  -5  -1 2342.97   91.69
   0  -5  -1 2421.46   91.99
   0  -5   1 2310.07   91.79
   0  -5  -1 2370.96   91.69
   0  -5   1 2401.26   91.69
   0  -5   1 2429.66   91.89
   0   5  -2  427.76   17.90
   0   5   2  445.56   18.10
   0   5   2  445.66   18.20
   0   5   2  427.56   18.10
   0   5   2  444.06   18.20
   0   5  -2  426.16   18.00
   0   5  -2  437.66   18.10
   0  -5   2  428.16   18.00
   0  -5   2  452.15   18.10
   0  -5  -2  440.56   18.20
   0  -5  -2  435.66   18.10
   0  -5  -2  434.26   18.00
   0   5   3   10.30    2.60
   0   5  -3   14.80    2.60
   0   5   3   16.00    3.10
   0   5  -3   11.10    2.40
   0   5   3   13.50    2.90
   0   5   3    9.10    2.50
   0  -5  -3   10.20    2.70
   0  -5  -3    8.60    2.40
   0  -5   3   11.40    2.50
   0  -5   3   11.30    2.40
   0   5   4  438.56   19.60
   0   5   4  451.45   19.60
   0   5  -4  440.06   19.20
   0   5  -4  448.66   19.20
   0   5   4  433.06   19.40
   0  -5   4  458.95   19.30
   0  -5  -4  445.46   19.60
   0  -5   4  481.05   19.40
   0  -5  -4  450.65   19.40
   0   5   5  266.97   13.80
   0   5  -5  290.47   13.60
   0   5   5  258.37   13.80
   0   5   5  269.17   13.70
   0   5  -5  312.97   13.60
   0  -5  -5  261.77   13.70
   0  -5  -5  270.37   13.80
   0  -5   5  289.97   12.00
   0  -5   5  268.47   13.40
   0  -5  -5  260.87   13.80
   0  -5   5  298.07   13.60
   0   5  -6   -2.50    3.60
   0   5   6    2.00    5.30
   0   5   6   -0.30    4.20
   0   5   6    0.00    5.50
   0   5  -6   -1.30    3.90
   0  -5  -6    2.10    5.30
   0  -5  -6    2.40    4.40
   0  -5   6    1.80    4.20
   0  -5  -6    7.00    5.40
   0  -5   6   -2.00    2.30
   0   5   7   78.79   10.80
   0   5   7   89.09   10.80
   0   5  -7   98.99    9.70
   0   5   7   81.39   12.50
   0   5  -7   88.59    9.10
   0  -5  -7   78.89   10.60
   0  -5   7   86.79    7.00
   0  -5   7   86.09   10.00
   0  -5  -7   79.39   10.90
   0   5   8   20.30    9.00
   0   5  -8   37.90    7.90
   0   5   8   18.80    9.20
   0   5  -8   32.00    7.40
   0   5   8   42.60    8.80
   0  -5   8   35.20    8.10
   0  -5  -8   29.70    8.70
   0  -5  -8   25.10    8.80
   0  -5   8   47.60    8.70
   0   6   0  983.00   40.70
   0   6   0 1090.69   40.50
   0   6   0 1045.60   40.50
   0   6   0 1013.70   40.00
   0   6   0 1059.19   40.80
   0  -6   0 1048.20   40.80
   0  -6   0 1003.10   39.90
   0  -6   0 1006.80   40.60
   0  -6   0 1053.09   40.60
   0  -6   0  978.40   40.60
   0   6   1  234.78   10.60
   0   6   1  239.98   10.90
   0   6   1  232.48   10.10
   0   6   1  237.68   10.30
   0   6  -1  215.58    9.70
   0   6  -1  215.98   10.40
   0   6  -1  246.38   10.60
   0   6  -1  232.88   10.50
   0   6  -1  234.18    9.40
   0   6   1  233.08   10.20
   0  -6  -1  232.98   10.70
   0  -6   1  233.98   10.60
   0  -6   1  218.38   10.50
   0  -6   1  241.48   10.60
   0  -6  -1  235.08   10.30
   0  -6   1  238.08   10.30
   0  -6  -1  234.68   10.30
   0   6  -2   49.50    4.10
   0   6   2   47.80    4.10
   0   6   2   53.19    4.70
   0   6  -2   56.19    3.90
   0   6   2   55.49    4.30
   0   6   2   52.09    4.20
   0   6  -2   43.60    4.20
   0  -6  -2   50.59    4.20
   0  -6  -2   48.30    4.50
   0  -6   2   55.19    4.20
   0  -6  -2   53.19    4.20
   0  -6   2   52.69    4.10
   0  -6   2   52.49    4.00
   0   6  -3  583.84   24.00
   0   6  -3  578.44   24.10
   0   6   3  614.94   24.40
   0   6   3  572.94   24.30
   0   6   3  582.94   24.30
   0   6   3  588.94   24.30
   0  -6   3  581.34   24.20
   0  -6  -3  588.94   24.30
   0  -6   3  562.24   24.10
   0  -6  -3  579.14   24.20
   0  -6  -3  609.34   24.40
   0   6  -4  207.68   10.40
   0   6   4  200.58   10.80
   0   6  -4  203.68   10.20
   0   6   4  212.78   10.80
   0   6   4  203.08   10.70
   0  -6   4  209.98   10.40
   0  -6   4  211.58   10.50
   0  -6  -4  212.08   10.90
   0  -6  -4  210.28   10.90
   0   6  -5   16.60    3.80
   0   6   5   13.30    4.20
   0   6  -5   14.30    3.90
   0   6   5   18.90    4.60
   0   6   5   14.50    4.80
   0  -6   5   16.20    4.00
   0  -6  -5   12.80    4.30
   0  -6   5   11.20    3.50
   0  -6   5   12.20    2.10
   0  -6  -5   12.50    4.80
   0   6  -6   71.49    7.60
   0   6  -6   77.59    7.80
   0   6   6   66.39    9.10
   0   6   6   60.79    9.20
   0  -6  -6   65.49    8.20
   0  -6   6   72.19    7.90
   0  -6   6   73.79    5.20
   0  -6  -6   85.49    8.90
   0   6  -7   25.30    6.10
   0   6  -7   34.60    6.70
   0   6   7   24.50    7.90
   0   6   7   34.70    7.40
   0   6   7   40.10    8.60
   0  -6  -7   40.00    8.60
   0  -6  -7   24.90    7.00
   0  -6   7   24.20    6.20
   0   6  -8   11.40    6.70
   0   6   8   -2.00    7.60
   0   6  -8    0.20    6.80
   0   6   8    0.10    9.30
   0   6   8    1.70    8.70
   0  -6   8   10.80    7.00
   0  -6   8    2.20    4.00
   0  -6   8    4.40    7.60
   0  -6  -8   -9.80    7.60
   0  -6  -8    7.70    9.00
   0   7   0   -1.30    1.70
   0   7   0   -1.00    2.20
   0   7   0   -0.10    2.10
   0   7   0   -2.10    1.10
   0   7   0   -1.80    1.70
   0  -7   0    1.90    2.00
   0  -7   0   -0.70    1.90
   0  -7   0   -3.10    2.00
   0  -7   0   -0.50    1.50
   0  -7   0   -0.40    1.80
   0   7   1  158.78    7.50
   0   7   1  154.08    7.60
   0   7  -1  150.78    6.40
   0   7   1  168.88    8.40
   0   7  -1  151.28    7.70
   0   7  -1  154.58    7.90
   0   7  -1  150.08    7.80
   0   7   1  152.98    7.20
   0   7   1  142.99    7.90
   0   7  -1  147.29    6.90
   0  -7   1  152.58    8.00
   0  -7  -1  155.28    7.60
   0  -7   1  145.19    7.80
   0  -7  -1  146.09    7.60
   0  -7   1  147.19    7.90
   0  -7  -1  153.48    8.10
   0  -7   1  154.68    7.60
   0   7  -2  839.52   34.20
   0   7   2  842.82   34.50
   0   7  -2  800.42   34.20
   0   7   2  858.31   34.10
   0   7  -2  860.81   34.10
   0   7   2  886.41   34.30
   0  -7   2  859.81   34.30
   0  -7  -2  851.61   34.20
   0  -7  -2  859.71   34.20
   0  -7  -2  830.12   34.40
   0  -7   2  857.71   34.10
   0  -7   2  871.41   34.20
   0   7   3   11.30    3.00
   0   7   3   13.80    3.40
   0   7  -3    9.50    2.50
   0   7   3   11.20    3.20
   0   7  -3   15.20    3.00
   0   7  -3   11.10    2.70
   0   7   3    5.60    2.60
   0  -7  -3    9.30    2.80
   0  -7  -3   11.20    3.10
   0  -7   3    7.20    2.70
   0  -7   3    8.40    2.70
   0  -7   3    8.50    2.60
   0  -7  -3    9.70    3.20
   0   7   4  160.98    9.70
   0   7   4  171.08    9.90
   0   7   4  188.68   10.10
   0   7   4  171.88    9.90
   0   7  -4  181.18    9.50
   0   7  -4  171.28    9.20
   0  -7  -4  177.68    9.80
   0  -7  -4  182.68   10.10
   0  -7   4  177.68    9.50
   0  -7  -4  184.08   10.20
   0  -7   4  161.08    9.30
   0   7  -5  131.59    8.40
   0   7   5  120.59    9.20
   0   7  -5  115.79    8.20
   0   7   5  115.59    8.70
   0   7   5  120.39    9.20
   0  -7   5  114.99    8.20
   0  -7  -5  124.89    9.40
   0  -7   5  112.09    5.60
   0  -7   5  131.59    8.40
   0  -7  -5  108.89    9.10
   0   7  -6   20.80    5.00
   0   7  -6   13.20    4.30
   0   7   6   20.00    6.50
   0   7   6   24.20    6.40
   0  -7  -6   23.50    6.90
   0  -7   6   17.70    2.70
   0  -7  -6    8.80    5.60
   0  -7   6   22.50    5.00
   0   7   7   52.09    8.90
   0   7   7   41.40    8.40
   0   7   7   29.60    7.20
   0   7  -7   37.70    7.00
   0   7  -7   42.20    6.90
   0  -7  -7   25.10    7.50
   0  -7  -7   47.10    9.00
   0  -7   7   40.40    8.30
   0  -7   7   36.50    7.20
   0   7   8   39.40    8.40
   0   7   8   48.00   10.50
   0   7   8   41.10    9.90
   0   7  -8   36.50    8.30
   0   7  -8   44.90    8.10
   0  -7   8   22.50    8.50
   0  -7  -8   38.50   10.10
   0  -7   8   54.29    8.60
   0  -7  -8   25.00    9.70
   0   8   0  353.66   16.00
   0   8   0  358.36   15.90
   0   8   0  371.36   15.60
   0   8   0  357.96   14.80
   0  -8   0  347.17   15.90
   0  -8   0  371.76   14.70
   0  -8   0  361.36   16.00
   0  -8   0  370.16   15.70
   0   8   1  314.87   13.80
   0   8  -1  306.97   14.10
   0   8  -1  312.77   12.70
   0   8  -1  315.87   14.30
   0   8   1  323.47   13.50
   0   8  -1  319.87   14.00
   0   8   1  318.97   14.00
   0   8   1  326.77   14.60
   0  -8   1  306.07   14.10
   0  -8   1  324.17   14.40
   0  -8   1  313.47   13.90
   0  -8  -1  326.47   14.00
   0  -8  -1  319.27   14.40
   0  -8  -1  308.97   13.90
   0  -8   1  293.67   14.20
   0   8  -2  117.79    7.10
   0   8   2  125.49    7.90
   0   8   2  128.89    7.10
   0   8   2  114.59    6.80
   0   8  -2  122.49    6.90
   0   8  -2  116.89    7.10
   0  -8   2  112.89    7.10
   0  -8  -2  124.59    7.10
   0  -8   2  127.29    7.10
   0  -8  -2  119.99    7.60
   0  -8  -2  123.19    7.10
   0  -8   2  120.79    6.80
   0   8   3  554.24   22.80
   0   8  -3  538.65   22.80
   0   8  -3  536.35   22.50
   0   8  -3  526.65   22.80
   0   8   3  532.35   22.90
   0   8   3  542.85   23.20
   0   8   3  570.04   23.00
   0  -8  -3  547.65   22.90
   0  -8   3  533.65   22.80
   0  -8  -3  528.85   23.10
   0  -8   3  527.25   22.70
   0  -8  -3  534.65   22.80
   0  -8   3  521.65   22.60
   0   8  -4   14.20    3.60
   0   8  -4    9.60    3.10
   0   8   4    5.20    4.10
   0   8  -4   12.60    3.50
   0   8   4   13.80    4.10
   0   8   4   15.00    4.50
   0   8   4    8.60    3.50
   0  -8  -4   14.30    4.10
   0  -8  -4    3.60    4.20
   0  -8   4   16.50    3.70
   0  -8  -4   17.20    4.10
   0  -8   4    6.70    3.10
   0  -8   4    9.40    3.10
   0   8  -5   58.89    6.60
   0   8   5   56.39    7.60
   0   8   5   59.69    8.00
   0   8   5   54.89    7.90
   0   8  -5   53.59    6.50
   0  -8   5   55.49    7.00
   0  -8  -5   53.79    7.20
   0  -8  -5   69.39    8.00
   0  -8  -5   53.99    7.20
   0  -8   5   59.49    6.80
   0   8   6   39.00    7.40
   0   8  -6   41.30    5.90
   0   8   6   40.80    7.10
   0   8  -6   32.90    5.80
   0  -8   6   40.30    6.20
   0  -8  -6   45.70    7.90
   0  -8  -6   28.10    6.80
   0   8   7   54.59    9.80
   0   8   7   40.70    8.40
   0   8   7   19.10    7.40
   0   8  -7   41.90    7.00
   0   8  -7   48.90    7.40
   0  -8  -7   39.80    9.10
   0  -8  -7   33.00    8.10
   0  -8  -7   49.30    9.40
   0  -8   7   40.50    7.30
   0  -8   7   27.50    7.20
   0   9   0    1.00    2.10
   0   9   0   -1.80    1.40
   0   9   0    0.90    2.40
   0   9   0   -0.90    2.80
   0  -9   0    1.10    2.80
   0  -9   0   -1.60    2.40
   0  -9   0    1.00    2.90
   0  -9   0    2.80    1.70
   0   9  -1    9.40    3.20
   0   9   1    9.70    3.00
   0   9  -1   16.90    2.90
   0   9   1   13.50    3.10
   0   9  -1   10.40    3.00
   0   9  -1   13.30    2.00
   0   9   1   12.10    2.20
   0   9   1    8.60    3.50
   0  -9  -1   18.00    2.80
   0  -9  -1   14.10    3.50
   0  -9   1   13.70    3.10
   0  -9   1    9.10    3.50
   0  -9   1   12.80    3.60
   0  -9   1   14.00    3.00
   0  -9  -1   11.00    2.90
   0  -9  -1    8.90    2.80
   0   9   2  841.52   34.40
   0   9  -2  767.32   33.70
   0   9  -2  876.11   33.90
   0   9   2  847.22   33.90
   0   9  -2  820.12   33.90
   0   9   2  843.02   33.60
   0  -9   2  831.92   33.70
   0  -9   2  782.92   33.90
   0  -9   2  869.61   34.00
   0  -9  -2  848.52   33.90
   0  -9  -2  826.02   33.80
   0  -9  -2  810.42   34.10
   0   9  -3    1.50    2.70
   0   9   3    2.00    2.70
   0   9   3    1.20    3.30
   0   9   3    1.00    3.30
   0   9   3   -2.20    3.20
   0   9  -3    4.40    3.00
   0   9  -3    4.20    3.10
   0  -9  -3    0.60    3.40
   0  -9   3    3.50    2.70
   0  -9   3    2.80    3.20
   0  -9  -3   -2.70    3.00
   0  -9   3    3.20    2.60
   0  -9  -3    1.70    3.40
   0   9   4  365.46   17.10
   0   9   4  372.96   17.10
   0   9   4  316.37   16.90
   0   9  -4  352.36   16.30
   0   9   4  390.86   17.00
   0   9  -4  321.37   16.50
   0   9  -4  314.97   16.40
   0  -9  -4  385.46   17.20
   0  -9  -4  349.37   16.70
   0  -9   4  375.46   16.60
   0  -9   4  370.86   16.60
   0  -9   4  362.56   16.80
   0  -9  -4  352.66   17.20
   0   9  -5   44.10    5.60
   0   9  -5   34.70    5.20
   0   9   5   26.10    6.00
   0   9  -5   31.50    5.10
   0   9   5   27.80    5.60
   0   9   5   35.50    6.20
   0  -9  -5   33.30    6.30
   0  -9   5   33.90    5.60
   0  -9  -5   40.00    7.10
   0  -9   5   37.10    5.60
   0   9   6   -5.30    5.40
   0   9  -6    5.50    5.20
   0   9   6   11.90    5.90
   0   9   6   22.50    7.00
   0   9  -6    3.80    4.30
   0  -9  -6    2.50    6.20
   0  -9   6    2.10    4.80
   0  -9   6    1.20    5.00
   0  -9  -6   10.80    6.50
   0  -9  -6    4.20    6.40
   0   9  -7    4.90    5.40
   0   9   7   -0.50    8.50
   0   9   7   -4.10    8.20
   0   9   7   -8.90    6.70
   0   9  -7    4.50    6.60
   0  -9  -7   -8.60    8.00
   0  -9  -7    6.70    8.00
   0  -9   7    0.40    6.50
   0  -9   7    8.90    6.90
   0  -9  -7    3.00    7.70
   0  10   0   12.20    2.20
   0  10   0    8.40    3.60
   0  10   0   14.70    3.10
   0  10   0   10.90    3.50
   0 -10   0   14.40    3.40
   0 -10   0   13.30    3.50
   0 -10   0   12.90    4.00
   0  10   1  220.18   11.40
   0  10   1  204.08   10.10
   0  10  -1  178.18   10.60
   0  10  -1  209.18   10.10
   0  10  -1  187.18    8.50
   0  10   1  234.68    9.70
   0  10  -1  193.78   10.60
   0  10   1  201.38   10.50
   0 -10  -1  204.48    9.40
   0 -10  -1  199.48   10.80
   0 -10  -1  200.28   10.30
   0 -10   1  186.38   10.10
   0 -10  -1  196.58   10.50
   0 -10   1  194.48   11.00
   0 -10   1  194.58   10.40
   0 -10   1  181.58   10.70
   0  10   2    8.20    2.70
   0  10  -2   10.80    3.20
   0  10   2    8.10    3.60
   0  10  -2   15.10    3.50
   0  10  -2    6.30    3.10
   0  10   2   10.30    3.70
   0 -10  -2   10.40    3.60
   0 -10  -2    4.00    3.20
   0 -10   2   10.80    3.70
   0 -10   2    8.70    3.40
   0 -10   2   11.60    3.20
   0 -10  -2    6.90    3.30
   0  10   3  769.72   33.50
   0  10  -3  732.83   32.70
   0  10   3  823.12   32.70
   0  10  -3  757.92   32.80
   0  10  -3  797.02   32.50
   0  10   3  835.72   33.00
   0  10   3  708.33   32.70
   0 -10  -3  774.02   32.80
   0 -10  -3  823.02   32.90
   0 -10   3  804.02   32.70
   0 -10   3  819.42   32.70
   0 -10  -3  834.12   33.30
   0 -10   3  771.42   32.90
   0  10   4    5.60    4.50
   0  10   4   -2.90    4.10
   0  10   4    9.70    4.70
   0  10  -4    3.00    3.50
   0  10  -4    2.00    3.40
   0  10   4    3.10    3.80
   0  10  -4    2.30    3.50
   0 -10   4    4.90    3.40
   0 -10   4    5.40    3.80
   0 -10  -4   -2.80    4.40
   0 -10  -4   -8.50    4.00
   0 -10   4   -1.20    4.10
   0  10  -5   68.99    7.70
   0  10   5   98.79    9.40
   0  10  -5   65.79    7.60
   0  10  -5   76.89    8.50
   0  10   5   85.99    9.40
   0  10   5  106.29    9.50
   0 -10   5   74.19    8.50
   0 -10   5   81.69    8.00
   0 -10  -5   86.29    9.50
   0  10   6   38.40    8.20
   0  10  -6   12.30    5.40
   0  10   6   25.70    7.50
   0  10  -6   19.50    6.00
   0  10  -6   21.00    6.10
   0  10   6   26.80    6.90
   0 -10  -6   21.50    7.80
   0 -10   6   11.20    4.70
   0 -10   6   14.00    5.70
   0 -10   6   12.20    5.50
   0 -10  -6    8.50    6.80
   0 -10  -6   13.60    6.90
   0  10   7   34.20    8.10
   0  10   7   38.00   10.00
   0  10  -7   50.89    7.80
   0  10  -7   28.40    7.60
   0  10   7   42.80    9.60
   0  10  -7   40.60    7.30
   0 -10   7   25.10    5.60
   0 -10  -7   24.20    9.30
   0 -10   7   36.80    8.20
   0 -10  -7   37.60    9.50
   0 -10  -7   44.30    9.60
   0 -10   7   31.00    7.50
   0  11   0   -1.00    3.10
   0  11   0    1.70    2.90
   0  11   0    2.30    1.70
   0  11   0   -4.10    3.30
   0 -11   0    4.80    3.70
   0 -11   0   -1.30    3.00
   0 -11   0   -4.00    2.70
   0  11  -1   -6.50    3.40
   0  11  -1    1.10    1.40
   0  11  -1   -5.10    2.60
   0  11   1    4.40    2.40
   0  11  -1   -0.80    3.10
   0  11   1   -5.50    3.30
   0  11   1   -2.60    2.90
   0  11   1    6.10    3.60
   0 -11  -1    0.10    2.60
   0 -11  -1    3.90    3.60
   0 -11   1   -2.20    3.40
   0 -11   1   -5.60    3.60
   0 -11  -1   -5.20    3.20
   0 -11  -1    1.80    3.60
   0 -11   1   -0.70    3.50
   0 -11   1    0.20    2.80
   0  11   2  287.47   14.00
   0  11  -2  281.47   13.70
   0  11  -2  283.57   13.70
   0  11   2  298.67   13.20
   0  11   2  273.17   14.70
   0  11  -2  251.77   13.90
   0 -11  -2  272.07   13.70
   0 -11   2  276.17   13.90
   0 -11  -2  280.07   14.30
   0 -11  -2  291.07   13.90
   0 -11   2  276.17   14.10
   0 -11   2  261.87   13.30
   0  11   3   -0.70    4.30
   0  11  -3    2.80    3.50
   0  11  -3    1.00    3.40
   0  11   3   -1.30    3.20
   0  11   3    9.90    4.60
   0  11  -3    3.70    3.60
   0 -11   3    4.10    3.20
   0 -11  -3   -2.00    4.00
   0 -11   3    5.20    4.30
   0 -11   3   -2.30    3.60
   0 -11  -3    2.00    3.90
   0  11   4  182.78   11.30
   0  11   4  189.28   11.30
   0  11  -4  172.68   11.20
   0  11  -4  175.78   10.60
   0  11   4  158.38   11.90
   0  11   4  193.38   11.70
   0  11  -4  166.48   10.80
   0 -11   4  165.18   10.80
   0 -11  -4  187.38   11.60
   0 -11   4  179.88   11.50
   0  11   5    2.50    5.20
   0  11  -5   15.30    5.20
   0  11   5   22.00    6.30
   0  11  -5   10.50    4.40
   0  11   5    7.50    6.10
   0  11  -5   14.40    5.10
   0  11   5   10.80    5.40
   0 -11  -5    9.30    6.70
   0 -11  -5   23.70    6.90
   0 -11   5   15.30    5.70
   0 -11   5   13.60    5.30
   0 -11   5   15.60    4.80
   0  11   6    2.00    6.70
   0  11   6   13.40    8.00
   0  11  -6   -6.20    5.10
   0  11  -6    3.60    5.60
   0  11  -6    0.90    5.40
   0 -11   6    1.50    6.10
   0 -11   6   -4.30    6.10
   0 -11  -6   -6.10    6.90
   0 -11  -6   -5.00    7.20
   0 -11  -6   28.50    8.50
   0 -11   6    0.30    4.30
   0  12   0    6.50    2.10
   0  12   0    2.60    3.60
   0  12   0    1.70    3.90
   0  12   0    3.60    3.60
   0 -12   0    0.70    3.70
   0 -12   0    6.10    4.50
   0  12   1  234.68   11.40
   0  12  -1  224.28   11.50
   0  12   1  215.58   12.50
   0  12  -1  212.88    9.30
   0  12  -1  203.88   12.10
   0  12  -1  189.78   11.90
   0  12   1  211.88   11.90
   0  12   1  222.98   10.40
   0 -12  -1  238.28   11.80
   0 -12   1  203.58   12.20
   0 -12  -1  192.28    9.70
   0 -12   1  207.08   11.20
   0 -12   1  203.38   11.60
   0 -12  -1  204.28   12.00
   0  12   2   -4.40    3.80
   0  12   2   -1.20    3.00
   0  12  -2   -4.50    3.60
   0  12   2   -0.10    4.00
   0  12  -2    1.20    3.40
   0  12  -2   -1.10    3.30
   0 -12   2    2.60    3.40
   0 -12   2   -2.20    4.00
   0 -12  -2   -5.30    4.40
   0 -12  -2    0.00    3.40
   0 -12   2   -0.50    4.00
   0 -12  -2   -3.70    4.00
   0  12   3  242.28   14.70
   0  12  -3  250.87   14.00
   0  12   3  264.87   13.90
   0  12   3  252.27   14.20
   0  12  -3  271.37   13.60
   0  12   3  260.07   13.20
   0  12  -3  253.77   13.60
   0 -12   3  247.38   13.80
   0 -12   3  254.17   13.50
   0 -12  -3  278.17   14.00
   0  12   4   -6.80    4.50
   0  12  -4    3.80    4.40
   0  12   4    1.40    5.30
   0  12  -4   -4.20    4.00
   0  12  -4    0.20    4.20
   0  12   4   -6.80    4.70
   0  12   4   -6.10    5.00
   0 -12  -4    3.70    5.40
   0 -12   4   -8.30    5.60
   0 -12   4    0.80    3.90
   0 -12   4   -1.00    4.50
   0 -12  -4   -5.00    5.70
   0  12   5   33.60    7.40
   0  12   5   13.00    6.10
   0  12  -5    5.50    5.20
   0  12   5   30.30    7.30
   0  12  -5    4.60    5.50
   0  12   5   17.90    6.30
   0  12  -5    0.20    4.90
   0 -12   5   12.30    5.00
   0 -12  -5   21.70    7.10
   0 -12   5    2.40    5.10
   0 -12   5   17.10    6.20
   0 -12  -5    9.80    6.60
   0 -12  -5   26.00    7.20
   0  12  -6   -6.40    6.10
   0  12  -6    1.10    6.00
   0  12  -6    3.20    5.80
   0  12   6   -8.40    7.70
   0  12   6    2.20    8.10
   0 -12  -6  -11.90    7.40
   0 -12  -6   -9.70    7.80
   0 -12  -6   -4.00    7.20
   0 -12   6    6.90    7.10
   0 -12   6   -0.30    4.50
   0 -12   6   -3.30    6.00
   0  13   0    9.60    4.10
   0 -13   0   17.70    5.30
   0  13   1   20.70    5.00
   0  13  -1   28.90    4.70
   0  13  -1   22.20    5.60
   0  13   1   23.80    4.50
   0  13   1   21.60    5.20
   0  13  -1   12.10    4.40
   0  13   1   17.40    3.50
   0  13  -1   22.50    3.30
   0 -13  -1   24.60    5.40
   0 -13   1   25.00    4.40
   0 -13   1   23.00    5.40
   0 -13  -1   15.20    5.50
   0 -13  -1   26.60    3.40
   0 -13   1   25.00    4.90
   0  13  -2  395.66   18.90
   0  13   2  430.46   20.00
   0  13  -2  380.46   19.10
   0  13   2  393.86   19.10
   0  13  -2  410.06   18.50
   0  13   2  368.66   17.80
   0 -13  -2  419.56   19.00
   0 -13   2  396.76   18.90
   0 -13   2  365.06   18.60
   0 -13  -2  417.26   17.40
   0  13   3    6.40    5.20
   0  13  -3    5.20    4.40
   0  13   3   -2.60    4.10
   0  13   3    2.80    5.40
   0  13  -3   10.70    4.80
   0  13  -3    6.30    4.30
   0  13   3    2.70    4.60
   0 -13  -3    4.90    5.80
   0 -13   3    4.60    4.30
   0 -13   3    4.70    4.40
   0 -13  -3    3.90    5.20
   0  13   4  181.48   12.00
   0  13   4  191.68   12.30
   0  13   4  176.78   13.00
   0  13  -4  166.18   11.30
   0  13   4  163.98   13.50
   0  13  -4  169.58   11.60
   0  13  -4  148.89   12.20
   0 -13   4  172.68   12.20
   0 -13  -4  175.48   12.60
   0 -13  -4  171.78   13.80
   0 -13   4  156.98   12.20
   0 -13   4  169.18   11.10
   0 -13  -4  192.28   13.30
   0  13   5    6.80    7.50
   0  13  -5   -2.90    4.90
   0  13  -5   -8.50    4.60
   0  13   5    1.20    7.20
   0  13   5   -2.80    6.10
   0  13   5    3.40    7.00
   0  13  -5    0.70    5.40
   0 -13   5   -7.30    5.90
   0 -13  -5   -4.60    8.20
   0 -13  -5    9.80    7.60
   0 -13  -5   -7.40    7.10
   0 -13   5   10.00    6.40
   0 -13   5    2.80    4.50
   0  14   0  191.18   12.10
   0  14   0  178.28   10.60
   0  14   0  164.58   11.80
   0  14   0  158.48    8.80
   0 -14   0  164.58   11.00
   0  14  -1   94.59   10.00
   0  14  -1  103.89   10.10
   0  14   1  110.89    7.60
   0  14   1  114.69   10.30
   0  14   1  110.19    9.90
   0  14  -1   92.49    6.10
   0  14  -1  108.49    8.40
   0 -14  -1  132.89    9.70
   0 -14   1  103.09    9.10
   0 -14  -1  131.59    6.50
   0  14  -2   55.79    8.40
   0  14   2   38.20    6.40
   0  14  -2   67.99    7.70
   0  14   2   50.69    7.10
   0  14   2   44.40    5.50
   0  14  -2   42.20    6.30
   0 -14  -2   54.89    8.40
   0 -14  -2   52.99    6.00
   0 -14   2   56.39    7.90
   0 -14  -2   53.59    7.90
   0 -14   2   64.59    8.50
   0 -14   2   41.40    6.20
   0  14   3  263.77   15.50
   0  14  -3  247.28   15.20
   0  14   3  250.17   14.10
   0  14  -3  252.97   14.20
   0  14   3  281.67   16.30
   0  14  -3  261.67   14.60
   0  14   3  277.07   15.00
   0 -14  -3  233.38   15.90
   0 -14   3  233.78   13.90
   0 -14  -3  261.87   13.00
   0 -14   3  255.47   14.90
   0 -14  -3  282.67   15.10
   0 -14  -3  235.18   15.70
   0 -14   3  263.37   15.20
   0  14  -4   17.00    6.30
   0  14  -4   20.50    5.90
   0  14  -4   13.60    5.60
   0  14   4   15.30    6.50
   0  14   4   10.60    7.10
   0  14   4   19.30    7.80
   0  14   4   17.70    6.20
   0 -14  -4   26.30    8.00
   0 -14   4   10.40    6.20
   0 -14   4   25.00    6.50
   0 -14  -4   21.80    8.10
   0 -14   4   15.20    5.00
   0 -14  -4   16.90    7.10
   0  14   5   21.60    8.90
   0  14  -5   26.80    6.90
   0  14   5   21.20    7.90
   0  14   5   15.80    9.60
   0  14   5   13.90    7.80
   0  14  -5   12.50    6.00
   0  14  -5   15.70    6.70
   0 -14   5   31.10    8.40
   0 -14   5   20.90    6.10
   0 -14  -5   23.00    8.90
   0 -14  -5   21.40    9.60
   0 -14   5   20.60    6.40
   0  15   0   49.20    7.70
   0 -15   0   44.40    7.50
   0 -15   0   62.19   11.40
   0  15  -1   51.89    4.70
   0  15  -1   37.10    6.80
   0  15  -1   46.80    7.30
   0  15   1   43.70    6.80
   0  15  -1   42.70    6.40
   0  15   1   56.49    7.90
   0  15   1   55.89    6.50
   0 -15  -1   49.20    6.90
   0 -15   1   48.50    7.00
   0 -15  -1   41.60    7.80
   0 -15   1   57.19    8.00
   0 -15  -1   40.30    7.20
   0  15   2  184.38   11.10
   0  15  -2  173.08   13.40
   0  15   2  203.78   14.20
   0  15   2  180.28   13.40
   0  15  -2  183.38   12.00
   0  15  -2  195.78   12.90
   0 -15  -2  189.38   13.20
   0 -15  -2  194.08    9.90
   0 -15   2  184.08   12.70
   0 -15  -2  173.98   13.90
   0 -15   2  177.68   11.60
   0 -15  -2  182.48   14.30
   0 -15   2  179.88   14.00
   0  15   3   -0.80    5.00
   0  15   3   13.00    5.90
   0  15  -3    3.50    5.00
   0  15   3    4.00    7.00
   0  15  -3    1.80    5.80
   0  15  -3   -7.80    5.80
   0  15   3    3.40    6.70
   0 -15  -3   10.90    6.80
   0 -15  -3    3.30    4.80
   0 -15   3    0.50    6.20
   0 -15  -3   -6.20    6.70
   0 -15   3    5.80    4.60
   0 -15  -3   20.60    8.10
   0 -15   3    7.70    6.90
   0  15   4   69.19   10.50
   0  15  -4  102.89   10.90
   0  15   4   72.59    9.20
   0  15  -4   87.89   11.60
   0  15   4  105.39   13.00
   0  15   4   73.99   11.20
   0  15  -4   65.79    8.40
   0 -15  -4   58.09    9.90
   0 -15  -4   59.19    9.00
   0 -15   4   77.29    8.60
   0 -15   4   83.59   11.50
   0 -15   4   90.19   11.80
   0 -15  -4   76.69   12.30
   0  16   0   98.59   11.70
   0  16   0  100.39    7.30
   0  16   0   99.79   12.00
   0  16   0   99.59    9.90
   0 -16   0  106.29   12.20
   0 -16   0   97.99   13.80
   0 -16   0  104.39   10.50
   0  16  -1   32.30    7.40
   0  16  -1   33.50    4.80
   0  16  -1   38.20    6.30
   0  16   1   34.30    7.50
   0  16  -1   15.50    6.40
   0  16   1   29.60    5.00
   0  16   1   33.30    7.00
   0 -16  -1   32.80    8.30
   0 -16  -1   29.70    7.20
   0 -16  -1   36.20    7.60
   0 -16   1   33.80    6.60
   0 -16   1   22.70    7.40
   0  16  -2   15.80    5.90
   0  16  -2   20.70    6.90
   0  16   2   15.40    6.80
   0  16   2    7.90    7.40
   0  16   2   16.20    6.90
   0  16  -2   16.80    6.30
   0  16   2    9.60    5.00
   0 -16  -2    8.30    8.50
   0 -16   2   18.00    6.90
   0 -16   2   21.90    8.20
   0 -16  -2   27.60    8.00
   0 -16  -2   19.30    6.80
   0 -16  -2   15.80    4.50
   0  16   3   86.79   12.10
   0  16   3   67.79   10.20
   0  16   3   62.09   10.20
   0  16   3  106.09   12.90
   0  16  -3   80.19   11.40
   0  16  -3   70.09   10.40
   0  16  -3   86.39    9.80
   0 -16   3   73.29    9.00
   0 -16  -3   84.89    8.00
   0 -16   3   89.19   12.30
   0 -16  -3  102.89   12.70
   0 -16   3   86.29   11.90
   0  17   0   -4.60    5.90
   0  17   0   -9.10    6.40
   0  17   0   10.00    7.80
   0  17   0    1.90    3.90
   0 -17   0    4.50    7.10
   0 -17   0    1.60    7.40
   1   0  -8  131.29   12.40
  -1   0   8  137.99   12.80
   1   0  -8  131.39   12.10
  -1   0   8  142.39   12.60
  -1   0   7    2.10    5.50
  -1   0   7    2.30    5.60
   1   0  -7    7.00    5.40
   1   0  -7    2.90    4.90
  -1   0   7   -2.30    3.80
   1   0  -6   -2.40    4.30
  -1   0   6   -4.10    3.90
  -1   0   6   -1.70    3.00
   1   0  -6   -1.30    3.90
  -1   0   6   -1.70    4.40
  -1   0   5   -0.90    3.20
  -1   0   5    1.80    2.30
  -1   0   5   -3.90    3.00
   1   0  -5   -4.20    3.10
   1   0  -5   -0.20    3.20
  -1   0   4 1126.49   43.60
  -1   0   4 1096.49   43.50
   1   0  -4 1117.69   43.60
  -1   0   4 1067.19   43.10
   1   0  -4 1056.79   43.50
  -1   0   3   -0.60    2.00
  -1   0   3    3.40    1.50
  -1   0   3    1.00    1.90
   1   0  -3   -0.60    1.90
   1   0  -3    0.10    1.90
  -1   0   2 1116.59   41.60
   1   0  -2  982.40   41.30
   1   0  -2 1042.90   41.50
   1   0  -2 1104.99   41.50
  -1   0   2 1118.99   41.60
  -1   0   2 1018.90   41.30
  -1   0   1   -0.40    0.80
   1   0  -1   -2.10    0.80
  -1   0   1   -0.90    0.80
  -1   0   1   -1.40    0.80
   1   0  -1   -0.10    0.80
  -1   0  -1    0.50    0.80
  -1   0  -1   -0.10    0.90
   1   0   1    0.50    0.90
   1   0   1    0.30    0.90
  -1   0  -2 9999.00  382.96
  -1   0  -3   -1.60    1.80
   1   0   3   -1.20    2.10
   1   0   3   -0.70    1.80
  -1   0  -3   -0.30    2.00
  -1   0  -4 1851.01   69.69
  -1   0  -4 1713.03   69.49
   1   0   4 1799.12   69.69
   1   0   4 1733.63   69.59
  -1   0  -5   -3.20    3.00
  -1   0  -5    0.20    3.50
   1   0   5   -1.00    3.40
   1   0   5    3.90    3.60
   1   0   6   40.30    6.20
  -1   0  -6   35.90    5.90
   1   0   6   32.60    5.70
  -1   0  -6   32.90    5.70
   1   0   7   -1.40    6.20
  -1   0  -7    0.70    5.70
  -1   0  -7    1.60    5.40
   1   0   7    4.90    5.70
   1   0   8   93.59   12.30
  -1   0  -8   86.89   11.70
  -1   0  -8   94.89   11.80
   1   0   8   81.49   11.90
  -1   1   8   16.00    7.50
  -1   1   8    6.30    7.00
   1   1  -8    4.00    6.10
   1   1  -8    2.00    6.80
  -1  -1   8    6.40    7.40
  -1  -1   8   -1.10    4.80
  -1  -1   8   19.60    7.10
   1  -1  -8    7.10    7.20
   1  -1  -8    8.40    7.20
  -1   1   7   66.59    9.10
   1   1  -7   59.49    8.50
  -1   1   7   57.79    8.00
   1   1  -7   67.59    8.30
  -1   1   7   54.39    7.70
  -1  -1   7   73.19    8.80
  -1  -1   7   68.79    7.30
   1  -1  -7   56.29    8.80
   1  -1  -7   59.49    8.80
  -1   1   6   50.39    6.40
   1   1  -6   30.70    5.30
  -1   1   6   40.60    5.80
   1   1  -6   49.99    6.50
  -1   1   6   48.40    6.30
  -1  -1   6   43.70    6.60
   1  -1  -6   48.70    6.60
   1  -1  -6   52.99    6.40
  -1  -1   6   44.20    5.60
  -1  -1   6   42.40    5.90
  -1   1   5  101.39    7.50
  -1   1   5  101.59    7.40
  -1   1   5  110.99    6.90
   1   1  -5   97.99    7.00
   1   1  -5  108.09    7.20
   1  -1  -5   94.69    7.10
   1  -1  -5   93.99    7.30
  -1  -1   5  105.99    6.50
  -1  -1   5  101.29    7.00
  -1  -1   5  109.59    7.40
   1   1  -4   27.30    3.60
   1   1  -4   21.10    3.30
  -1   1   4   32.10    4.50
  -1   1   4   27.90    3.80
  -1   1   4   28.10    4.50
   1  -1  -4   26.50    4.20
  -1  -1   4   27.30    4.30
  -1  -1   4   25.70    4.10
  -1  -1   4   35.10    3.40
   1  -1  -4   27.60    4.30
  -1   1   3 1593.64   63.79
  -1   1   3 1587.84   63.59
   1   1  -3 1653.93   63.79
  -1   1   3 1622.44   63.89
   1   1  -3 1681.33   63.79
  -1  -1   3 1724.13   63.79
   1  -1  -3 1637.44   63.89
  -1  -1   3 1600.94   63.39
  -1  -1   3 1701.33   63.79
   1  -1  -3 1556.34   63.79
  -1   1   2   52.29    3.40
  -1   1   2   55.09    3.50
   1   1  -2   55.29    3.20
  -1   1   2   49.20    3.20
   1   1  -2   52.49    2.90
   1   1  -2   50.19    3.30
  -1  -1   2   51.19    3.30
   1  -1  -2   50.79    3.40
  -1  -1   2   56.19    3.00
  -1  -1   2   53.49    3.30
   1  -1  -2   55.99    3.40
   1  -1  -2   54.29    3.30
  -1   1   1  781.82   28.90
  -1   1   1  708.83   28.80
   1   1  -1  719.13   28.60
   1   1  -1  729.63   28.70
   1   1  -1  723.53   28.70
   1  -1  -1  760.92   28.90
   1  -1  -1  735.23   28.90
   1  -1  -1  776.12   28.90
  -1  -1   1  742.63   28.70
   1  -1  -1  722.03   28.90
  -1  -1   1  738.73   28.70
  -1  -1   1  737.13   28.70
   1   1   0  444.36   18.40
   1   1   0  398.36   18.40
  -1   1   0  547.55   18.60
   1   1   0  485.45   19.30
   1   1   0  459.65   18.60
  -1   1   0  520.25   18.80
  -1   1   0  446.96   18.90
   1  -1   0  455.25   19.10
  -1  -1   0  520.45   18.90
  -1  -1   0  440.36   18.90
   1  -1   0  481.55   18.80
   1  -1   0  486.45   18.90
   1   1   1  488.15   19.40
  -1   1  -1  520.15   19.70
   1   1   1  472.95   19.60
  -1   1  -1  495.35   19.70
   1   1   1  464.95   19.50
   1  -1   1  540.85   19.80
  -1  -1  -1  472.95   19.50
  -1  -1  -1  489.05   19.60
   1  -1   1  511.65   19.70
  -1  -1  -1  527.85   19.40
  -1   1  -2  282.27   11.70
  -1   1  -2  279.07   11.70
   1   1   2  257.37   11.60
   1   1   2  268.07   11.70
  -1  -1  -2  276.57   11.70
  -1  -1  -2  268.77   11.70
   1  -1   2  290.77   11.70
   1  -1   2  296.17   11.80
   1   1   3 1046.60   40.00
  -1   1  -3  988.90   39.90
   1   1   3  951.70   39.80
  -1   1  -3 1009.90   39.90
   1  -1   3 1038.00   40.00
  -1  -1  -3  972.70   39.90
   1  -1   3  994.50   39.90
  -1  -1  -3 1061.99   40.00
  -1   1  -4  234.78   11.20
  -1   1  -4  246.48   11.40
   1   1   4  229.68   11.30
   1   1   4  242.38   11.40
   1  -1   4  232.28   11.30
  -1  -1  -4  240.88   11.50
   1  -1   4  248.28   11.40
  -1  -1  -4  225.78   11.30
  -1   1  -5   31.60    4.50
  -1   1  -5   30.40    4.50
   1   1   5   23.30    4.10
   1   1   5   20.60    4.30
   1  -1   5   30.10    4.40
   1  -1   5   26.30    4.20
  -1  -1  -5   25.90    4.30
  -1  -1  -5   27.00    4.60
  -1   1  -6    1.70    3.90
   1   1   6    1.70    4.90
  -1   1  -6   -2.00    4.30
   1   1   6   -5.40    4.90
   1  -1   6    0.90    4.40
  -1  -1  -6   -7.30    4.50
   1  -1   6   -2.60    4.90
  -1  -1  -6   -1.80    4.20
   1   1   7   99.29   10.20
  -1   1  -7  108.29    9.90
   1   1   7  106.69   10.20
  -1   1  -7  111.09   10.70
   1  -1   7  124.09   11.10
  -1  -1  -7  110.49   10.30
  -1  -1  -7  107.79   10.10
   1  -1   7  120.79   10.70
   1   1   8    0.80    6.30
  -1   1  -8   12.80    8.10
   1   1   8    6.20    7.50
   1   1   8   23.90    8.60
  -1   1  -8    5.60    6.80
   1  -1   8   -1.00    7.20
   1  -1   8    0.40    6.90
  -1  -1  -8   -4.20    6.90
  -1  -1  -8    8.20    7.10
   1  -1   8    3.80    8.00
  -1  -1  -8    0.50    7.40
  -1   2   8   41.30    7.30
  -1   2   8   62.09    9.80
  -1   2   8   39.60    8.90
   1   2  -8   46.50    7.80
   1   2  -8   34.60    7.10
  -1  -2   8   30.20    5.70
   1  -2  -8   35.20    8.70
   1  -2  -8   40.40    8.40
  -1  -2   8   43.00    8.50
   1  -2  -8   38.40    8.00
  -1  -2   8   23.70    7.30
  -1   2   7   13.20    6.80
   1   2  -7    4.10    5.40
   1   2  -7    5.10    4.90
  -1   2   7    6.30    6.50
  -1   2   7    8.20    4.80
   1  -2  -7    2.90    5.60
  -1  -2   7    9.20    5.30
  -1  -2   7    7.20    3.80
   1  -2  -7    2.00    5.70
  -1   2   6    2.70    4.40
   1   2  -6   -2.50    3.60
  -1   2   6   -1.20    3.60
   1   2  -6   -1.40    4.20
  -1   2   6    1.80    4.70
   1  -2  -6    2.20    4.80
  -1  -2   6   -2.10    3.80
   1  -2  -6    6.40    4.50
  -1  -2   6   -3.70    4.00
  -1  -2   6   -0.10    3.00
   1  -2  -6    4.00    4.80
  -1   2   5   68.39    5.90
  -1   2   5   61.79    6.10
   1   2  -5   56.49    5.90
  -1   2   5   54.09    6.40
   1   2  -5   61.09    5.70
  -1  -2   5   61.79    5.70
   1  -2  -5   58.89    6.20
   1  -2  -5   66.09    6.40
  -1  -2   5   66.39    6.10
  -1  -2   5   56.09    4.80
   1   2  -4  820.32   33.00
  -1   2   4  785.62   33.20
  -1   2   4  806.92   33.00
  -1   2   4  800.22   33.30
   1   2  -4  821.92   33.10
   1  -2  -4  810.12   33.30
  -1  -2   4  814.92   32.40
  -1  -2   4  838.32   33.00
  -1  -2   4  898.51   33.20
   1  -2  -4  797.12   33.30
  -1   2   3    5.30    2.30
   1   2  -3    6.00    2.10
   1   2  -3    2.20    1.70
  -1   2   3    7.40    2.00
  -1   2   3    4.40    2.10
   1  -2  -3    6.00    2.30
  -1  -2   3    3.30    2.00
  -1  -2   3    3.90    1.20
   1  -2  -3    5.10    2.10
  -1  -2   3    4.10    2.00
   1  -2  -3    3.40    2.20
  -1   2   2 2099.49   78.79
  -1   2   2 2025.90   78.69
   1   2  -2 1957.00   78.49
  -1   2   2 2138.59   78.89
   1   2  -2 1962.20   78.49
   1   2  -2 1915.31   78.19
   1  -2  -2 2163.98   78.79
   1  -2  -2 2035.50   78.79
  -1  -2   2 2035.20   78.19
  -1  -2   2 2031.30   78.49
  -1  -2   2 2041.70   78.49
   1  -2  -2 2019.30   78.69
  -1   2   1  138.79    6.40
   1   2  -1  138.59    5.90
  -1   2   1  150.48    6.40
  -1   2   1  143.69    6.30
   1   2  -1  140.69    5.90
  -1   2   1  149.29    6.40
   1   2  -1  141.69    5.90
   1  -2  -1  138.69    6.40
  -1  -2   1  140.79    5.90
  -1  -2   1  147.79    6.40
   1  -2  -1  139.39    6.40
  -1  -2   1  145.49    5.90
   1  -2  -1  140.39    6.40
   1  -2  -1  150.08    6.40
   1   2   0   51.59    2.80
  -1   2   0   48.20    3.30
  -1   2   0   51.09    3.30
  -1   2   0   53.99    2.90
   1   2   0   52.99    3.20
  -1   2   0   58.69    3.00
   1   2   0   52.99    3.30
   1   2   0   51.59    2.30
  -1  -2   0   51.89    2.70
   1  -2   0   53.89    3.30
   1  -2   0   51.99    3.40
  -1  -2   0   47.60    3.20
  -1  -2   0   54.89    3.30
   1  -2   0   54.79    2.90
   1  -2   0   49.00    2.50
   1  -2   0   52.19    2.90
  -1  -2   0   47.20    2.30
  -1   2  -1  103.69    4.80
  -1   2  -1  110.49    5.20
   1   2   1  105.19    4.80
   1   2   1  101.69    4.80
  -1   2  -1  108.49    5.10
   1   2   1  109.99    4.80
  -1  -2  -1  102.99    4.80
   1  -2   1  109.89    5.10
  -1  -2  -1  106.09    4.80
   1  -2   1  105.59    4.80
  -1  -2  -1  102.69    4.80
   1  -2   1  110.79    5.20
  -1   2  -2  466.75   18.00
  -1   2  -2  452.15   18.00
   1   2   2  417.56   17.90
   1   2   2  416.06   17.90
   1  -2   2  456.55   18.00
  -1  -2  -2  433.06   17.90
  -1  -2  -2  428.16   17.90
  -1  -2  -2  448.96   17.70
   1  -2   2  453.85   18.00
  -1   2  -3   -0.90    1.80
   1   2   3   -1.10    1.90
  -1   2  -3    2.20    1.90
   1   2   3    1.80    2.20
  -1  -2  -3   -1.50    1.90
   1  -2   3   -1.00    2.00
  -1  -2  -3    1.00    1.70
   1  -2   3    0.60    1.90
  -1  -2  -3   -1.00    2.20
   1   2   4  321.37   15.20
  -1   2  -4  338.37   15.00
  -1   2  -4  363.56   15.30
   1   2   4  334.97   15.30
  -1  -2  -4  327.97   14.90
   1  -2   4  356.36   15.20
  -1  -2  -4  336.37   15.20
   1  -2   4  351.66   15.20
  -1  -2  -4  341.37   15.40
  -1   2  -5   26.20    4.40
   1   2   5   24.90    4.70
  -1   2  -5   28.80    4.30
   1   2   5   29.90    4.80
  -1  -2  -5   25.20    4.00
   1  -2   5   29.80    4.20
   1  -2   5   40.10    5.20
  -1  -2  -5   28.40    4.60
  -1  -2  -5   24.60    4.60
   1   2   6   16.20    5.60
   1   2   6   17.50    5.20
  -1   2  -6   12.20    5.10
  -1   2  -6   19.70    5.00
   1  -2   6   19.60    5.70
  -1  -2  -6    9.20    5.10
  -1  -2  -6   16.80    4.50
  -1  -2  -6   10.20    4.90
   1  -2   6   19.60    5.20
   1   2   7   -0.70    5.80
  -1   2  -7    2.70    6.00
   1   2   7    2.50    4.90
   1   2   7    2.60    5.90
  -1   2  -7    3.60    5.10
  -1  -2  -7   -0.60    5.40
   1  -2   7    9.60    5.90
   1  -2   7    3.80    5.80
  -1  -2  -7   -2.30    6.30
  -1  -2  -7    3.90    5.00
   1   2   8   86.39   11.90
  -1   2  -8  108.19   12.30
   1   2   8   87.69   12.40
   1   2   8   96.89   11.90
  -1   2  -8  122.29   12.50
  -1  -2  -8   87.79   12.40
  -1  -2  -8   95.99   12.10
  -1  -2  -8   92.89   11.70
   1  -2   8  107.19   11.60
   1  -2   8  115.79   12.70
   1  -2   8   97.59   10.50
   1   3  -8   11.40    6.50
  -1   3   8    7.10    6.40
  -1   3   8    4.00    7.70
   1   3  -8    5.40    6.70
  -1   3   8    4.10    7.70
   1  -3  -8    8.30    8.00
   1  -3  -8    6.60    7.30
  -1  -3   8    6.40    6.60
  -1  -3   8    7.00    4.70
  -1  -3   8    1.00    7.00
   1  -3  -8    1.30    7.70
  -1   3   7   65.59    8.60
   1   3  -7   55.89    8.30
   1   3  -7   61.79    8.50
  -1   3   7   53.49    7.80
  -1   3   7   39.60    6.80
  -1  -3   7   63.49    6.60
  -1  -3   7   64.89    8.90
   1  -3  -7   56.89    8.10
   1  -3  -7   66.49    9.30
   1   3  -6   28.60    4.90
  -1   3   6   17.30    5.70
  -1   3   6   21.00    5.30
   1   3  -6   24.90    4.80
  -1   3   6   25.40    4.90
   1  -3  -6   25.90    6.00
   1  -3  -6   28.20    5.90
  -1  -3   6   24.30    3.60
  -1  -3   6   20.30    4.80
   1  -3  -6   18.80    4.80
  -1  -3   6   21.90    4.70
   1   3  -5  125.69    7.60
  -1   3   5  109.29    8.10
  -1   3   5  120.99    7.90
  -1   3   5  120.89    8.30
   1   3  -5  112.89    7.30
  -1  -3   5  127.09    7.60
   1  -3  -5  106.69    8.20
   1  -3  -5  117.59    8.30
   1  -3  -5  118.49    8.40
  -1  -3   5  118.99    6.50
  -1  -3   5  136.29    7.90
  -1   3   4   45.90    4.80
   1   3  -4   52.39    4.50
   1   3  -4   50.79    4.40
  -1   3   4   44.50    5.00
  -1   3   4   47.20    5.20
  -1  -3   4   49.10    4.40
   1  -3  -4   61.39    5.30
   1  -3  -4   47.70    5.00
  -1  -3   4   44.60    4.60
   1  -3  -4   54.79    5.30
  -1  -3   4   53.39    3.60
  -1   3   3 1324.47   51.19
   1   3  -3 1251.87   50.79
  -1   3   3 1303.87   51.19
   1   3  -3 1241.88   50.79
  -1   3   3 1309.07   51.09
   1  -3  -3 1331.67   51.29
  -1  -3   3 1313.87   50.29
  -1  -3   3 1337.67   50.89
   1  -3  -3 1331.27   51.19
  -1  -3   3 1256.37   50.79
  -1   3   2   46.40    3.50
  -1   3   2   48.00    3.40
  -1   3   2   46.70    3.70
  -1   3   2   50.29    3.70
   1   3  -2   42.80    2.90
   1   3  -2   44.10    2.90
   1  -3  -2   50.59    3.60
   1  -3  -2   50.49    3.70
   1  -3  -2   47.80    3.50
  -1  -3   2   47.40    2.40
  -1  -3   2   44.90    3.00
  -1  -3   2   45.20    2.90
   1  -3  -2   47.70    3.50
   1   3  -1  392.06   15.20
   1   3  -1  355.66   14.60
   1   3  -1  369.56   14.60
   1   3  -1  376.86   15.00
  -1   3   1  382.56   15.10
  -1   3   1  360.86   15.10
   1   3  -1  349.07   14.40
  -1   3   1  364.76   15.00
  -1   3   1  374.46   15.10
  -1  -3   1  383.46   15.20
   1  -3  -1  360.46   15.00
   1  -3  -1  381.46   15.10
  -1  -3   1  376.36   14.60
   1  -3  -1  367.26   15.10
   1  -3  -1  365.76   15.10
   1   3   0  364.66   14.90
   1   3   0  384.96   15.30
  -1   3   0  399.86   15.50
   1   3   0  407.16   15.50
  -1   3   0  381.66   15.20
  -1   3   0  377.76   15.70
  -1   3   0  422.86   14.90
   1   3   0  372.76   15.00
   1   3   0  396.76   15.70
  -1   3   0  364.96   15.70
   1  -3   0  391.46   15.50
  -1  -3   0  357.16   15.60
  -1  -3   0  380.16   14.90
   1  -3   0  353.16   15.70
   1  -3   0  375.36   15.70
  -1  -3   0  384.66   15.30
   1  -3   0  380.46   15.30
   1  -3   0  353.46   14.90
  -1   3  -1  961.30   37.60
   1   3   1  970.10   37.40
  -1   3  -1  997.50   37.60
  -1   3  -1  939.91   37.20
   1   3   1  923.51   37.20
   1   3   1  952.70   37.20
  -1  -3  -1  958.90   37.20
   1  -3   1  944.21   37.20
   1  -3   1  961.20   37.60
  -1  -3  -1  961.70   37.20
   1  -3   1  999.50   37.60
  -1  -3  -1  916.91   37.30
   1   3   2    9.90    1.90
  -1   3  -2    9.60    2.00
   1   3   2   11.70    1.80
   1   3   2    9.60    1.80
  -1   3  -2    9.80    1.90
   1  -3   2   12.00    2.10
  -1  -3  -2   10.30    2.00
  -1  -3  -2    9.60    1.70
  -1  -3  -2   10.50    2.00
   1  -3   2    9.70    1.90
   1   3   3 1357.66   54.39
   1   3   3 1325.27   54.39
  -1   3  -3 1404.96   54.39
  -1   3  -3 1417.36   54.49
   1  -3   3 1431.16   54.39
  -1  -3  -3 1377.66   54.39
  -1  -3  -3 1366.46   54.39
   1  -3   3 1400.86   54.49
  -1  -3  -3 1387.16   54.19
  -1   3  -4   42.40    4.70
  -1   3  -4   43.40    4.70
   1   3   4   29.30    4.60
   1   3   4   36.80    4.90
  -1  -3  -4   35.90    5.00
   1  -3   4   43.70    4.50
   1  -3   4   43.30    4.60
  -1  -3  -4   40.50    4.60
  -1  -3  -4   40.70    4.80
   1   3   5   46.60    6.30
   1   3   5   46.70    6.20
  -1   3  -5   57.59    6.00
  -1   3  -5   55.49    5.80
  -1  -3  -5   47.00    6.30
  -1  -3  -5   59.59    6.20
  -1  -3  -5   47.50    5.90
   1  -3   5   62.09    6.00
   1  -3   5   52.99    6.00
  -1   3  -6   56.69    7.30
   1   3   6   48.40    6.80
  -1   3  -6   62.39    7.30
   1   3   6   44.60    6.70
  -1  -3  -6   48.50    7.80
  -1  -3  -6   50.99    7.60
   1  -3   6   72.69    7.80
  -1  -3  -6   48.80    7.30
   1  -3   6   61.69    7.50
   1   3   7   67.19    9.90
  -1   3  -7   68.69    9.20
  -1   3  -7   81.39    9.30
   1   3   7   81.09    9.80
  -1  -3  -7   55.79    7.70
   1  -3   7   80.49    9.40
  -1  -3  -7   61.49    8.50
  -1  -3  -7   79.09    9.60
   1  -3   7   61.89    9.90
   1   3   8   -4.30    6.70
  -1   3  -8    1.70    6.80
  -1   3  -8    5.90    7.00
   1   3   8   14.40    8.10
   1   3   8   -8.20    8.40
   1  -3   8    4.70    8.00
  -1  -3  -8    0.50    7.10
   1  -3   8   -1.60    5.40
  -1  -3  -8   -3.60    7.70
   1  -3   8   14.60    7.40
  -1  -3  -8    1.60    7.00
  -1   4   8   59.49   10.40
   1   4  -8   50.19    8.10
  -1   4   8   85.29   12.20
   1   4  -8   78.49   10.40
  -1   4   8   73.19    9.10
  -1  -4   8   80.59   11.70
   1  -4  -8   64.69   10.70
   1  -4  -8   86.09   12.60
  -1  -4   8   77.49   10.40
   1   4  -7   30.00    5.80
   1   4  -7   25.70    5.80
  -1   4   7   35.10    7.90
  -1   4   7   33.70    7.20
  -1  -4   7   26.60    4.20
  -1  -4   7   27.60    5.90
   1  -4  -7   26.50    6.90
  -1   4   6    6.20    4.90
   1   4  -6    5.70    4.00
  -1   4   6   -1.30    3.90
   1   4  -6    7.50    3.90
  -1   4   6    5.50    5.60
   1  -4  -6   11.30    4.90
  -1  -4   6   10.30    4.70
  -1  -4   6    1.50    2.60
   1  -4  -6    6.20    5.10
  -1  -4   6    7.80    5.40
   1   4  -5  130.29    7.80
  -1   4   5  120.39    8.50
   1   4  -5  124.79    7.50
  -1   4   5  112.29    7.90
  -1   4   5  112.99    8.40
  -1  -4   5  116.89    6.20
  -1  -4   5  129.49    7.80
   1  -4  -5  105.29    8.30
  -1  -4   5  116.09    7.60
   1  -4  -5  128.29    8.70
   1   4  -4  607.54   23.90
   1   4  -4  551.14   23.80
  -1   4   4  575.64   24.40
  -1   4   4  580.94   24.20
  -1   4   4  575.74   24.30
  -1  -4   4  580.34   23.00
   1  -4  -4  577.54   24.30
  -1  -4   4  567.84   23.80
   1  -4  -4  583.24   24.40
  -1  -4   4  590.74   23.90
  -1   4   3   26.80    3.50
   1   4  -3   21.10    2.80
  -1   4   3   24.00    3.70
  -1   4   3   20.70    2.80
   1   4  -3   20.40    3.00
  -1  -4   3   23.00    3.20
   1  -4  -3   24.10    3.40
   1  -4  -3   28.30    3.80
  -1  -4   3   25.00    1.90
   1  -4  -3   18.40    2.80
  -1  -4   3   25.30    3.10
   1   4  -2  690.83   28.40
  -1   4   2  715.03   28.80
  -1   4   2  737.73   29.00
  -1   4   2  718.53   28.90
   1   4  -2  713.13   28.50
  -1  -4   2  728.13   28.90
  -1  -4   2  713.33   28.40
   1  -4  -2  717.63   28.80
   1  -4  -2  715.33   28.80
   1  -4  -2  732.33   28.90
  -1  -4   2  731.03   28.50
   1  -4  -2  751.42   29.00
  -1   4   1  756.22   30.00
   1   4  -1  760.42   29.90
   1   4  -1  801.92   30.10
  -1   4   1  745.43   30.00
   1   4  -1  739.83   29.50
  -1   4   1  745.63   30.00
   1   4  -1  717.53   29.60
  -1   4   1  763.12   29.90
   1  -4  -1  751.82   30.00
  -1  -4   1  772.72   29.50
   1  -4  -1  742.43   29.90
  -1  -4   1  760.82   29.60
   1  -4  -1  748.43   30.00
   1  -4  -1  779.02   30.00
  -1  -4   1  777.62   30.10
  -1   4   0    4.40    2.10
   1   4   0    5.60    1.00
  -1   4   0    5.60    1.90
   1   4   0   11.30    2.40
   1   4   0    3.90    1.20
  -1   4   0    6.20    1.60
   1   4   0    3.90    1.40
   1   4   0    5.30    1.80
  -1   4   0    5.30    1.20
  -1   4   0    4.80    1.10
  -1  -4   0    3.70    1.80
  -1  -4   0    7.00    1.20
   1  -4   0    4.50    1.60
   1  -4   0    4.70    1.20
  -1  -4   0    4.40    1.20
   1  -4   0    6.40    1.40
   1  -4   0    4.00    1.80
  -1  -4   0    4.40    1.40
   1  -4   0    4.10    1.90
  -1  -4   0    3.10    1.70
  -1   4  -1  415.16   17.30
  -1   4  -1  421.66   17.00
  -1   4  -1  398.16   16.70
   1   4   1  428.86   16.90
   1   4   1  418.06   16.80
   1   4   1  424.96   17.20
  -1   4  -1  437.16   17.40
  -1  -4  -1  410.16   17.10
   1  -4   1  433.66   17.10
   1  -4   1  421.86   17.40
  -1  -4  -1  421.26   16.80
  -1  -4  -1  421.26   16.80
   1  -4   1  405.26   16.70
   1  -4   1  424.36   17.30
  -1   4  -2  603.24   24.20
  -1   4  -2  601.34   24.10
   1   4   2  582.04   23.90
   1   4   2  593.24   23.90
   1   4   2  593.04   23.90
  -1  -4  -2  591.34   23.90
  -1  -4  -2  620.64   24.00
   1  -4   2  573.94   23.40
   1  -4   2  591.64   24.10
   1  -4   2  615.04   24.20
  -1  -4  -2  590.24   23.90
  -1   4  -3   31.70    3.80
   1   4   3   28.10    3.70
  -1   4  -3   29.70    3.80
   1   4   3   31.10    3.80
  -1  -4  -3   27.90    3.80
  -1  -4  -3   31.00    3.80
   1  -4   3   29.40    3.80
  -1  -4  -3   31.00    4.00
   1  -4   3   27.60    3.70
  -1   4  -4  236.88   11.30
   1   4   4  231.98   11.40
  -1   4  -4  236.98   11.30
   1   4   4  214.48   11.30
  -1  -4  -4  230.98   11.30
  -1  -4  -4  226.08   11.10
  -1  -4  -4  235.98   11.50
   1  -4   4  232.88   11.30
   1  -4   4  242.78   11.30
  -1   4  -5  166.08    9.60
  -1   4  -5  169.88    9.60
   1   4   5  151.48    9.70
   1   4   5  157.08    9.70
   1  -4   5  159.48    9.50
   1  -4   5  169.68    9.80
  -1  -4  -5  152.08    9.70
  -1  -4  -5  176.08    9.70
  -1  -4  -5  151.58    9.70
   1   4   6    4.00    4.80
  -1   4  -6    2.10    4.30
   1   4   6   -6.90    4.90
  -1   4  -6    5.50    4.40
  -1  -4  -6    0.80    4.70
   1  -4   6    6.50    4.20
   1  -4   6   -1.00    4.50
  -1  -4  -6    3.70    5.50
  -1  -4  -6   11.20    4.60
   1   4   7   26.40    7.60
  -1   4  -7   35.10    7.10
   1   4   7   31.40    7.10
  -1   4  -7   25.10    6.60
  -1  -4  -7   31.70    7.40
  -1  -4  -7   18.10    6.40
  -1  -4  -7   30.90    7.30
   1  -4   7   28.90    6.70
   1  -4   7   18.80    6.10
   1   4   8   45.90    9.80
   1   4   8   48.20    8.80
  -1   4  -8   70.29   11.00
  -1   4  -8   84.49   11.30
   1   4   8   54.39   10.30
  -1  -4  -8   45.40    8.90
  -1  -4  -8   52.19    9.60
  -1  -4  -8   66.29   10.50
   1  -4   8   52.99    6.90
   1  -4   8   52.49    8.60
  -1   5   8   17.80    9.00
  -1   5   8   22.60    9.10
   1   5  -8    8.40    6.90
  -1   5   8    2.30    7.20
   1   5  -8    3.50    6.10
   1  -5  -8    4.90    8.60
  -1  -5   8    1.20    4.10
  -1  -5   8    5.10    6.60
   1  -5  -8   18.10    8.70
  -1  -5   8    0.50    7.90
  -1   5   7   -0.50    6.50
   1   5  -7    4.90    5.40
  -1   5   7    8.90    7.10
  -1   5   7   14.10    6.80
   1   5  -7    8.80    5.00
   1  -5  -7   13.40    6.30
  -1  -5   7    8.00    5.60
   1  -5  -7    6.10    6.90
  -1  -5   7    7.10    3.50
   1   5  -6  158.18    9.50
  -1   5   6  147.49   10.50
   1   5  -6  153.08    9.40
  -1   5   6  138.49   10.90
  -1   5   6  136.29   10.20
  -1  -5   6  135.89    7.50
  -1  -5   6  142.09   10.00
   1  -5  -6  130.59   10.80
  -1  -5   6  153.18    9.70
   1  -5  -6  141.99   11.00
   1   5  -5  162.98    9.20
  -1   5   5  141.59    9.70
  -1   5   5  166.18   10.20
  -1   5   5  171.38   10.30
   1   5  -5  179.38    9.40
  -1  -5   5  171.68    7.80
   1  -5  -5  156.78   10.30
  -1  -5   5  198.08    9.60
   1  -5  -5  163.18   10.30
  -1  -5   5  171.38    9.40
  -1   5   4   28.10    4.30
  -1   5   4   23.10    3.50
  -1   5   4   29.60    4.40
   1   5  -4   31.40    3.80
   1   5  -4   23.20    3.10
   1  -5  -4   27.70    4.20
  -1  -5   4   21.50    2.30
  -1  -5   4   29.60    4.00
   1  -5  -4   22.20    3.50
  -1  -5   4   24.80    3.30
  -1   5   3  692.93   28.20
  -1   5   3  666.43   28.00
  -1   5   3  695.53   28.00
  -1   5   3  700.63   28.10
   1   5  -3  680.63   27.60
   1   5  -3  662.73   27.50
   1  -5  -3  703.33   28.10
  -1  -5   3  673.83   27.60
   1  -5  -3  705.93   28.10
  -1  -5   3  672.33   27.60
   1  -5  -3  699.73   28.20
  -1   5   2  726.73   29.20
  -1   5   2  747.13   29.20
   1   5  -2  717.13   28.70
   1   5  -2  682.13   28.60
  -1   5   2  715.03   29.00
   1  -5  -2  730.83   29.20
   1  -5  -2  717.23   29.20
   1  -5  -2  722.83   29.10
   1  -5  -2  723.63   29.10
  -1  -5   2  738.43   28.70
  -1  -5   2  734.13   28.70
  -1  -5   2  735.13   29.20
   1   5  -1   68.29    4.90
  -1   5   1   66.89    4.60
  -1   5   1   69.79    4.30
   1   5  -1   68.49    3.60
   1   5  -1   61.39    3.80
   1   5  -1   67.19    4.30
  -1   5   1   70.29    4.10
  -1   5   1   71.49    4.40
  -1  -5   1   66.79    3.90
  -1  -5   1   66.19    4.40
  -1  -5   1   72.69    3.70
   1  -5  -1   69.79    4.40
   1  -5  -1   65.79    4.50
   1  -5  -1   69.19    4.50
   1  -5  -1   68.19    4.20
  -1   5   0  817.92   31.40
   1   5   0  738.83   31.00
   1   5   0  804.52   31.30
  -1   5   0  876.31   30.80
   1   5   0  775.32   30.70
  -1   5   0  790.52   30.90
   1   5   0  863.41   31.60
  -1   5   0  803.82   31.50
  -1   5   0  765.72   31.60
  -1  -5   0  778.82   30.80
   1  -5   0  764.02   31.50
   1  -5   0  799.52   31.40
  -1  -5   0  713.13   31.10
  -1  -5   0  784.12   30.90
  -1  -5   0  821.42   31.20
   1  -5   0  729.43   31.50
   1  -5   0  838.72   30.90
  -1  -5   0  714.63   31.40
   1  -5   0  779.62   30.90
  -1   5  -1 1472.25   57.09
   1   5   1 1434.96   56.89
   1   5   1 1562.74   57.09
   1   5   1 1506.55   56.49
  -1   5  -1 1429.86   56.69
   1   5   1 1453.85   56.49
  -1   5  -1 1349.56   56.89
  -1   5  -1 1421.06   56.29
   1  -5   1 1459.75   57.09
  -1  -5  -1 1453.75   56.39
   1  -5   1 1404.26   56.19
   1  -5   1 1401.16   56.99
   1  -5   1 1526.15   56.39
  -1  -5  -1 1449.55   56.79
  -1  -5  -1 1458.85   56.49
   1  -5   1 1496.35   56.79
   1   5   2   48.60    4.10
   1   5   2   55.89    3.90
   1   5   2   50.19    3.70
  -1   5  -2   46.60    3.80
  -1   5  -2   50.29    4.10
  -1   5  -2   53.99    4.30
   1  -5   2   49.80    4.20
   1  -5   2   50.89    4.10
  -1  -5  -2   45.20    4.10
   1  -5   2   47.50    3.10
  -1  -5  -2   49.80    3.90
   1   5   3 1377.16   54.69
   1   5   3 1391.26   54.89
  -1   5  -3 1394.66   54.99
   1   5   3 1363.36   54.89
  -1   5  -3 1401.06   54.99
   1  -5   3 1366.66   54.99
  -1  -5  -3 1434.36   54.99
   1  -5   3 1402.96   54.99
  -1  -5  -3 1410.56   54.79
  -1  -5  -3 1398.96   54.89
  -1   5  -4   99.59    6.60
   1   5   4   97.79    6.70
  -1   5  -4   90.49    6.40
   1   5   4   85.89    6.60
  -1  -5  -4   94.59    6.90
  -1  -5  -4   95.59    6.80
  -1  -5  -4   90.99    6.60
   1  -5   4   93.19    6.50
   1  -5   4  103.49    6.70
  -1   5  -5   60.69    6.60
   1   5   5   57.89    7.00
   1   5   5   61.79    7.00
  -1   5  -5   69.39    6.60
   1  -5   5   62.89    6.50
  -1  -5  -5   52.79    6.80
   1  -5   5   68.89    6.70
  -1  -5  -5   60.89    6.70
  -1  -5  -5   67.49    7.20
   1   5   6  124.39   10.40
   1   5   6  132.89   10.40
   1   5   6  146.69   10.70
  -1   5  -6  165.58   10.40
  -1   5  -6  158.68   10.30
   1  -5   6  163.48   10.70
  -1  -5  -6  141.29   10.40
  -1  -5  -6  144.19   10.90
  -1  -5  -6  141.89   10.60
   1  -5   6  171.68   10.50
  -1   5  -7   66.89    9.20
  -1   5  -7   48.40    7.20
   1   5   7   61.49    8.40
   1   5   7   58.89    8.40
   1   5   7   53.79    8.30
   1  -5   7   57.89    8.40
   1  -5   7   55.19    7.60
  -1  -5  -7   54.79    8.80
  -1  -5  -7   39.90    7.70
   1   5   8    3.80    8.70
   1   5   8   13.50    8.50
   1   5   8   -1.40    7.70
  -1   5  -8   25.10    7.60
  -1   5  -8   21.50    7.40
  -1  -5  -8    6.30    8.50
   1  -5   8   -1.80    4.50
   1  -5   8    3.80    7.10
   1  -5   8   18.50    8.30
  -1  -5  -8   10.90    7.70
  -1  -5  -8   21.70    8.30
  -1   6   8   21.80    7.90
  -1   6   8   28.40   10.40
   1   6  -8   31.90    7.20
   1   6  -8   49.00    8.40
  -1   6   8   29.90    9.80
   1  -6  -8   32.10    9.30
  -1  -6   8   31.20    8.80
   1  -6  -8   34.30    9.40
  -1  -6   8   34.00    7.60
  -1   6   7   86.99   10.60
  -1   6   7   77.69   11.20
  -1   6   7   82.49   11.70
   1   6  -7   97.29    9.20
   1   6  -7   89.79    9.00
  -1  -6   7   99.99   10.40
  -1  -6   7  103.09    9.90
   1  -6  -7   70.99   11.30
   1  -6  -7   89.89   11.00
  -1   6   6   10.50    5.50
   1   6  -6    9.90    4.10
   1   6  -6    3.50    4.00
  -1   6   6    5.70    5.50
  -1  -6   6   -1.70    4.00
   1  -6  -6    1.40    4.80
  -1  -6   6    1.20    2.20
  -1  -6   6   -2.10    4.10
   1  -6  -6   -4.90    5.50
  -1   6   5  183.88   10.80
  -1   6   5  186.88   11.20
  -1   6   5  186.08   11.30
   1   6  -5  184.38   10.00
   1   6  -5  189.18    9.90
  -1  -6   5  193.68   10.20
  -1  -6   5  177.98    8.20
  -1  -6   5  205.98   10.40
   1  -6  -5  189.88   11.10
   1  -6  -5  191.88   11.10
   1  -6  -5  165.78   10.80
   1   6  -4  101.19    6.30
  -1   6   4  102.29    6.90
  -1   6   4   97.09    7.30
  -1   6   4  114.29    7.60
   1   6  -4  102.29    6.30
   1  -6  -4   96.09    7.40
  -1  -6   4  103.39    6.50
   1  -6  -4  103.29    7.20
   1  -6  -4   99.69    7.30
  -1  -6   4   97.79    6.40
  -1   6   3   14.40    3.40
   1   6  -3   17.80    2.50
   1   6  -3   20.60    3.20
  -1   6   3   22.40    3.50
  -1   6   3   18.50    3.10
  -1   6   3   28.40    3.90
  -1  -6   3   17.80    2.70
  -1  -6   3   16.80    2.50
   1  -6  -3   16.10    3.10
  -1  -6   3   17.20    2.90
   1  -6  -3   19.20    3.30
   1  -6  -3   18.80    3.40
  -1   6   2  524.85   21.80
  -1   6   2  553.24   22.20
   1   6  -2  530.25   21.60
   1   6  -2  519.45   21.40
  -1   6   2  525.75   22.20
   1   6  -2  516.25   21.90
  -1  -6   2  529.75   21.50
   1  -6  -2  542.55   22.20
   1  -6  -2  553.54   22.10
   1  -6  -2  535.55   21.90
   1  -6  -2  528.15   22.10
  -1  -6   2  523.15   22.00
  -1  -6   2  540.25   21.60
   1   6  -1  674.43   26.20
  -1   6   1  645.64   26.70
  -1   6   1  678.23   26.20
   1   6  -1  638.84   26.20
   1   6  -1  659.93   26.60
  -1   6   1  685.43   26.90
  -1   6   1  660.83   26.40
  -1   6   1  655.93   26.70
   1  -6  -1  646.34   26.70
   1  -6  -1  663.43   26.80
  -1  -6   1  703.03   26.30
   1  -6  -1  655.53   26.40
  -1  -6   1  644.74   26.80
   1  -6  -1  684.13   26.90
  -1  -6   1  597.94   26.20
   1   6   0   19.20    2.30
  -1   6   0   22.00    2.90
   1   6   0   19.80    2.70
  -1   6   0   19.60    2.30
   1   6   0   20.10    3.50
  -1   6   0   23.00    2.80
  -1   6   0   24.20    3.40
   1   6   0   18.50    2.50
  -1   6   0   20.60    2.80
  -1  -6   0   22.30    3.20
  -1  -6   0   19.50    2.80
   1  -6   0   15.40    2.50
  -1  -6   0   17.80    2.90
  -1  -6   0   21.00    2.60
   1  -6   0   17.80    2.40
  -1  -6   0   20.00    2.20
   1  -6   0   15.20    3.00
   1  -6   0   16.60    3.10
   1   6   1  599.44   24.50
   1   6   1  604.34   23.80
  -1   6  -1  595.04   23.50
  -1   6  -1  616.74   24.10
  -1   6  -1  564.84   24.50
  -1   6  -1  569.54   24.40
   1  -6   1  593.14   23.40
   1  -6   1  603.54   24.30
   1  -6   1  572.04   24.50
  -1  -6  -1  590.44   23.80
  -1  -6  -1  592.64   23.70
   1  -6   1  577.54   24.40
   1  -6   1  623.24   23.70
  -1  -6  -1  612.54   24.20
   1   6   2  627.64   25.10
  -1   6  -2  615.64   25.20
  -1   6  -2  628.44   25.50
   1   6   2  640.84   25.20
   1   6   2  627.34   25.40
  -1   6  -2  613.74   25.60
   1  -6   2  594.44   24.40
  -1  -6  -2  610.04   25.00
  -1  -6  -2  606.94   25.30
   1  -6   2  639.04   25.60
  -1  -6  -2  629.04   25.20
   1  -6   2  616.94   25.50
  -1   6  -3   18.80    2.80
  -1   6  -3   13.80    3.10
  -1   6  -3   12.00    2.90
   1   6   3   18.00    3.10
   1   6   3   15.40    2.90
   1   6   3   13.40    3.10
  -1  -6  -3   15.50    2.90
  -1  -6  -3   13.00    3.00
   1  -6   3   13.20    1.90
   1  -6   3   12.40    2.80
   1  -6   3   20.70    3.40
  -1   6  -4  139.49    8.10
   1   6   4  131.79    8.00
  -1   6  -4  132.89    7.90
   1   6   4  138.19    8.30
  -1  -6  -4  139.69    8.30
  -1  -6  -4  135.89    8.20
   1  -6   4  121.49    7.70
   1  -6   4  133.59    8.20
  -1   6  -5  253.47   12.40
   1   6   5  224.28   12.50
  -1   6  -5  229.98   12.30
   1   6   5  218.48   12.50
   1  -6   5  228.08   12.20
   1  -6   5  234.58   12.30
  -1  -6  -5  230.88   12.50
  -1  -6  -5  232.28   12.60
  -1  -6  -5  232.58   12.30
  -1   6  -6   36.30    5.50
  -1   6  -6   49.90    7.50
   1   6   6   37.70    6.70
   1   6   6   30.30    6.30
  -1  -6  -6   36.30    6.00
  -1  -6  -6   33.10    6.40
   1  -6   6   38.20    6.10
  -1  -6  -6   37.50    7.00
   1   6   7   28.20    7.80
   1   6   7   16.80    6.70
  -1   6  -7   24.80    6.30
  -1   6  -7   30.20    6.60
   1   6   7   14.80    7.10
  -1  -6  -7   24.20    7.50
   1  -6   7   19.10    6.20
   1  -6   7   15.90    4.10
   1  -6   7   29.20    6.90
  -1  -6  -7   14.00    7.40
   1   6   8   19.10    9.40
   1   6   8   20.10    8.30
  -1   6  -8   25.90    8.20
   1   6   8   13.70    9.20
  -1   6  -8   28.00    8.10
  -1  -6  -8   23.50    8.90
   1  -6   8   12.00    8.20
  -1  -6  -8   24.90    9.10
   1  -6   8   10.70    7.10
  -1  -6  -8   33.20    8.80
   1   7  -8   -1.70    7.30
  -1   7   8   17.20   10.10
  -1   7   8    1.50    9.50
   1   7  -8    7.20    6.90
  -1   7   8    1.80    7.40
  -1  -7   8    5.00    7.80
   1  -7  -8    5.60    9.30
   1  -7  -8   -7.80    9.10
   1  -7  -8    4.70    8.70
  -1  -7   8   -4.70    4.00
  -1  -7   8   -9.70    6.50
   1   7  -7   14.00    5.50
  -1   7   7   -8.50    7.50
  -1   7   7    9.10    7.70
   1   7  -7   12.50    5.20
  -1   7   7   -0.50    6.20
  -1  -7   7   12.50    6.10
  -1  -7   7    9.50    5.40
   1  -7  -7   12.40    7.70
   1  -7  -7    8.00    7.20
   1  -7  -7   -1.60    7.50
   1   7  -6  207.68   11.60
  -1   7   6  192.38   12.90
   1   7  -6  212.68   11.80
  -1   7   6  205.78   13.40
   1  -7  -6  196.68   13.30
  -1  -7   6  195.48    9.10
  -1  -7   6  213.68   11.90
   1  -7  -6  207.48   13.00
  -1   7   5   44.30    5.90
  -1   7   5   51.49    7.30
   1   7  -5   54.39    5.90
  -1   7   5   49.10    6.60
   1   7  -5   47.00    5.80
   1  -7  -5   39.80    5.40
  -1  -7   5   57.09    6.20
   1  -7  -5   44.90    6.50
   1  -7  -5   56.49    7.40
  -1  -7   5   46.80    6.10
   1   7  -4  203.38    9.90
  -1   7   4  198.78   10.70
  -1   7   4  197.68   10.90
  -1   7   4  197.28   10.80
   1   7  -4  200.38   10.00
   1  -7  -4  196.58   10.80
   1  -7  -4  201.68   10.80
  -1  -7   4  189.28   10.40
  -1  -7   4  195.48    9.80
   1  -7  -4  187.48   10.90
  -1  -7   4  203.58   10.00
  -1   7   3  382.76   16.60
   1   7  -3  372.46   16.60
  -1   7   3  370.36   16.70
   1   7  -3  348.87   15.90
   1   7  -3  373.56   16.20
  -1   7   3  388.66   16.90
  -1   7   3  391.86   16.90
  -1  -7   3  362.16   16.00
  -1  -7   3  393.96   16.30
   1  -7  -3  373.56   16.70
  -1  -7   3  367.36   16.60
   1  -7  -3  393.26   16.80
   1  -7  -3  382.36   16.80
   1   7  -2   65.99    4.70
  -1   7   2   64.29    5.40
  -1   7   2   74.59    5.70
   1   7  -2   69.39    5.30
   1   7  -2   76.09    4.40
  -1   7   2   71.89    5.10
   1  -7  -2   80.29    5.50
   1  -7  -2   70.29    5.60
  -1  -7   2   69.39    5.30
   1  -7  -2   75.89    5.60
  -1  -7   2   75.49    4.90
  -1  -7   2   72.49    4.50
  -1   7   1  104.19    6.50
   1   7  -1  103.99    5.40
   1   7  -1  102.39    4.40
   1   7  -1   95.49    6.00
  -1   7   1  100.39    5.50
  -1   7   1  103.29    6.30
   1   7  -1  100.79    5.40
  -1   7   1   96.49    5.90
  -1   7   1   98.69    6.00
   1  -7  -1   99.59    6.30
   1  -7  -1  107.29    5.70
   1  -7  -1   94.09    6.20
   1  -7  -1  108.09    6.30
  -1  -7   1  104.49    5.60
  -1  -7   1  102.69    6.20
  -1  -7   1   99.09    5.60
  -1   7   0 1216.98   47.50
  -1   7   0 1197.98   46.80
  -1   7   0 1203.78   47.60
   1   7   0 1225.18   47.60
  -1   7   0 1307.17   46.80
   1   7   0 1188.48   46.80
   1   7   0 1153.68   47.20
  -1   7   0 1184.98   47.80
  -1  -7   0 1138.09   47.60
  -1  -7   0 1236.88   47.40
   1  -7   0 1247.18   47.70
   1  -7   0 1204.48   47.70
  -1  -7   0 1198.38   46.90
   1  -7   0 1130.99   47.70
  -1  -7   0 1147.99   47.20
   1  -7   0 1205.68   46.80
  -1  -7   0 1193.88   47.00
   1   7   1   40.00    3.40
   1   7   1   37.40    4.80
  -1   7  -1   43.80    3.00
  -1   7  -1   36.00    4.40
  -1   7  -1   32.20    4.10
  -1   7  -1   31.70    4.20
  -1  -7  -1   40.60    3.50
   1  -7   1   40.70    4.60
  -1  -7  -1   40.30    3.50
  -1  -7  -1   41.50    4.00
   1  -7   1   39.50    2.90
   1  -7   1   39.80    3.50
   1  -7   1   33.20    4.60
  -1  -7  -1   38.00    4.20
   1  -7   1   35.70    4.40
  -1   7  -2  138.59    8.10
   1   7   2  164.08    8.40
   1   7   2  151.98    7.60
   1   7   2  153.98    7.70
  -1   7  -2  157.88    8.30
  -1   7  -2  142.59    7.80
  -1  -7  -2  154.48    8.10
   1  -7   2  156.38    7.50
   1  -7   2  138.69    8.20
   1  -7   2  152.38    8.20
  -1  -7  -2  144.49    7.50
  -1  -7  -2  150.18    7.70
   1  -7   2  143.49    6.60
  -1   7  -3  151.98    8.20
   1   7   3  157.98    8.70
   1   7   3  155.38    8.30
  -1   7  -3  162.48    8.80
   1   7   3  153.08    8.40
  -1   7  -3  150.48    8.50
   1  -7   3  150.98    8.50
  -1  -7  -3  160.08    8.50
  -1  -7  -3  149.49    8.60
   1  -7   3  154.68    8.80
  -1  -7  -3  151.58    8.20
   1  -7   3  158.98    6.90
  -1   7  -4  229.88   12.00
  -1   7  -4  231.38   11.90
  -1   7  -4  225.88   11.60
   1   7   4  234.08   11.90
   1   7   4  246.38   11.80
   1   7   4  243.08   12.00
   1  -7   4  229.68   10.10
   1  -7   4  241.98   12.10
  -1  -7  -4  242.18   12.10
  -1  -7  -4  244.78   12.10
   1  -7   4  235.08   11.90
  -1   7  -5    5.70    3.80
  -1   7  -5   -1.60    3.50
   1   7   5    6.50    4.60
   1   7   5   -0.10    4.30
   1   7   5    2.80    3.70
   1  -7   5    1.60    3.80
  -1  -7  -5    3.20    4.90
   1  -7   5    3.90    3.70
  -1  -7  -5    3.60    4.00
   1   7   6   98.69    9.90
  -1   7  -6  122.69    9.70
  -1   7  -6  121.49    9.50
   1   7   6   93.49   10.00
  -1  -7  -6  110.59   10.20
  -1  -7  -6  120.99   10.50
   1  -7   6  106.89    9.50
   1   7   7   10.00    7.80
   1   7   7   13.70    7.00
  -1   7  -7   16.80    6.40
  -1   7  -7   22.70    6.60
   1   7   7   17.70    6.70
  -1  -7  -7    9.80    7.30
  -1  -7  -7   14.10    7.20
   1  -7   7   30.20    7.00
   1  -7   7   22.10    6.40
  -1   7  -8   -7.40    7.80
  -1   7  -8   -4.40    7.80
   1   7   8    6.80    9.30
   1   7   8    3.30    9.40
   1   7   8    8.80    7.80
  -1  -7  -8   15.40    9.20
  -1  -7  -8    5.40    8.80
   1  -7   8   -2.60    7.30
   1  -7   8   -0.20    4.40
   1  -7   8    1.10   10.50
  -1   8   7   44.80    8.00
   1   8  -7   57.89    8.50
   1   8  -7   37.00    7.00
  -1   8   7   39.20    9.20
  -1   8   7   44.10    9.00
   1  -8  -7   47.50    9.10
   1  -8  -7   47.10    9.30
  -1  -8   7   28.60    7.10
  -1  -8   7   44.90    7.10
   1  -8  -7   50.49   10.00
  -1   8   6    4.30    6.20
   1   8  -6   -0.30    3.80
  -1   8   6    9.70    6.50
   1   8  -6    8.20    4.40
   1  -8  -6   -3.00    5.90
   1  -8  -6    0.60    8.50
  -1  -8   6    4.80    4.20
   1  -8  -6   -4.20    6.20
  -1   8   5  230.08   13.20
   1   8  -5  222.18   11.90
  -1   8   5  227.58   13.30
   1   8  -5  239.38   12.00
   1  -8  -5  233.78   13.40
   1  -8  -5  217.98   13.10
  -1  -8   5  234.08   12.20
   1  -8  -5  278.07   17.80
  -1  -8   5  224.08   12.70
  -1  -8   5  235.88   12.10
  -1   8   4   87.59    7.40
  -1   8   4   93.59    7.70
  -1   8   4   93.69    7.30
  -1   8   4   88.19    7.60
   1   8  -4   88.19    6.40
   1   8  -4   93.19    6.20
  -1  -8   4   95.99    6.60
   1  -8  -4   90.99    7.70
  -1  -8   4   85.89    6.90
  -1  -8   4   91.09    6.50
   1  -8  -4   83.89    7.40
   1  -8  -4   87.69    7.90
   1   8  -3    3.00    2.50
  -1   8   3    6.80    3.40
  -1   8   3    4.30    2.70
   1   8  -3    4.80    2.80
  -1   8   3    4.30    3.50
   1   8  -3    5.10    2.30
  -1   8   3    0.90    3.30
  -1  -8   3    6.20    2.80
  -1  -8   3    3.30    2.40
  -1  -8   3    6.40    3.10
   1  -8  -3    2.90    2.70
   1  -8  -3    1.40    3.20
   1  -8  -3    7.00    3.40
   1   8  -2   92.09    5.80
   1   8  -2   94.39    6.40
  -1   8   2   89.89    6.60
  -1   8   2   92.39    6.80
  -1   8   2   93.99    6.00
   1   8  -2   95.59    5.40
  -1  -8   2   93.99    6.20
   1  -8  -2   89.89    6.70
   1  -8  -2   96.49    6.60
   1  -8  -2  101.19    6.60
  -1  -8   2   95.79    5.60
  -1  -8   2   89.19    6.00
  -1   8   1  661.73   26.30
  -1   8   1  634.54   25.70
  -1   8   1  623.14   26.40
   1   8  -1  619.64   26.20
  -1   8   1  623.24   25.80
   1   8  -1  611.34   24.80
   1   8  -1  656.23   25.90
  -1   8   1  650.23   26.50
   1   8  -1  658.63   25.70
  -1  -8   1  611.84   26.30
   1  -8  -1  652.93   26.50
   1  -8  -1  648.54   25.90
  -1  -8   1  631.04   25.80
  -1  -8   1  667.13   26.10
   1  -8  -1  600.64   26.30
   1  -8  -1  634.74   26.50
   1   8   0   41.40    3.00
   1   8   0   38.30    4.20
  -1   8   0   42.70    4.60
  -1   8   0   36.20    4.90
   1   8   0   31.80    4.60
   1   8   0   43.90    3.50
  -1   8   0   43.40    4.70
  -1   8   0   42.40    3.30
  -1   8   0   38.50    4.80
  -1  -8   0   44.30    3.80
   1  -8   0   42.40    3.60
   1  -8   0   40.10    5.00
  -1  -8   0   40.00    4.80
   1  -8   0   37.30    4.90
  -1  -8   0   36.00    4.70
  -1  -8   0   37.30    4.30
   1  -8   0   36.40    4.90
  -1  -8   0   37.10    4.10
   1   8   1  633.74   26.00
  -1   8  -1  634.74   26.60
   1   8   1  661.33   25.90
  -1   8  -1  646.94   25.50
   1   8   1  670.33   26.90
  -1   8  -1  627.84   26.30
   1  -8   1  593.34   26.80
   1  -8   1  636.74   25.40
  -1  -8  -1  645.34   26.50
   1  -8   1  644.14   25.90
   1  -8   1  648.24   26.70
  -1  -8  -1  616.84   25.90
   1  -8   1  643.24   26.70
  -1  -8  -1  656.33   26.00
  -1  -8  -1  642.74   25.90
  -1   8  -2  241.48   11.40
   1   8   2  232.68   11.80
   1   8   2  240.48   11.20
   1   8   2  250.87   11.20
   1   8   2  249.08   11.20
  -1   8  -2  236.78   11.70
  -1   8  -2  213.78   11.60
   1  -8   2  228.38   11.80
   1  -8   2  235.88   10.00
  -1  -8  -2  236.48   11.00
  -1  -8  -2  241.98   11.10
   1  -8   2  238.18   11.80
  -1  -8  -2  242.88   11.60
   1  -8   2  250.27   11.00
   1   8   3   22.60    3.60
   1   8   3   32.90    4.40
  -1   8  -3   34.50    4.50
  -1   8  -3   32.80    4.10
   1   8   3   30.00    4.20
  -1   8  -3   26.70    4.20
   1   8   3   25.70    3.90
  -1  -8  -3   25.70    3.80
   1  -8   3   25.40    2.60
  -1  -8  -3   27.00    3.90
   1  -8   3   27.40    4.10
   1  -8   3   28.40    3.70
  -1  -8  -3   25.30    3.90
   1  -8   3   26.30    4.30
  -1   8  -4  110.29    7.80
   1   8   4   95.59    7.80
  -1   8  -4  101.79    7.50
   1   8   4  110.89    8.00
   1   8   4   95.49    7.60
   1   8   4  102.29    7.80
  -1   8  -4  116.99    8.10
  -1  -8  -4  104.59    8.10
   1  -8   4  101.89    5.30
  -1  -8  -4  106.79    7.90
  -1  -8  -4  113.29    7.70
   1  -8   4  116.79    8.00
   1  -8   4  112.59    8.10
   1   8   5  215.58   12.40
  -1   8  -5  227.98   12.30
  -1   8  -5  211.68   11.90
   1   8   5  231.98   12.60
  -1   8  -5  214.38   12.20
   1   8   5  228.58   12.70
  -1  -8  -5  225.08   12.80
   1  -8   5  213.38    9.80
   1  -8   5  236.18   12.50
  -1  -8  -5  214.78   12.60
  -1   8  -6    2.30    5.00
  -1   8  -6   -0.50    4.60
   1   8   6    8.20    5.80
   1   8   6    3.10    6.00
  -1  -8  -6    3.70    6.10
   1  -8   6    8.40    5.40
   1  -8   6   -0.80    2.50
   1   8   7   37.80    8.30
  -1   8  -7   27.00    6.90
  -1   8  -7   46.30    7.30
   1   8   7   38.60    7.90
   1   8   7   53.99    9.70
   1  -8   7   46.00    7.50
  -1  -8  -7   45.40    8.20
  -1  -8  -7   35.60    8.40
   1  -8   7   35.50    7.60
  -1   9   7    2.10    8.30
   1   9  -7    6.70    5.60
   1   9  -7   11.30    6.30
  -1   9   7   17.70    8.80
  -1   9   7   13.40    7.50
  -1  -9   7    3.90    5.70
  -1  -9   7    4.20    6.60
   1  -9  -7   14.60    8.70
   1  -9  -7   28.00    8.80
  -1  -9   7    6.60    4.60
   1  -9  -7    7.70    8.30
  -1   9   6  137.69   12.60
   1   9  -6  156.88   10.40
   1   9  -6  153.48   10.10
  -1   9   6  146.09   14.90
  -1   9   6  154.18   12.80
   1  -9  -6  139.49   12.90
  -1  -9   6  153.38   10.70
  -1  -9   6  162.58   10.70
   1  -9  -6  144.79   12.30
  -1  -9   6  157.18   11.00
   1  -9  -6  136.49   12.40
  -1   9   5   -6.90    4.20
   1   9  -5    1.10    3.60
  -1   9   5   -3.20    5.10
  -1   9   5   -5.30    4.80
   1   9  -5   -0.90    3.30
  -1  -9   5    0.70    4.00
  -1  -9   5    1.70    3.60
   1  -9  -5    4.50    5.30
   1  -9  -5   -5.80    5.10
  -1  -9   5   -1.90    3.80
   1   9  -4   82.09    7.60
  -1   9   4   97.59    8.30
  -1   9   4   84.29    8.20
  -1   9   4   96.29    8.20
   1   9  -4   87.09    6.70
  -1   9   4   86.09    7.60
   1   9  -4   88.79    6.30
   1  -9  -4   87.49    8.00
  -1  -9   4   92.69    7.40
  -1  -9   4   80.09    6.40
   1  -9  -4   78.19    8.40
  -1  -9   4   84.69    6.90
   1  -9  -4   70.69    7.70
   1   9  -3   64.19    6.10
   1   9  -3   53.39    5.40
  -1   9   3   64.19    5.90
  -1   9   3   57.69    6.60
  -1   9   3   66.49    7.10
  -1   9   3   54.99    6.20
   1   9  -3   58.99    4.90
  -1  -9   3   61.39    5.70
  -1  -9   3   55.79    5.80
   1  -9  -3   62.29    6.40
  -1  -9   3   58.19    5.10
   1  -9  -3   59.59    6.50
   1  -9  -3   53.19    6.60
  -1   9   2  333.67   15.60
  -1   9   2  332.77   14.80
   1   9  -2  323.37   15.10
   1   9  -2  320.37   14.60
  -1   9   2  338.07   15.40
   1   9  -2  335.67   14.30
   1  -9  -2  324.27   15.40
  -1  -9   2  357.86   14.60
   1  -9  -2  337.47   15.40
  -1  -9   2  314.77   15.10
  -1  -9   2  309.57   14.70
   1  -9  -2  336.27   15.20
   1   9  -1   22.90    3.60
  -1   9   1   29.70    4.30
  -1   9   1   32.30    4.50
   1   9  -1   24.90    3.50
   1   9  -1   31.10    3.90
  -1   9   1   31.60    3.70
   1   9  -1   31.20    2.30
  -1   9   1   31.90    4.30
   1  -9  -1   37.60    4.60
   1  -9  -1   30.70    4.40
   1  -9  -1   36.90    4.80
  -1  -9   1   28.00    4.20
  -1  -9   1   37.30    4.20
  -1  -9   1   39.10    4.60
  -1   9   0 1278.37   50.69
   1   9   0 1268.37   49.90
   1   9   0 1252.17   50.69
  -1   9   0 1233.08   49.70
   1   9   0 1240.88   49.50
   1   9   0 1250.97   50.39
  -1   9   0 1294.27   50.99
  -1   9   0 1310.47   50.69
   1  -9   0 1306.77   50.79
   1  -9   0 1242.68   50.79
  -1  -9   0 1243.58   49.99
   1  -9   0 1274.57   50.99
  -1  -9   0 1300.47   49.80
  -1  -9   0 1305.17   50.59
   1  -9   0 1288.17   49.80
  -1  -9   0 1221.48   50.39
  -1   9  -1   13.30    2.00
  -1   9  -1    7.20    2.90
   1   9   1   12.50    2.50
   1   9   1    8.50    2.70
   1   9   1    9.00    3.20
  -1   9  -1   11.00    3.30
  -1   9  -1    4.40    3.70
  -1  -9  -1    4.30    2.90
   1  -9   1   13.20    2.10
  -1  -9  -1    8.70    2.90
   1  -9   1    5.50    3.60
  -1  -9  -1   11.30    3.20
  -1  -9  -1    7.50    2.60
   1  -9   1   10.40    2.70
   1  -9   1    7.40    3.30
   1  -9   1    6.50    3.00
   1   9   2  113.09    6.70
   1   9   2  112.29    6.80
   1   9   2  122.69    6.80
  -1   9  -2   95.79    7.10
   1   9   2   99.79    7.80
  -1   9  -2  108.89    7.60
  -1   9  -2   99.79    7.30
   1  -9   2  110.19    6.30
   1  -9   2   95.39    7.60
  -1  -9  -2  110.59    6.80
   1  -9   2  104.49    7.70
  -1  -9  -2  104.79    7.60
   1  -9   2  106.29    5.30
  -1  -9  -2  108.69    6.80
  -1   9  -3   11.70    3.90
   1   9   3   14.10    3.70
   1   9   3    6.90    3.40
   1   9   3    6.00    3.40
  -1   9  -3   12.10    3.90
   1   9   3   11.10    3.70
  -1   9  -3    9.90    3.50
  -1  -9  -3    6.90    3.50
  -1  -9  -3    6.60    3.50
   1  -9   3   15.90    2.90
  -1  -9  -3   10.40    3.60
   1  -9   3   11.30    1.70
   1  -9   3    7.10    3.80
   1  -9   3    5.60    3.80
   1   9   4  234.78   12.80
  -1   9  -4  239.68   12.60
  -1   9  -4  243.18   13.00
   1   9   4  240.68   12.70
   1   9   4  247.98   12.70
   1   9   4  240.78   12.90
  -1   9  -4  240.08   12.50
   1  -9   4  230.28   10.00
  -1  -9  -4  265.57   13.00
  -1  -9  -4  230.98   12.50
  -1  -9  -4  237.68   13.00
   1  -9   4  253.17   15.50
   1  -9   4  243.88   13.00
   1  -9   4  237.98   12.10
  -1   9  -5   10.00    4.20
  -1   9  -5   10.60    4.00
  -1   9  -5   13.30    4.80
   1   9   5   10.10    4.60
   1   9   5    6.90    4.90
   1   9   5    7.70    5.10
   1  -9   5   15.50    5.10
  -1  -9  -5    9.00    4.60
  -1  -9  -5    2.90    5.20
  -1   9  -6  186.18   12.20
   1   9   6  167.28   12.70
   1   9   6  192.38   13.20
  -1   9  -6  167.08   11.90
   1   9   6  161.08   12.80
  -1   9  -6  194.78   12.00
  -1  -9  -6  161.88   13.20
   1  -9   6  178.58   12.50
   1  -9   6  189.08    8.40
  -1  -9  -6  175.48   17.40
  -1   9  -7    5.00    5.70
   1   9   7   14.80    8.80
  -1   9  -7    7.40    7.10
   1   9   7   14.90    8.20
   1   9   7    0.40    7.40
  -1   9  -7    5.80    6.20
   1  -9   7   11.80    6.70
   1  -9   7   -2.70    7.10
  -1  -9  -7    6.20    8.60
  -1  -9  -7    8.50    8.00
  -1  -9  -7   15.70    8.00
   1  -9   7    1.30    2.70
   1  -9   7    3.60    2.90
  -1  10   7   67.99   10.30
   1  10  -7   55.89    8.60
   1  10  -7   78.69   11.70
   1  10  -7   61.49    9.80
  -1  10   7   69.19   10.90
  -1  10   7   88.59   12.80
   1 -10  -7   65.09   11.00
  -1 -10   7   78.79    9.00
  -1 -10   7   44.30    7.50
   1 -10  -7   57.19    9.70
  -1 -10   7   75.09   11.50
   1 -10  -7   74.49   10.60
  -1  10   6   15.40    7.50
  -1  10   6   12.40    6.40
   1  10  -6   10.80    5.20
  -1  10   6   17.10    7.70
   1  10  -6   21.50    5.90
   1  10  -6   19.80    4.90
  -1 -10   6   25.30    6.10
  -1 -10   6   29.00    6.10
   1 -10  -6   20.70    8.00
  -1 -10   6   23.20    6.10
   1 -10  -6   16.10    7.30
   1 -10  -6   10.80    7.10
   1  10  -5  199.18   11.20
  -1  10   5  183.18   12.90
  -1  10   5  205.28   12.90
   1  10  -5  208.58   11.30
  -1  10   5  207.48   13.20
   1  10  -5  199.78   12.30
   1 -10  -5  169.08   12.50
  -1 -10   5  197.78   11.90
  -1 -10   5  192.48   11.40
   1 -10  -5  197.18   13.10
   1  10  -4   62.89    7.00
  -1  10   4   52.89    7.80
  -1  10   4   55.69    7.90
  -1  10   4   60.89    7.70
  -1  10   4   63.39    7.40
   1  10  -4   55.89    5.60
   1  10  -4   47.50    6.30
   1 -10  -4   49.50    7.50
   1 -10  -4   50.29    7.90
  -1 -10   4   49.50    5.90
  -1 -10   4   51.19    7.00
  -1 -10   4   58.19    6.50
   1  10  -3    9.20    3.20
  -1  10   3    3.60    3.40
   1  10  -3   14.30    4.00
   1  10  -3    7.60    2.70
  -1  10   3    1.90    4.20
  -1  10   3    2.20    3.80
  -1  10   3    1.50    4.00
   1 -10  -3    3.30    4.20
   1 -10  -3    8.80    3.80
   1 -10  -3    3.40    4.30
  -1 -10   3   16.50    3.70
  -1 -10   3    7.70    3.60
  -1 -10   3    6.40    2.70
   1  10  -2    7.70    2.90
   1  10  -2    6.90    2.70
  -1  10   2    7.10    3.90
  -1  10   2    7.20    3.80
   1  10  -2    6.60    2.90
  -1  10   2    3.70    2.70
   1 -10  -2   10.80    4.20
  -1 -10   2    4.40    3.00
  -1 -10   2    7.00    3.30
  -1 -10   2    9.20    2.90
   1 -10  -2    2.40    3.60
   1 -10  -2    6.40    3.60
   1  10  -1 1157.48   44.60
   1  10  -1 1091.99   44.90
   1  10  -1 1142.29   44.30
   1  10  -1 1093.29   43.20
  -1  10   1 1111.69   44.20
  -1  10   1 1150.18   45.20
  -1  10   1 1107.39   44.90
  -1  10   1 1074.99   45.10
   1 -10  -1 1128.39   45.20
  -1 -10   1 1073.19   45.00
   1 -10  -1 1125.19   45.10
  -1 -10   1 1168.18   44.80
  -1 -10   1 1120.89   44.40
   1 -10  -1 1038.60   45.00
   1  10   0    7.50    2.60
   1  10   0    7.20    3.20
   1  10   0    1.30    3.00
  -1  10   0    8.70    3.80
  -1  10   0    8.10    4.20
  -1  10   0   13.90    2.40
  -1  10   0   13.50    3.50
   1  10   0    9.80    2.10
   1 -10   0    1.90    3.80
  -1 -10   0    9.00    2.80
  -1 -10   0    9.30    2.60
   1 -10   0   11.10    3.30
  -1 -10   0    5.80    3.60
   1 -10   0    3.60    3.70
  -1 -10   0    0.80    3.00
  -1  10  -1  460.35   19.00
   1  10   1  484.25   21.00
  -1  10  -1  462.75   20.40
  -1  10  -1  472.65   20.50
   1  10   1  459.85   19.50
   1  10   1  465.35   20.00
  -1  10  -1  452.95   21.10
  -1 -10  -1  475.15   20.60
  -1 -10  -1  471.05   19.80
   1 -10   1  474.55   19.80
   1 -10   1  479.25   20.80
   1 -10   1  456.25   20.80
  -1 -10  -1  452.15   19.70
   1 -10   1  461.65   21.00
  -1 -10  -1  460.15   20.00
   1  10   2    1.10    2.70
  -1  10  -2    2.90    2.90
   1  10   2    1.20    3.40
   1  10   2    5.20    3.20
  -1  10  -2    4.70    3.40
   1  10   2   -0.20    2.90
  -1  10  -2    0.80    4.00
  -1 -10  -2    4.00    3.20
   1 -10   2    2.30    2.40
   1 -10   2    4.60    3.90
   1 -10   2    6.50    3.90
  -1 -10  -2    4.80    3.40
   1 -10   2    8.50    1.90
  -1 -10  -2    4.20    3.10
  -1  10  -3   16.90    4.10
   1  10   3   15.40    3.70
  -1  10  -3   18.50    4.70
   1  10   3   16.60    4.20
  -1  10  -3   15.40    4.40
   1  10   3   23.40    4.30
   1 -10   3   12.50    3.30
  -1 -10  -3   14.70    3.80
  -1 -10  -3   12.40    3.90
   1 -10   3   15.30    4.50
   1 -10   3   12.50    4.50
  -1  10  -4    6.80    3.90
   1  10   4    1.10    4.40
  -1  10  -4   -2.10    3.60
   1  10   4   -1.40    3.80
   1  10   4    3.80    4.00
   1  10   4   -0.90    3.70
  -1  10  -4    2.10    3.90
  -1 -10  -4    1.50    4.50
   1 -10   4    9.40    3.50
   1 -10   4    2.30    4.10
  -1 -10  -4    1.90    4.20
   1  10   5  290.27   15.40
  -1  10  -5  290.17   15.00
   1  10   5  278.97   15.00
  -1  10  -5  288.97   15.30
  -1  10  -5  270.87   14.90
   1  10   5  271.87   15.20
   1  10   5  283.37   15.60
   1 -10   5  292.47   14.80
  -1 -10  -5  298.97   15.60
   1 -10   5  281.87   15.70
  -1  10  -6    3.10    5.30
   1  10   6    6.10    6.40
   1  10   6    3.10    6.30
   1  10   6   -7.50    6.40
  -1  10  -6   -5.00    4.80
  -1  10  -6    1.10    5.50
  -1 -10  -6   -2.10    6.80
  -1 -10  -6   -7.90    6.90
  -1 -10  -6   10.00    6.70
   1 -10   6    4.70    5.80
   1 -10   6    1.20    5.70
  -1  10  -7   77.49   11.10
   1  10   7   62.49    9.80
   1  10   7   61.69   10.70
   1  10   7   88.69   12.60
  -1  10  -7   88.49   11.40
  -1  10  -7   88.79   12.10
  -1 -10  -7   56.89   10.80
  -1 -10  -7   54.19   10.70
   1 -10   7   54.29    9.00
   1 -10   7   66.49   12.90
  -1 -10  -7   84.99   13.00
   1  11  -6  129.09   10.50
  -1  11   6  128.69   13.40
  -1  11   6  109.99   13.30
  -1  11   6  133.69   13.40
   1  11  -6  114.09   10.40
   1  11  -6  127.59   11.40
  -1 -11   6  137.09   11.50
   1 -11  -6  130.09   13.10
  -1 -11   6  125.09   11.20
   1 -11  -6  122.49   12.70
  -1 -11   6  136.99   10.10
   1  11  -5    2.40    4.60
  -1  11   5    2.00    6.10
  -1  11   5   -0.70    5.10
  -1  11   5    6.20    6.80
   1  11  -5   -1.50    4.10
   1  11  -5    3.90    3.90
   1 -11  -5   -4.30    7.30
  -1 -11   5    5.90    4.50
   1 -11  -5   -8.30    5.90
   1 -11  -5   -4.70    5.70
  -1 -11   5    2.50    3.80
  -1 -11   5   -1.00    4.30
   1  11  -4   61.39    6.10
  -1  11   4   63.79    8.00
  -1  11   4   74.89    8.70
  -1  11   4   66.09    8.70
   1  11  -4   58.09    7.80
   1  11  -4   58.29    7.00
  -1 -11   4   63.29    6.60
  -1 -11   4   44.40    7.30
  -1 -11   4   59.49    7.40
   1 -11  -4   64.29    8.70
   1  11  -3   26.20    3.90
  -1  11   3   25.50    5.60
  -1  11   3   25.60    6.00
   1  11  -3   25.30    4.50
   1  11  -3   23.70    4.30
  -1  11   3   29.10    4.80
  -1  11   3   25.90    5.60
   1 -11  -3   24.10    5.30
  -1 -11   3   26.20    4.10
  -1 -11   3   39.50    5.80
  -1 -11   3   24.20    4.40
  -1  11   2  163.88   10.60
   1  11  -2  169.68    8.80
  -1  11   2  155.28    8.90
  -1  11   2  151.88   10.00
   1  11  -2  159.08    9.80
   1  11  -2  156.68    8.50
   1 -11  -2  151.18   10.00
   1 -11  -2  150.88   10.10
   1 -11  -2  156.38   10.00
  -1 -11   2  145.19    8.80
  -1 -11   2  134.99    9.10
  -1 -11   2  160.18    9.00
   1  11  -1    1.90    1.30
  -1  11   1    1.90    2.30
   1  11  -1    2.80    3.30
   1  11  -1   -0.80    2.50
  -1  11   1   -6.50    3.70
  -1  11   1    3.30    3.80
   1  11  -1   -1.00    2.90
  -1  11   1    1.50    3.70
   1 -11  -1   -4.80    3.60
   1 -11  -1    4.20    3.70
   1 -11  -1   -6.70    3.70
  -1 -11   1   -2.40    3.40
  -1 -11   1   -0.30    3.00
  -1 -11   1    0.00    3.20
   1  11   0  444.76   19.30
  -1  11   0  470.65   20.80
   1  11   0  441.86   20.50
  -1  11   0  434.96   18.90
   1  11   0  440.86   18.60
   1  11   0  473.25   20.00
  -1  11   0  460.05   20.20
  -1  11   0  445.46   20.40
  -1 -11   0  455.75   18.90
  -1 -11   0  456.25   20.40
  -1 -11   0  446.46   19.40
   1 -11   0  457.05   20.40
  -1 -11   0  469.65   20.10
   1 -11   0  439.16   20.60
   1 -11   0  470.75   20.70
  -1  11  -1    0.60    3.40
  -1  11  -1    3.00    1.90
   1  11   1    0.40    3.10
  -1  11  -1   -3.70    3.10
   1  11   1   -0.80    2.20
   1  11   1   -2.60    3.50
  -1  11  -1   -5.40    4.10
  -1 -11  -1   -5.00    3.10
  -1 -11  -1   -4.50    3.00
   1 -11   1    2.50    2.60
  -1 -11  -1    1.20    2.90
  -1 -11  -1   -5.10    3.00
   1 -11   1   -2.10    4.00
   1 -11   1   -1.90    4.20
   1 -11   1   -3.80    3.70
   1  11   2   52.49    5.60
   1  11   2   37.20    5.50
  -1  11  -2   46.20    5.60
   1  11   2   60.59    5.90
  -1  11  -2   49.00    6.60
  -1  11  -2   61.29    7.10
   1  11   2   50.49    6.00
  -1 -11  -2   52.29    5.80
  -1 -11  -2   42.80    5.40
  -1 -11  -2   60.69    6.00
   1 -11   2   36.90    5.00
   1 -11   2   41.50    6.20
   1 -11   2   43.10    6.60
  -1 -11  -2   60.79    5.70
   1  11   3    6.30    4.20
  -1  11  -3    9.80    4.20
   1  11   3    3.40    3.80
   1  11   3    2.90    3.70
  -1  11  -3   -0.60    3.50
   1  11   3   -0.30    3.60
  -1  11  -3    8.50    4.30
   1 -11   3    2.80    4.60
  -1 -11  -3    2.00    4.00
   1 -11   3    3.60    3.20
  -1 -11  -3    0.20    4.30
  -1 -11  -3    4.00    4.30
   1  11   4   67.09    8.10
   1  11   4   60.79    8.40
  -1  11  -4   47.20    7.70
  -1  11  -4   53.79    7.70
   1  11   4   67.99    8.10
  -1  11  -4   66.59    7.30
   1 -11   4   61.69    6.80
   1 -11   4   58.09    8.50
   1  11   5   -4.70    5.00
   1  11   5   -1.00    6.10
   1  11   5   -4.80    5.00
   1  11   5   -1.80    5.20
  -1  11  -5    4.70    4.80
  -1  11  -5    3.10    4.70
  -1  11  -5   -1.90    4.70
  -1 -11  -5    3.20    5.70
   1 -11   5   12.00    5.90
  -1 -11  -5    3.70    6.20
   1 -11   5    8.10    4.60
  -1  11  -6   70.89   10.40
   1  11   6   77.89   11.30
  -1  11  -6   84.69   10.70
   1  11   6   79.89   11.90
  -1  11  -6   87.09   10.20
   1  11   6   77.79   11.50
  -1 -11  -6   92.09   12.10
  -1 -11  -6   67.99    9.30
   1 -11   6   81.39   11.10
   1 -11   6  100.49    8.70
  -1 -11  -6   59.49    9.50
   1 -11   6   82.79   11.50
   1  12  -6   -0.10    5.80
  -1  12   6    5.30    8.60
   1  12  -6    3.50    5.70
   1  12  -6   -0.70    5.70
  -1  12   6    9.00    7.50
  -1  12   6    6.80    8.80
  -1 -12   6   -0.50    4.50
   1 -12  -6    3.60    7.60
   1 -12  -6  -13.70    7.40
   1 -12  -6   24.50    8.70
  -1 -12   6   -0.10    6.30
  -1 -12   6   -0.70    6.60
  -1  12   5  111.79   12.60
   1  12  -5  118.89   10.30
   1  12  -5  134.59    9.90
  -1  12   5  140.09   12.10
  -1  12   5  139.39   12.60
   1  12  -5  132.29   11.30
  -1  12   5  137.49   12.50
   1 -12  -5  129.89   13.50
  -1 -12   5  129.49   10.40
   1 -12  -5  143.39   12.50
  -1 -12   5  131.39   10.40
   1 -12  -5  138.99   13.10
  -1 -12   5  149.59   11.10
  -1  12   4    9.70    6.20
  -1  12   4   -4.20    5.90
   1  12  -4    2.30    4.40
   1  12  -4   -0.30    3.90
   1  12  -4   -2.10    3.40
  -1  12   4   -2.20    4.90
  -1  12   4    6.80    5.00
   1 -12  -4   -2.20    5.50
  -1 -12   4   -2.20    4.20
  -1 -12   4    1.30    4.40
   1  12  -3   -2.70    3.00
  -1  12   3   -1.20    4.40
  -1  12   3   -8.70    4.50
  -1  12   3   -2.60    3.60
   1  12  -3   -2.00    3.50
  -1  12   3    7.40    5.40
   1  12  -3    0.30    3.70
  -1 -12   3   -2.70    3.30
  -1 -12   3   -7.00    3.70
   1 -12  -3    0.60    4.80
  -1 -12   3   -2.00    4.20
  -1  12   2    1.70    4.30
  -1  12   2   -2.90    3.90
  -1  12   2   -0.60    3.10
   1  12  -2   -2.10    2.80
   1  12  -2   -4.60    2.80
   1  12  -2    3.70    3.50
  -1 -12   2    3.50    3.90
  -1 -12   2   -7.40    3.50
   1 -12  -2   -5.20    4.40
  -1 -12   2    1.40    3.40
   1  12  -1  283.47   13.40
  -1  12   1  262.57   12.80
   1  12  -1  249.08   14.00
  -1  12   1  272.07   14.40
   1  12  -1  271.57   11.40
   1  12  -1  309.07   13.10
  -1  12   1  261.67   14.30
  -1  12   1  275.47   14.00
  -1 -12   1  272.87   13.80
   1 -12  -1  247.38   14.30
  -1 -12   1  282.07   13.80
  -1 -12   1  279.67   13.30
   1 -12  -1  266.57   14.10
   1  12   0   -4.60    3.50
   1  12   0   -3.60    2.80
  -1  12   0   -5.50    4.10
  -1  12   0   -2.90    3.80
  -1  12   0   -3.30    3.80
   1  12   0    2.00    2.10
  -1  12   0    1.60    2.30
   1  12   0   -6.40    3.40
  -1 -12   0   -4.10    2.60
  -1 -12   0   -1.00    3.10
  -1 -12   0   -2.60    3.80
   1 -12   0   -3.50    4.20
   1 -12   0    1.60    6.50
   1 -12   0   -3.50    3.90
  -1 -12   0   -4.90    4.00
   1  12   1  436.66   20.00
  -1  12  -1  407.96   19.40
  -1  12  -1  421.46   20.10
  -1  12  -1  411.16   17.50
  -1  12  -1  418.16   19.30
   1  12   1  397.56   19.00
   1  12   1  399.76   17.90
   1 -12   1  442.56   19.70
   1 -12   1  416.06   18.40
  -1 -12  -1  444.06   18.70
   1 -12   1  456.35   21.90
   1 -12   1  402.46   20.10
  -1 -12  -1  436.16   19.70
  -1 -12  -1  404.36   18.00
  -1 -12  -1  401.86   19.00
  -1  12  -2   -0.10    3.70
  -1  12  -2    3.00    4.90
   1  12   2    4.40    4.20
   1  12   2    1.40    3.70
   1  12   2    3.60    3.20
  -1  12  -2    2.60    4.00
   1  12   2    2.70    3.80
  -1 -12  -2    5.20    3.60
   1 -12   2    4.30    3.00
   1 -12   2    8.60    4.50
  -1 -12  -2   -0.50    4.30
  -1 -12  -2    4.10    3.50
  -1 -12  -2    7.70    4.60
  -1  12  -3   14.60    5.40
   1  12   3   12.30    4.10
   1  12   3   22.40    5.30
  -1  12  -3   13.20    4.70
  -1  12  -3   20.30    5.10
   1 -12   3   18.30    5.60
   1 -12   3   20.10    4.20
  -1  12  -4   -2.00    4.80
   1  12   4    1.70    4.90
   1  12   4   -7.90    4.30
   1  12   4   -2.30    4.90
  -1  12  -4    1.70    4.30
  -1  12  -4   -2.90    5.00
   1  12   4   -3.40    5.10
   1 -12   4   -3.50    3.90
  -1 -12  -4   -7.40    4.90
   1 -12   4   -7.00    4.80
  -1 -12  -4   -2.60    5.50
   1  12   5  121.59   11.90
  -1  12  -5   98.09   10.60
   1  12   5   99.19   11.40
   1  12   5  122.99   10.70
  -1  12  -5  102.89   10.70
   1  12   5   99.69   11.50
  -1  12  -5  113.49   11.00
  -1 -12  -5  117.69   12.50
   1 -12   5  140.09    9.60
  -1 -12  -5   98.59   11.10
   1 -12   5  116.69   11.60
  -1 -12  -5  120.29   11.30
   1 -12   5  141.29   11.80
  -1  12  -6   -1.00    6.70
  -1  12  -6   13.60    6.50
  -1  12  -6   11.60    6.60
   1  12   6    4.60    7.50
   1  12   6   -3.60    7.20
   1  12   6    1.00    7.40
  -1 -12  -6    6.00    7.60
   1 -12   6   -1.50    4.60
  -1 -12  -6  -12.20    8.10
  -1 -12  -6   12.40    8.40
   1 -12   6    6.30    7.10
   1 -12   6   -0.70    6.10
   1  13  -5   -2.50    4.60
   1  13  -5    1.00    5.30
   1  13  -5    6.90    5.20
  -1  13   5    2.10    7.30
  -1  13   5    0.20    7.30
  -1  13   5   -3.10    7.50
  -1  13   5    3.30    6.70
  -1 -13   5    3.30    4.70
   1 -13  -5   11.20    7.30
  -1 -13   5   -5.40    5.80
   1 -13  -5   17.10    8.60
   1 -13  -5   -5.50    7.70
  -1 -13   5    4.80    5.60
  -1  13   4   75.29   10.30
  -1  13   4   89.39   11.10
   1  13  -4   51.89    6.60
   1  13  -4   58.49    7.10
   1  13  -4   70.29    8.20
  -1  13   4   82.59   11.00
  -1  13   4   64.49    9.20
   1 -13  -4   46.70    7.60
   1 -13  -4   73.19   10.50
  -1 -13   4   65.39    7.90
  -1 -13   4   59.09    8.30
  -1 -13   4   59.39    8.90
   1 -13  -4   68.69   10.30
  -1  13   3    4.60    5.40
   1  13  -3    5.70    3.90
  -1  13   3   -0.20    4.00
  -1  13   3   10.80    5.90
   1  13  -3    4.60    4.70
   1  13  -3    1.90    3.60
  -1  13   3    0.50    5.00
   1 -13  -3   -7.60    5.60
  -1 -13   3    0.30    4.10
  -1 -13   3   -5.00    3.60
   1  13  -2  148.39    9.00
  -1  13   2  130.59    9.10
  -1  13   2  139.89   11.00
  -1  13   2  131.99   11.20
   1  13  -2  148.29   10.40
   1  13  -2  163.78    9.30
  -1 -13   2  136.29   10.40
  -1 -13   2  167.18    9.80
   1 -13  -2  137.19    7.90
   1 -13  -2  137.39   10.90
  -1 -13   2  131.09    9.60
   1  13  -1   -2.20    3.80
   1  13  -1    1.40    3.60
  -1  13   1   -3.00    3.90
   1  13  -1   10.80    3.50
  -1  13   1    8.70    3.00
   1  13  -1    5.50    1.80
  -1  13   1    0.00    3.90
  -1  13   1    8.50    5.50
  -1 -13   1    3.80    3.90
  -1 -13   1    2.60    4.20
   1 -13  -1    2.40    4.90
  -1 -13   1    1.70    4.20
  -1  13   0  624.64   26.90
  -1  13   0  618.74   26.20
   1  13   0  589.44   25.30
   1  13   0  610.34   26.10
  -1  13   0  577.34   26.50
  -1  13   0  581.44   24.70
   1  13   0  579.94   26.60
   1  13   0  583.64   24.40
   1 -13   0  617.44   26.60
  -1 -13   0  629.04   26.40
   1 -13   0  595.24   26.70
  -1 -13   0  580.94   25.40
   1  13   1    4.40    2.80
   1  13   1    2.10    4.20
  -1  13  -1    1.00    5.20
   1  13   1    2.10    4.50
  -1  13  -1   11.60    4.50
  -1  13  -1    7.10    2.60
  -1  13  -1    5.20    4.30
  -1 -13  -1    3.90    3.50
  -1 -13  -1    2.70    4.70
  -1 -13  -1    4.20    4.00
   1 -13   1   12.60    5.60
   1 -13   1    1.30    4.80
  -1  13  -2   64.19    8.40
  -1  13  -2   50.59    7.30
   1  13   2   63.49    6.60
  -1  13  -2   64.09    7.50
   1 -13   2   58.89    6.60
   1 -13   2   64.69    7.80
   1  13   3   26.50    5.50
   1  13   3   29.80    6.30
  -1  13  -3   14.50    4.90
   1  13   3   22.10    5.20
  -1  13  -3   26.30    6.10
   1  13   3   24.90    5.60
  -1  13  -3   35.20    6.70
  -1 -13  -3   26.70    5.50
  -1 -13  -3   23.00    6.30
   1 -13   3   29.60    5.10
   1 -13   3   22.50    7.00
  -1 -13  -3   24.20    6.10
   1 -13   3   31.90    5.90
  -1 -13  -3   24.50    5.20
   1  13   4  119.89   10.90
  -1  13  -4  114.39   10.70
   1  13   4  124.69   12.40
   1  13   4  133.59   11.30
   1  13   4  140.89   10.90
  -1  13  -4  129.09   10.80
  -1  13  -4  112.09   11.00
   1 -13   4  121.79    9.60
  -1 -13  -4  155.18   12.70
  -1 -13  -4  162.58   12.00
  -1 -13  -4  142.29   11.00
   1 -13   4  125.89   11.60
   1 -13   4  110.99   11.70
   1  13   5    5.90    6.40
  -1  13  -5    5.90    5.80
  -1  13  -5   -5.20    6.20
   1  13   5    3.20    6.30
   1  13   5    2.60    7.30
  -1  13  -5    0.80    5.90
   1  13   5   -1.90    7.00
   1 -13   5    2.70    4.30
   1 -13   5    4.30    6.20
  -1 -13  -5    4.60    7.20
  -1 -13  -5   -6.60    7.20
  -1 -13  -5    5.60    7.10
   1 -13   5    4.20    7.20
   1  14  -5   71.09   10.00
  -1  14   5   78.79   11.70
   1  14  -5   67.89    9.20
  -1  14   5   70.59    9.50
  -1  14   5   69.69   10.00
   1  14  -5   54.09    8.00
  -1 -14   5   49.00    8.40
  -1 -14   5   68.89    8.60
   1 -14  -5   89.89   11.60
  -1 -14   5   62.39    8.50
  -1  14   4   45.80    8.80
  -1  14   4   45.30    7.10
   1  14  -4   42.70    7.40
  -1  14   4   43.00    8.50
  -1  14   4   51.99    9.40
   1  14  -4   43.00    6.50
   1  14  -4   51.29    6.40
   1 -14  -4   46.40    9.10
  -1 -14   4   66.29    9.30
  -1 -14   4   40.60    6.80
   1 -14  -4   39.40    8.00
  -1 -14   4   56.19    7.20
   1 -14  -4   32.90    9.30
   1  14  -3    7.00    4.20
  -1  14   3    3.30    5.50
  -1  14   3   -2.40    5.90
  -1  14   3   -5.50    4.40
  -1  14   3    2.80    6.70
   1  14  -3    3.10    4.10
   1  14  -3    1.00    4.70
   1 -14  -3   -4.10    6.00
  -1 -14   3    3.60    4.70
   1 -14  -3   11.90    7.40
  -1 -14   3    3.10    5.20
  -1 -14   3    9.00    5.00
   1 -14  -3   -1.90    6.50
  -1  14   2   49.20    6.90
  -1  14   2   68.89    9.80
  -1  14   2   50.79    7.00
   1  14  -2   55.19    7.00
   1  14  -2   45.30    6.90
   1  14  -2   48.40    6.30
  -1 -14   2   40.80    6.10
  -1 -14   2   60.49    7.70
   1 -14  -2   52.49    5.50
   1 -14  -2   64.99    8.70
  -1  14   1  315.77   16.40
   1  14  -1  302.27   16.90
   1  14  -1  338.37   16.00
   1  14  -1  348.07   15.50
  -1  14   1  330.57   17.40
  -1  14   1  299.17   15.00
   1  14  -1  304.07   13.30
  -1  14   1  317.07   16.90
   1 -14  -1  329.27   17.00
  -1 -14   1  329.97   15.70
  -1  14   0   13.00    3.40
   1  14   0   11.50    5.00
   1  14   0   32.40    5.80
  -1  14   0    9.80    5.00
  -1  14   0   18.20    5.70
   1  14   0   18.90    3.10
  -1  14   0   17.00    5.50
   1 -14   0   14.50    5.60
   1 -14   0    8.60    5.90
  -1 -14   0   19.20    6.50
  -1  14  -1  184.08   12.30
   1  14   1  167.28    9.80
  -1  14  -1  193.38   12.90
   1  14   1  174.08   11.50
  -1  14  -1  172.38   11.50
   1  14   1  194.58   12.60
  -1  14  -1  171.78    9.10
   1 -14   1  198.38   12.30
  -1 -14  -1  182.38    9.50
  -1 -14  -1  192.98   12.90
   1 -14   1  174.58   13.30
   1 -14   1  175.68   13.90
  -1 -14  -1  190.38   11.10
   1  14   2  116.09   10.10
  -1  14  -2  119.39    9.30
   1  14   2  124.89    9.20
  -1  14  -2  100.09   10.90
   1  14   2  103.39    8.40
  -1  14  -2  111.39   10.40
   1  14   2  130.79   11.20
  -1 -14  -2  104.89   11.30
  -1 -14  -2  107.79   10.60
  -1 -14  -2  130.49    9.30
  -1 -14  -2  106.79    8.10
   1 -14   2  109.69   10.60
   1 -14   2   93.59   11.60
   1 -14   2  107.89    8.50
   1  14   3   28.30    6.30
   1  14   3   22.10    5.60
  -1  14  -3   11.50    5.70
   1  14   3   18.30    5.60
   1 -14   3    5.50    4.70
   1 -14   3    2.60    7.00
  -1 -14  -3   23.10    6.60
   1  14   4   47.20    7.50
   1  14   4   42.50    8.50
  -1  14  -4   29.30    6.50
   1  14   4   31.10    7.40
  -1  14  -4   44.80    7.60
  -1  14  -4   43.60    8.00
   1  14   4   38.20    7.10
   1 -14   4   52.49    6.80
  -1 -14  -4   41.60    7.70
   1 -14   4   30.10    7.30
  -1 -14  -4   44.90    8.50
   1 -14   4   40.90    8.30
  -1 -14  -4   34.30    8.40
   1  14   5  115.49   13.30
  -1  14  -5  107.79   12.90
  -1  14  -5  108.19   12.10
   1  14   5  104.39   12.50
  -1 -14  -5  132.09   13.50
   1 -14   5  103.49    9.40
  -1 -14  -5  103.99   13.90
   1 -14   5   86.79   13.60
   1  15  -4    9.70    6.00
  -1  15   4   21.10    8.30
  -1  15   4   14.90    6.90
   1  15  -4   16.10    5.40
   1  15  -4   21.60    6.10
  -1  15   4   29.00    9.30
  -1 -15   4   17.50    6.00
  -1 -15   4   21.80    6.70
  -1 -15   4   18.90    6.70
   1 -15  -4   25.20    8.40
  -1  15   3   38.40    6.40
   1  15  -3   31.90    6.00
  -1  15   3   52.49    8.70
  -1  15   3   24.60    7.70
   1  15  -3   38.20    7.40
   1  15  -3   37.60    5.80
  -1  15   3   19.90    7.10
   1 -15  -3   34.40    9.00
   1 -15  -3   47.30    8.70
   1 -15  -3   44.80    5.90
  -1 -15   3   31.00    6.30
   1 -15  -3   21.70    7.40
  -1 -15   3   34.60    7.10
  -1 -15   3   35.90    6.90
  -1  15   2   88.99   11.30
   1  15  -2   86.79   10.40
  -1  15   2   84.19   10.90
   1  15  -2   73.19    8.10
  -1  15   2   62.79    8.00
   1  15  -2   98.89    8.30
   1 -15  -2   79.29   11.60
  -1 -15   2   99.89    9.10
   1 -15  -2   60.99    9.20
  -1 -15   2   73.29    8.60
   1 -15  -2   65.39    9.00
  -1 -15   2   81.39    9.80
  -1  15   1   13.00    7.00
  -1  15   1   21.10    4.30
  -1  15   1   22.40    6.10
   1  15  -1   26.90    3.50
  -1  15   1   18.30    5.50
   1  15  -1   21.30    5.40
   1  15  -1   33.10    5.90
   1  15  -1   26.40    5.10
   1 -15  -1   21.40    6.10
  -1 -15   1   27.80    6.40
   1 -15  -1   35.40    7.10
  -1 -15   1   30.20    5.50
   1 -15  -1    6.00    7.00
   1  15   0  244.48   11.80
   1  15   0  246.18   13.20
  -1  15   0  244.58   12.30
   1  15   0  252.77   15.20
  -1  15   0  237.28   15.10
  -1  15   0  257.87   14.50
   1  15   0  250.37   14.30
  -1  15   0  271.47   15.90
   1 -15   0  240.78   16.10
  -1 -15   0  242.78   13.70
  -1 -15   0  256.47   15.00
   1 -15   0  262.97   15.10
   1 -15   0  279.47   16.10
  -1 -15   0  237.38   16.50
  -1  15  -1   29.40    6.30
  -1  15  -1   25.00    3.70
   1  15   1   20.30    5.80
  -1  15  -1   20.80    6.90
  -1  15  -1   21.90    5.60
   1  15   1   20.70    4.10
   1  15   1   16.20    5.70
  -1 -15  -1   21.20    6.60
   1 -15   1   19.90    7.00
   1 -15   1   13.20    6.90
  -1 -15  -1   18.30    6.30
  -1 -15  -1   31.80    4.60
  -1 -15  -1   33.80    6.10
  -1  15  -2   24.40    6.30
  -1  15  -2   30.20    6.60
   1  15   2   24.80    5.00
   1  15   2   30.80    6.10
  -1  15  -2   35.90    7.70
   1  15   2   32.50    7.00
  -1 -15  -2   33.90    7.30
   1 -15   2   21.20    7.80
  -1 -15  -2   26.50    6.80
   1 -15   2   16.80    5.30
   1 -15   2   38.90    7.80
   1  15   3   47.30    7.60
  -1  15  -3   48.90    7.90
   1  15   3   43.00    7.40
  -1  15  -3   40.70    6.80
   1  15   3   45.90    6.80
   1  15   3   41.30    7.90
  -1  15  -3   28.70    7.90
   1 -15   3   56.69   10.20
  -1 -15  -3   44.90    6.60
  -1 -15  -3   33.90    8.50
  -1 -15  -3   60.99    9.20
  -1 -15  -3   51.39    8.00
   1 -15   3   46.80    8.90
   1 -15   3   32.30    6.00
   1  15   4   77.19   11.20
   1  15   4   38.40    8.90
  -1  15  -4   70.09   11.10
  -1  15  -4   62.79    8.60
  -1  15  -4   50.29    8.60
   1  15   4   55.89    9.50
   1  15   4   40.40    7.50
  -1 -15  -4   65.89   11.40
   1 -15   4   67.29   13.60
  -1 -15  -4   47.50    8.00
   1 -15   4   56.49    7.80
  -1 -15  -4   54.99    8.90
   1 -15   4   65.69    9.60
   1  16  -2   78.79   11.40
  -1  16   2   75.99   12.20
  -1  16   2   89.29    9.30
   1  16  -2   78.39    9.00
  -1  16   2   98.09   12.30
   1  16  -2   89.29    9.70
   1 -16  -2   95.59   12.60
   1 -16  -2   91.89   11.20
  -1 -16   2   93.99   11.20
  -1 -16   2   71.59    9.90
  -1 -16   2   70.99    8.90
   1 -16  -2  100.49   12.50
  -1  16   1  105.29    8.90
   1  16  -1  105.19   11.80
  -1  16   1   96.99   11.70
   1  16  -1  119.19   10.50
  -1  16   1  106.69   12.70
  -1  16   1   96.09   10.80
   1  16  -1  116.79    9.70
   1 -16  -1  105.19   12.40
   1 -16  -1  109.79   12.90
  -1 -16   1  100.19   11.60
   1 -16  -1  109.49   13.00
  -1 -16   1  116.39   10.20
   1  16   0    8.90    6.00
  -1  16   0    3.00    3.40
  -1  16   0    0.00    6.10
  -1  16   0    6.80    7.40
  -1  16   0    4.60    6.00
   1  16   0    4.20    6.00
   1  16   0    1.20    3.20
   1 -16   0    6.60    7.40
   1 -16   0    2.20    7.70
  -1 -16   0   13.90    7.60
  -1 -16   0   22.80    6.00
   1 -16   0    3.30    6.60
  -1 -16   0    6.30    6.70
  -1  16  -1   51.39    8.80
  -1  16  -1   59.09    6.20
   1  16   1   48.50    5.90
   1  16   1   72.59    8.80
  -1  16  -1   44.60    7.50
  -1  16  -1   51.99    7.40
   1  16   1   64.19   10.20
  -1 -16  -1   59.49    8.00
  -1 -16  -1   73.99   11.50
   1 -16   1   60.69    9.20
  -1 -16  -1   37.10    7.80
   1 -16   1   59.79   10.00
   1  16   2   85.69    9.40
   1  16   2   70.29   11.30
  -1  16  -2   75.79   10.50
  -1  16  -2   73.59    9.20
  -1  16  -2   65.39    9.40
   1  16   2   58.79    8.60
   1  16   2   62.49    8.40
   1 -16   2   75.69   10.70
  -1 -16  -2   56.69    8.60
  -1 -16  -2   74.09    7.30
  -1 -16  -2   86.59   10.50
  -1 -16  -2   69.39    9.90
   1 -16   2   91.59   11.50
   2   0  -8   28.90    7.00
  -2   0   8   15.60    7.80
  -2   0   8   19.30    7.40
   2   0  -8   30.90    7.50
  -2   0   7    5.30    5.60
   2   0  -7    8.20    5.50
  -2   0   7    1.90    4.10
   2   0  -7    9.70    5.10
   2   0  -6  420.06   19.00
  -2   0   6  434.86   18.40
  -2   0   6  351.26   19.10
  -2   0   6  432.56   19.00
   2   0  -6  400.06   18.90
  -2   0   5    5.70    3.40
  -2   0   5    3.80    2.50
  -2   0   4  138.69    7.60
   2   0  -4  138.79    7.60
   2   0  -4  127.49    7.10
  -2   0   4  144.29    7.80
   2   0  -4  147.59    7.70
  -2   0   4  142.59    7.30
  -2   0   3   -2.10    1.90
   2   0  -3   -3.10    1.80
   2   0  -3   -3.50    1.60
  -2   0   3   -1.40    1.80
  -2   0   3    1.40    1.50
   2   0  -3   -1.00    1.50
   2   0  -2 1376.56   53.29
  -2   0   2 1370.16   53.39
  -2   0   2 1374.06   53.29
   2   0  -2 1357.66   53.39
  -2   0   2 1385.46   53.29
  -2   0   1   -0.10    1.10
   2   0  -1   -1.20    1.10
   2   0  -1    0.50    0.90
  -2   0   1   -0.70    1.10
   2   0  -1   -0.30    1.00
  -2   0   1   -0.80    0.90
  -2   0   1   -1.10    1.00
  -2   0   0 1263.27   48.80
   2   0   0 1110.39   48.80
  -2   0   0 1290.57   49.10
   2   0   0 1290.47   48.70
   2   0   0 1247.78   49.10
  -2   0   0 1137.69   48.80
   2   0   0 1228.58   48.80
   2   0   0 1375.46   49.10
  -2   0   0 1388.76   49.10
  -2   0  -1    0.90    1.20
  -2   0  -1   -1.00    1.10
   2   0   1   -0.30    1.10
   2   0   1    0.40    1.00
   2   0   2   39.60    3.20
   2   0   2   42.00    3.20
  -2   0  -2   40.60    3.20
  -2   0  -2   40.70    3.20
   2   0   3   -1.10    2.20
   2   0   3   -1.70    2.00
  -2   0  -3   -3.80    1.80
  -2   0  -3   -0.30    2.00
  -2   0  -4 2086.19   84.09
   2   0   4 2229.08   84.19
   2   0   4 2131.29   84.09
  -2   0  -4 2158.78   84.19
  -2   0  -5    1.60    3.50
  -2   0  -5    3.10    3.60
   2   0   5    5.60    3.70
   2   0   5   -0.90    3.60
   2   0   6  822.32   34.90
  -2   0  -6  817.62   34.60
   2   0   6  758.02   34.50
  -2   0  -6  880.81   35.00
  -2   0  -7    3.10    6.40
   2   0   7   12.20    6.50
   2   0   7   -7.30    5.80
  -2   0  -7    6.00    6.60
  -2   0  -8    3.60    8.40
   2   0   8    9.90    8.00
  -2   0  -8   -5.80    8.00
   2   0   8    8.30    8.60
  -2   1   8   -4.20    7.60
   2   1  -8   16.00    7.50
  -2   1   8    4.00    7.70
   2   1  -8   -0.10    6.50
  -2   1   8    1.00   10.40
   2  -1  -8    7.50    6.70
   2  -1  -8    7.50    8.00
   2  -1  -8   -6.80    6.40
  -2  -1   8   10.70    6.90
  -2  -1   8    5.70    7.70
  -2  -1   8   -4.10    5.00
   2   1  -7  124.39   10.10
  -2   1   7  125.89    9.70
   2   1  -7  117.39    9.70
  -2   1   7  111.09   10.50
   2  -1  -7  105.59   10.10
  -2  -1   7  130.09   10.40
  -2  -1   7  114.69    8.90
   2  -1  -7  105.19   10.10
   2   1  -6    5.90    4.10
  -2   1   6   25.80    5.30
  -2   1   6    6.10    3.80
  -2  -1   6    8.70    3.40
  -2  -1   6   14.10    4.70
  -2  -1   6   18.70    4.70
   2  -1  -6   14.10    4.60
  -2   1   5  441.46   19.60
  -2   1   5  442.96   19.70
   2   1  -5  448.16   19.30
  -2   1   5  445.16   19.10
   2   1  -5  422.26   19.30
  -2  -1   5  449.26   18.90
  -2  -1   5  442.56   19.40
   2  -1  -5  434.66   19.60
  -2  -1   5  441.06   19.40
   2  -1  -5  467.25   19.70
  -2   1   4  127.99    7.10
   2   1  -4  114.39    6.80
  -2   1   4  120.99    7.10
  -2   1   4  117.79    6.80
   2   1  -4  115.79    6.60
  -2  -1   4  117.29    6.40
   2  -1  -4  115.69    6.90
   2  -1  -4  110.79    6.50
  -2  -1   4  119.69    7.00
   2  -1  -4  121.19    7.10
  -2  -1   4  124.69    6.90
   2   1  -3    1.70    1.40
  -2   1   3   -1.50    2.10
  -2   1   3    0.40    2.00
   2   1  -3   -0.40    1.50
   2   1  -3    0.10    1.70
  -2   1   3   -1.10    1.70
  -2  -1   3   -3.10    1.90
  -2  -1   3    0.10    1.70
  -2  -1   3    1.00    1.50
   2  -1  -3   -0.80    1.60
   2  -1  -3   -2.70    1.90
  -2   1   2  142.89    6.50
   2   1  -2  138.39    6.20
  -2   1   2  134.19    6.50
  -2   1   2  133.59    6.40
   2   1  -2  133.79    6.20
  -2  -1   2  130.49    6.10
   2  -1  -2  131.59    6.50
   2  -1  -2  131.09    6.40
   2  -1  -2  135.59    6.30
  -2  -1   2  135.99    6.20
  -2  -1   2  140.59    6.20
   2   1  -1 1628.24   66.99
  -2   1   1 1715.63   67.29
   2   1  -1 1706.33   66.99
  -2   1   1 1740.03   67.29
  -2   1   1 1837.62   67.59
   2   1  -1 1737.93   67.39
  -2  -1   1 1854.11   67.39
  -2  -1   1 1663.63   66.99
  -2  -1   1 1841.12   67.39
   2  -1  -1 1693.33   67.29
   2  -1  -1 1800.12   67.59
   2  -1  -1 1696.03   67.29
   2   1   0   33.50    2.70
   2   1   0   29.30    2.10
  -2   1   0   33.80    2.80
  -2   1   0   34.90    2.80
  -2   1   0   30.80    2.70
  -2   1   0   33.30    2.90
   2   1   0   27.30    3.00
   2   1   0   31.00    1.80
   2  -1   0   30.60    2.20
   2  -1   0   33.50    2.90
   2  -1   0   31.30    2.90
   2  -1   0   31.20    1.90
  -2  -1   0   29.30    3.20
  -2  -1   0   31.20    1.90
   2  -1   0   29.50    2.60
  -2  -1   0   35.10    2.80
   2  -1   0   32.80    3.10
   2   1   1 1275.87   50.69
  -2   1  -1 1262.17   50.39
  -2   1  -1 1357.86   51.09
  -2   1  -1 1343.27   50.99
   2   1   1 1321.57   50.79
  -2  -1  -1 1258.07   50.39
  -2  -1  -1 1337.67   50.79
  -2  -1  -1 1281.77   50.69
   2  -1   1 1354.56   50.99
   2  -1   1 1333.07   50.99
  -2   1  -2   68.49    4.20
  -2   1  -2   65.69    4.20
   2   1   2   63.79    4.10
   2   1   2   65.19    4.00
   2  -1   2   70.49    4.30
  -2  -1  -2   68.89    3.50
   2  -1   2   68.29    4.20
  -2  -1  -2   66.09    4.00
  -2  -1  -2   70.29    4.10
  -2   1  -3   23.90    3.10
   2   1   3   24.10    3.40
  -2   1  -3   22.70    3.50
   2   1   3   30.20    3.60
   2  -1   3   29.60    3.60
  -2  -1  -3   27.10    3.50
   2  -1   3   21.20    3.40
  -2  -1  -3   30.00    3.60
   2   1   4  229.18   11.10
  -2   1  -4  220.08   11.00
   2   1   4  217.68   11.00
  -2   1  -4  230.18   11.00
  -2  -1  -4  231.78   11.10
  -2  -1  -4  194.98   10.90
   2  -1   4  232.18   11.20
   2  -1   4  237.48   11.10
  -2   1  -5  415.46   17.90
   2   1   5  382.16   17.70
  -2   1  -5  372.66   17.50
   2   1   5  385.26   17.70
  -2  -1  -5  378.56   17.60
   2  -1   5  421.76   18.00
   2  -1   5  389.96   17.70
  -2  -1  -5  349.87   17.50
   2   1   6   78.19    8.60
  -2   1  -6   91.49    8.90
   2   1   6   74.99    8.30
  -2   1  -6   75.09    8.30
  -2  -1  -6   73.79    8.40
   2  -1   6   70.69    8.40
  -2  -1  -6   57.99    8.00
   2  -1   6   67.29    8.50
   2   1   7   69.29    9.60
   2   1   7   53.19    8.30
  -2   1  -7   43.70    6.90
  -2   1  -7   50.79    7.80
  -2  -1  -7   40.10    6.40
   2  -1   7   51.79    7.80
   2  -1   7   49.60    7.60
  -2  -1  -7   41.50    7.50
  -2  -1  -7   50.79    8.00
   2   1   8    3.60    7.90
  -2   1  -8    5.70    8.00
   2   1   8  -15.50    8.10
  -2   1  -8   -4.00    7.70
  -2  -1  -8    0.50    7.40
  -2  -1  -8    2.80    8.20
   2  -1   8    9.20    7.80
   2  -1   8    3.90    8.20
   2   2  -8   26.30    7.20
   2   2  -8   12.70    6.50
  -2   2   8    3.30    7.60
  -2   2   8   14.90    8.00
  -2   2   8   25.10    7.10
   2  -2  -8   18.60    8.60
  -2  -2   8   22.70    8.00
  -2  -2   8   26.80    5.70
   2  -2  -8   30.60    8.50
  -2  -2   8   29.60    7.20
  -2   2   7    2.50    6.20
   2   2  -7   14.30    4.90
   2   2  -7   -1.10    4.80
  -2   2   7    0.30    6.20
  -2   2   7    7.60    4.80
   2  -2  -7    4.40    5.70
  -2  -2   7   14.60    5.20
  -2  -2   7    1.20    3.80
  -2   2   6  241.98   12.60
   2   2  -6  240.88   12.50
   2   2  -6  239.38   12.60
  -2   2   6  238.28   13.40
  -2   2   6  226.58   13.00
  -2  -2   6  250.07   12.70
   2  -2  -6  234.28   13.20
  -2  -2   6  234.98   11.70
  -2  -2   6  235.88   12.60
   2   2  -5   12.70    3.40
  -2   2   5   14.00    4.20
  -2   2   5   16.90    3.90
  -2   2   5   17.10    3.40
  -2  -2   5   14.10    3.50
  -2  -2   5   10.10    3.60
  -2  -2   5   11.60    2.70
  -2   2   4   17.80    3.30
  -2   2   4   20.80    3.80
   2   2  -4   21.10    3.00
  -2   2   4   21.10    3.20
   2   2  -4   18.80    3.10
   2  -2  -4   22.10    3.80
  -2  -2   4   24.30    3.30
   2  -2  -4   22.50    2.90
  -2  -2   4   18.80    2.50
  -2  -2   4   21.60    3.30
  -2   2   3  183.48    8.90
   2   2  -3  185.28    8.50
  -2   2   3  174.28    8.80
   2   2  -3  181.18    8.40
   2   2  -3  181.98    8.20
  -2   2   3  195.58    9.00
   2  -2  -3  183.38    8.90
  -2  -2   3  184.58    8.50
  -2  -2   3  190.88    8.50
  -2  -2   3  179.08    8.20
   2  -2  -3  193.08    9.10
   2  -2  -3  185.48    8.80
  -2   2   2  750.32   30.70
   2   2  -2  761.72   30.20
  -2   2   2  770.72   30.70
   2   2  -2  736.93   30.30
   2   2  -2  780.62   30.30
   2  -2  -2  783.92   30.70
   2  -2  -2  728.83   30.60
  -2  -2   2  791.02   30.30
  -2  -2   2  792.72   30.80
   2  -2  -2  758.72   30.70
  -2  -2   2  778.72   30.40
  -2  -2   2  796.92   30.30
   2  -2  -2  823.32   30.80
  -2   2   1   61.39    3.80
  -2   2   1   65.69    3.80
   2   2  -1   63.19    2.80
  -2   2   1   57.89    3.60
   2   2  -1   60.69    3.50
   2   2  -1   59.29    4.10
   2   2  -1   58.79    2.70
  -2  -2   1   55.39    2.70
   2  -2  -1   64.79    3.90
   2  -2  -1   61.39    3.60
  -2  -2   1   60.89    2.90
  -2  -2   1   64.69    3.40
   2  -2  -1   61.09    3.80
  -2  -2   1   60.49    3.80
   2  -2  -1   64.39    3.60
  -2   2   0 2873.61  109.99
  -2   2   0 2701.03  110.59
  -2   2   0 2785.12  110.59
   2   2   0 2912.31  110.69
   2   2   0 2812.12  109.99
  -2   2   0 2999.00  110.59
  -2   2   0 3088.59  110.19
   2  -2   0 2899.21  110.29
  -2  -2   0 2772.42  110.69
   2  -2   0 2957.30  110.49
   2  -2   0 2656.73  110.59
  -2  -2   0 3001.20  110.59
   2  -2   0 2943.11  110.09
   2  -2   0 2726.03  110.59
  -2   2  -1   63.79    3.30
   2   2   1   64.29    3.40
  -2   2  -1   68.89    4.10
  -2   2  -1   71.79    4.10
   2   2   1   66.29    3.40
   2   2   1   63.59    3.30
   2  -2   1   66.99    4.10
  -2  -2  -1   67.39    3.40
   2  -2   1   66.09    3.90
  -2  -2  -1   65.29    3.30
  -2  -2  -1   71.79    3.50
   2  -2   1   68.49    4.00
   2   2   2   90.69    4.90
  -2   2  -2   87.99    5.10
   2   2   2   92.69    4.90
  -2   2  -2   93.49    5.20
  -2  -2  -2   91.89    4.90
  -2  -2  -2   87.19    4.40
   2  -2   2   86.69    5.10
  -2  -2  -2   95.09    5.00
   2  -2   2   94.09    5.20
   2   2   3   79.29    5.30
  -2   2  -3   85.29    5.30
   2   2   3   79.09    5.20
  -2   2  -3   77.79    5.30
  -2  -2  -3   82.79    5.40
  -2  -2  -3   81.89    5.30
   2  -2   3   87.49    5.40
  -2  -2  -3   85.19    4.80
   2  -2   3   80.89    5.30
   2   2   4  164.88    8.80
   2   2   4  160.48    8.90
  -2   2  -4  168.98    9.00
  -2   2  -4  164.68    9.00
  -2  -2  -4  168.48    8.40
  -2  -2  -4  150.38    8.70
  -2  -2  -4  160.78    9.00
   2  -2   4  177.18    9.10
   2  -2   4  175.58    9.10
  -2   2  -5    7.60    3.70
   2   2   5    7.10    3.90
   2   2   5    9.40    3.80
  -2   2  -5    9.30    3.80
  -2  -2  -5    3.60    4.00
  -2  -2  -5    2.40    3.70
  -2  -2  -5    8.70    3.10
   2  -2   5    9.80    4.10
   2  -2   5    9.00    3.90
  -2   2  -6  133.39    9.80
   2   2   6  135.49   10.10
   2   2   6  124.79    9.70
  -2   2  -6  143.09   10.10
   2  -2   6  142.79   10.20
  -2  -2  -6  126.19   10.20
   2  -2   6  143.39   10.30
  -2  -2  -6  130.09    9.90
  -2  -2  -6  124.39    9.20
  -2   2  -7   16.20    6.60
   2   2   7    4.90    6.20
  -2   2  -7    4.00    5.90
   2   2   7    6.70    6.10
  -2  -2  -7   15.00    5.80
  -2  -2  -7    5.70    6.20
  -2  -2  -7   -6.60    5.70
   2  -2   7    3.60    6.20
   2  -2   7   12.60    6.70
   2   2   8   -1.60    8.00
  -2   2  -8   -0.50    7.70
  -2   2  -8   -7.50    7.20
   2   2   8   -1.60    8.40
   2  -2   8   17.90    9.00
  -2  -2  -8   10.40    8.40
  -2  -2  -8   -1.40    7.50
  -2  -2  -8  -12.90    7.20
   2  -2   8    0.40    7.70
  -2   3   8    7.80    8.30
  -2   3   8    7.50    6.80
   2   3  -8   15.70    6.60
   2   3  -8    7.40    6.50
  -2   3   8    3.00    8.40
   2  -3  -8    4.70    7.90
  -2  -3   8   10.70    7.40
  -2  -3   8    2.80    5.00
   2  -3  -8   10.50    8.00
  -2  -3   8    4.20    7.20
  -2   3   7  202.18   13.20
   2   3  -7  190.28   11.80
  -2   3   7  161.68   13.10
   2   3  -7  200.68   11.80
  -2  -3   7  182.48   11.90
   2  -3  -7  200.48   13.10
  -2  -3   7  188.08   10.60
  -2   3   6   -1.60    4.90
   2   3  -6    5.50    3.90
  -2   3   6    1.40    4.00
   2   3  -6   10.40    4.00
  -2   3   6    7.20    4.80
   2  -3  -6    5.70    4.90
  -2  -3   6    9.60    4.00
  -2  -3   6    9.00    4.10
  -2  -3   6    5.30    2.90
  -2   3   5  387.16   16.80
   2   3  -5  360.26   16.30
  -2   3   5  359.56   17.00
  -2   3   5  380.56   17.10
   2   3  -5  364.16   16.30
   2  -3  -5  363.76   17.00
   2  -3  -5  371.66   17.20
  -2  -3   5  355.96   16.30
  -2  -3   5  367.66   16.40
  -2  -3   5  354.06   15.60
  -2   3   4   65.89    5.80
   2   3  -4   60.59    4.70
   2   3  -4   57.69    4.70
  -2   3   4   66.99    5.60
  -2   3   4   68.59    5.40
  -2  -3   4   60.39    4.20
   2  -3  -4   60.89    5.20
   2  -3  -4   58.09    5.80
  -2  -3   4   60.99    4.90
   2  -3  -4   60.99    5.60
  -2  -3   4   67.79    4.90
  -2   3   3   28.70    3.20
   2   3  -3   24.30    2.80
   2   3  -3   28.70    2.50
   2   3  -3   22.80    2.80
  -2   3   3   27.30    3.40
  -2   3   3   26.70    3.80
   2  -3  -3   23.10    2.90
  -2  -3   3   24.80    3.10
   2  -3  -3   26.20    3.50
  -2  -3   3   26.90    2.60
  -2  -3   3   23.90    3.00
   2  -3  -3   24.60    3.60
   2  -3  -3   24.60    3.60
   2   3  -2  103.99    5.00
   2   3  -2  104.09    5.00
   2   3  -2  108.49    5.10
  -2   3   2  108.79    5.80
  -2   3   2  114.29    6.00
  -2  -3   2  112.49    5.10
  -2  -3   2  108.99    5.10
   2  -3  -2  108.29    5.90
  -2  -3   2  115.69    6.00
   2  -3  -2  106.09    5.80
   2  -3  -2  109.49    5.90
   2  -3  -2  113.89    5.80
  -2  -3   2  114.59    5.10
   2   3  -1 1539.45   67.09
   2   3  -1 1744.33   67.69
  -2   3   1 1784.82   67.79
  -2   3   1 1728.63   68.09
  -2   3   1 1754.12   67.99
  -2   3   1 1769.82   68.09
   2   3  -1 1838.52   68.19
   2  -3  -1 1738.23   68.09
  -2  -3   1 1707.33   67.19
  -2  -3   1 1785.52   68.09
   2  -3  -1 1703.53   67.99
   2  -3  -1 1792.32   67.79
   2  -3  -1 1761.62   68.09
  -2  -3   1 1898.41   68.19
  -2  -3   1 1742.53   67.19
  -2   3   0    2.00    2.00
  -2   3   0    4.90    1.30
   2   3   0    2.40    1.10
   2   3   0    3.20    0.50
   2   3   0    1.10    2.10
  -2   3   0    4.10    1.60
  -2   3   0    5.60    2.00
   2  -3   0    2.00    1.40
   2  -3   0    3.60    2.10
   2  -3   0    4.70    1.60
  -2  -3   0   -1.50    2.00
   2  -3   0    3.40    1.90
   2  -3   0    3.30    1.30
  -2  -3   0    2.30    0.60
  -2  -3   0    1.20    1.90
   2   3   1  941.71   35.50
  -2   3  -1  909.61   36.00
  -2   3  -1  873.91   35.30
   2   3   1  901.91   35.30
  -2   3  -1  887.81   36.00
   2   3   1  898.71   35.30
  -2  -3  -1  881.71   35.30
   2  -3   1  903.51   36.00
   2  -3   1  876.31   36.00
  -2  -3  -1  945.11   35.40
  -2  -3  -1  960.70   36.00
  -2  -3  -1  939.11   35.30
   2  -3   1  882.81   35.70
  -2   3  -2  221.58   10.20
  -2   3  -2  218.88    9.50
  -2   3  -2  232.58   10.30
   2   3   2  234.88    9.90
   2   3   2  220.28    9.80
   2   3   2  219.08    9.50
  -2  -3  -2  235.08    9.90
  -2  -3  -2  215.68    9.60
   2  -3   2  225.18   10.30
  -2  -3  -2  229.88    9.90
   2  -3   2  220.08   10.20
   2   3   3  104.89    6.00
   2   3   3  100.59    6.20
  -2   3  -3  107.89    6.10
  -2   3  -3  101.69    6.30
  -2  -3  -3   99.19    6.10
   2  -3   3  103.99    6.20
  -2  -3  -3  106.89    5.60
   2  -3   3   99.89    6.00
  -2  -3  -3  112.39    6.30
   2   3   4   18.00    3.60
   2   3   4   21.30    3.50
  -2   3  -4   23.50    3.90
  -2   3  -4   18.40    3.60
  -2  -3  -4   19.30    3.00
   2  -3   4   21.30    3.70
   2  -3   4   16.40    3.50
  -2  -3  -4   26.90    4.00
  -2  -3  -4   23.50    4.00
   2   3   5  466.55   21.10
  -2   3  -5  497.45   21.20
   2   3   5  455.15   21.00
  -2   3  -5  471.05   21.10
   2  -3   5  504.05   21.20
  -2  -3  -5  471.75   21.10
   2  -3   5  507.75   21.40
  -2  -3  -5  474.65   20.50
  -2  -3  -5  434.36   20.80
   2   3   6   -4.10    4.90
  -2   3  -6    7.40    4.60
  -2   3  -6    4.10    4.90
   2   3   6    2.50    5.00
  -2  -3  -6   -0.80    5.00
   2  -3   6    1.10    4.80
  -2  -3  -6   -1.90    4.90
  -2  -3  -6   -2.10    4.10
   2  -3   6    2.50    4.40
   2   3   7   50.69    7.90
  -2   3  -7   67.29    9.70
  -2   3  -7   60.59    9.50
   2   3   7   47.20    7.80
  -2  -3  -7   41.70    6.60
   2  -3   7   57.09    7.90
   2  -3   7   67.49   10.30
  -2  -3  -7   54.69    8.80
  -2  -3  -7   51.19    7.60
   2   3   8    2.20    7.50
  -2   3  -8   10.00    7.80
   2   3   8   16.30    8.60
  -2   3  -8   10.60    8.00
  -2  -3  -8   16.10    7.80
  -2  -3  -8   17.00    7.90
   2  -3   8   15.20    8.70
  -2  -3  -8    0.80    7.90
   2  -3   8   21.10    8.70
  -2   4   8   36.70    9.80
   2   4  -8   26.80    6.70
   2   4  -8   38.20    7.20
  -2   4   8   46.70    8.40
  -2   4   8   34.50    9.00
  -2  -4   8   37.20    8.00
   2  -4  -8   32.30    8.70
   2  -4  -8   37.80    9.10
  -2  -4   8   49.30    8.70
   2   4  -7   17.90    5.50
  -2   4   7   25.60    8.00
  -2   4   7   16.20    7.10
   2   4  -7   15.50    5.10
  -2  -4   7   11.20    5.50
  -2  -4   7   17.00    4.20
  -2  -4   7    9.50    5.70
   2  -4  -7   15.40    6.30
   2   4  -6  257.57   13.20
   2   4  -6  253.97   13.30
  -2   4   6  270.77   13.90
  -2   4   6  273.87   14.50
  -2   4   6  263.97   14.30
  -2  -4   6  257.07   12.10
   2  -4  -6  252.27   14.20
  -2  -4   6  251.77   13.50
  -2  -4   6  261.97   13.40
  -2   4   5   27.20    4.80
   2   4  -5   23.60    3.80
   2   4  -5   22.00    3.70
  -2   4   5   39.10    6.00
  -2   4   5   40.80    5.90
  -2  -4   5   26.70    3.70
  -2  -4   5   31.00    4.40
  -2  -4   5   28.60    4.20
   2  -4  -5   31.60    5.30
   2  -4  -5   25.20    4.60
   2   4  -4  203.78    9.90
  -2   4   4  222.88   10.90
  -2   4   4  215.48   10.60
   2   4  -4  205.28    9.80
  -2   4   4  221.58   10.90
   2  -4  -4  216.88   10.70
  -2  -4   4  199.68    9.20
   2  -4  -4  209.18   10.50
  -2  -4   4  203.98    9.90
   2  -4  -4  208.48   10.80
  -2  -4   4  208.18   10.00
   2  -4  -4  217.08   10.90
  -2   4   3  266.27   12.00
   2   4  -3  256.17   11.00
  -2   4   3  263.47   11.90
   2   4  -3  246.28   11.00
   2   4  -3  251.07   10.50
  -2   4   3  251.17   11.80
  -2  -4   3  257.27   11.10
  -2  -4   3  263.07   11.90
  -2  -4   3  248.58   11.00
   2  -4  -3  244.28   11.80
   2  -4  -3  268.27   11.90
  -2  -4   3  253.97   10.70
   2  -4  -3  251.87   11.80
   2  -4  -3  271.47   11.90
   2   4  -2  497.25   20.30
   2   4  -2  506.35   20.40
  -2   4   2  529.95   21.20
   2   4  -2  511.35   20.40
  -2   4   2  513.35   21.20
  -2   4   2  553.44   21.40
  -2  -4   2  525.55   20.50
   2  -4  -2  538.65   21.20
   2  -4  -2  508.85   21.30
   2  -4  -2  542.05   21.30
   2  -4  -2  515.55   21.20
  -2  -4   2  463.55   20.60
  -2  -4   2  516.65   21.30
  -2   4   1   14.60    2.10
  -2   4   1   13.00    2.10
   2   4  -1   14.40    1.90
  -2   4   1   16.90    2.70
  -2   4   1   13.10    2.40
   2   4  -1    9.90    1.10
   2   4  -1    9.90    1.20
   2   4  -1   14.30    2.80
   2   4  -1   11.50    1.90
   2  -4  -1   14.00    2.00
   2  -4  -1   17.90    2.80
  -2  -4   1   10.50    1.10
   2  -4  -1   13.40    2.30
  -2  -4   1   15.80    2.60
   2  -4  -1   13.30    2.10
  -2  -4   1    8.30    2.00
  -2  -4   1    8.50    1.30
  -2   4   0 1311.77   49.00
   2   4   0 1060.39   48.30
  -2   4   0 1255.17   49.60
  -2   4   0 1248.88   49.60
   2   4   0 1291.17   49.60
  -2   4   0 1301.07   49.20
   2   4   0 1291.47   48.30
   2   4   0 1285.97   49.00
  -2  -4   0 1157.58   48.30
  -2  -4   0 1320.87   48.90
   2  -4   0 1339.07   49.10
   2  -4   0 1268.17   49.10
  -2  -4   0 1285.77   49.60
  -2  -4   0 1155.18   49.40
   2  -4   0 1238.38   49.50
   2  -4   0 1233.28   49.60
   2  -4   0 1338.47   48.60
  -2  -4   0 1246.38   48.30
   2   4   1  405.76   16.10
  -2   4  -1  380.36   16.50
  -2   4  -1  399.96   16.40
  -2   4  -1  395.26   17.10
   2   4   1  399.06   17.90
   2   4   1  407.36   16.60
   2   4   1  427.86   16.20
  -2   4  -1  390.06   17.00
  -2  -4  -1  404.36   16.40
   2  -4   1  389.36   17.00
  -2  -4  -1  423.56   16.20
   2  -4   1  393.56   16.40
  -2  -4  -1  431.36   17.00
   2  -4   1  404.36   16.60
  -2  -4  -1  409.96   16.10
   2  -4   1  395.26   17.00
  -2   4  -2   64.79    3.80
  -2   4  -2   63.79    4.70
  -2   4  -2   62.39    4.70
   2   4   2   62.69    3.90
   2   4   2   59.49    4.00
   2   4   2   54.39    3.80
   2  -4   2   59.39    4.00
   2  -4   2   59.99    4.60
   2  -4   2   63.49    4.70
  -2  -4  -2   57.19    4.00
  -2  -4  -2   55.99    3.90
  -2  -4  -2   61.79    4.10
   2   4   3  260.07   11.90
  -2   4  -3  264.07   12.20
   2   4   3  256.87   12.00
  -2   4  -3  264.07   12.20
   2  -4   3  268.87   12.30
  -2  -4  -3  274.37   12.10
  -2  -4  -3  258.07   12.00
  -2  -4  -3  265.87   11.60
   2  -4   3  270.47   12.30
   2   4   4  157.08    9.00
   2   4   4  168.28    9.00
  -2   4  -4  157.98    8.90
  -2   4  -4  175.28    9.00
   2  -4   4  158.78    9.10
  -2  -4  -4  155.88    8.90
  -2  -4  -4  162.48    8.50
  -2  -4  -4  178.18    9.20
   2  -4   4  162.98    9.10
  -2   4  -5   11.60    4.20
   2   4   5    7.60    4.20
  -2   4  -5    7.40    3.80
   2   4   5    8.40    4.40
  -2  -4  -5    6.20    3.20
   2  -4   5    6.50    3.70
  -2  -4  -5    5.10    4.10
   2  -4   5    5.70    3.70
  -2  -4  -5    0.90    3.60
   2   4   6  113.99    9.90
   2   4   6  121.99   10.00
  -2   4  -6  125.49   10.00
  -2   4  -6  135.89   10.10
  -2  -4  -6  127.99    9.40
  -2  -4  -6  124.19   10.10
   2  -4   6  141.99   10.20
  -2  -4  -6  101.59    9.30
   2  -4   6  132.79   10.30
  -2   4  -7   37.00    7.30
   2   4   7   28.00    7.30
  -2   4  -7   42.20    7.60
   2   4   7   21.90    6.90
  -2  -4  -7   28.30    6.90
   2  -4   7   29.10    6.80
  -2  -4  -7   25.90    7.00
  -2  -4  -7   26.50    6.50
   2  -4   7   21.90    6.90
   2   4   8    0.00    7.70
   2   4   8    8.40    7.90
  -2   4  -8   -4.30    7.80
  -2   4  -8    4.50    8.20
   2   4   8    9.10    8.50
  -2  -4  -8    3.60    8.10
  -2  -4  -8   -9.80    8.20
  -2  -4  -8    1.70    7.60
   2  -4   8    2.50    7.20
   2  -4   8   -0.80    8.20
  -2   5   8   11.10    9.50
  -2   5   8   23.20    8.20
   2   5  -8   22.20    7.30
   2   5  -8   28.40    7.10
  -2   5   8   22.90    8.50
  -2  -5   8   27.60    7.10
  -2  -5   8   18.40    8.50
   2  -5  -8   16.60    9.00
   2  -5  -8   23.60    8.20
   2  -5  -8   16.60    8.80
  -2   5   7   61.19    9.10
  -2   5   7   76.09   10.60
  -2   5   7   72.09   11.10
   2   5  -7   61.99    8.50
   2   5  -7   84.19    8.00
  -2  -5   7   69.89    9.20
  -2  -5   7   47.30    6.30
   2  -5  -7   68.09   10.10
   2  -5  -7   61.99    8.80
  -2  -5   7   85.29    8.60
  -2   5   6    8.20    5.30
   2   5  -6    4.00    3.50
  -2   5   6    3.40    4.60
  -2   5   6   10.30    5.80
   2   5  -6    1.50    3.60
   2  -5  -6   -0.10    5.20
   2  -5  -6    5.30    5.50
  -2  -5   6    2.80    2.70
  -2  -5   6    1.80    4.10
  -2  -5   6    2.60    4.00
   2   5  -5   85.29    6.20
  -2   5   5   81.29    8.00
   2   5  -5   88.19    6.30
  -2   5   5   92.09    8.00
  -2   5   5   80.99    7.60
   2  -5  -5   79.19    7.60
  -2  -5   5   85.49    5.00
   2  -5  -5   91.59    7.90
  -2  -5   5   78.59    6.30
   2  -5  -5  100.49    7.80
  -2  -5   5   77.29    6.50
   2   5  -4  251.37   11.50
   2   5  -4  250.57   11.50
  -2   5   4  266.57   12.70
  -2   5   4  263.97   12.40
  -2   5   4  268.17   12.70
  -2  -5   4  247.88   10.70
   2  -5  -4  251.37   12.60
   2  -5  -4  254.07   12.50
   2  -5  -4  263.77   12.60
  -2  -5   4  240.88   11.50
  -2  -5   4  240.28   11.50
  -2   5   3  172.28    8.80
   2   5  -3  165.28    7.80
  -2   5   3  171.28    8.90
   2   5  -3  166.28    7.70
  -2   5   3  161.48    8.60
   2  -5  -3  169.98    8.90
  -2  -5   3  165.58    7.90
  -2  -5   3  169.48    8.70
  -2  -5   3  163.08    7.80
   2  -5  -3  168.08    8.80
   2  -5  -3  168.08    8.80
  -2  -5   3  167.18    7.10
   2  -5  -3  167.18    8.80
  -2   5   2  242.78   11.00
   2   5  -2  234.18    9.90
  -2   5   2  241.78   10.90
  -2   5   2  238.08   10.80
   2   5  -2  233.58    9.60
  -2   5   2  232.48   10.90
   2   5  -2  224.28    9.80
  -2  -5   2  246.28   11.00
   2  -5  -2  235.18   10.80
  -2  -5   2  214.88   10.10
   2  -5  -2  240.88   10.80
   2  -5  -2  242.48   11.00
  -2  -5   2  232.48    9.80
   2  -5  -2  253.37   11.00
   2   5  -1  771.72   32.20
   2   5  -1  821.42   32.40
   2   5  -1  788.52   32.10
  -2   5   1  825.12   33.40
  -2   5   1  850.91   33.10
  -2   5   1  833.52   33.00
  -2   5   1  869.61   33.50
   2   5  -1  829.82   33.00
   2  -5  -1  823.12   33.10
  -2  -5   1  823.82   33.40
   2  -5  -1  796.82   33.30
   2  -5  -1  836.42   33.10
  -2  -5   1  837.42   32.20
  -2  -5   1  903.11   33.30
   2  -5  -1  862.01   33.60
   2   5   0  411.86   16.50
   2   5   0  402.16   15.50
  -2   5   0  390.46   16.90
  -2   5   0  397.66   17.10
  -2   5   0  406.46   16.40
   2   5   0  342.77   15.70
  -2   5   0  411.46   16.40
  -2  -5   0  387.86   17.00
   2  -5   0  396.46   17.10
   2  -5   0  392.86   17.00
  -2  -5   0  386.26   15.70
   2  -5   0  401.06   16.30
  -2  -5   0  354.66   16.70
  -2  -5   0  412.56   16.30
   2  -5   0  427.06   16.60
  -2   5  -1  302.77   12.80
   2   5   1  292.87   13.10
  -2   5  -1  300.97   12.80
  -2   5  -1  278.57   13.50
  -2   5  -1  282.17   13.40
   2   5   1  303.57   12.30
   2   5   1  307.47   12.40
   2  -5   1  295.77   12.90
   2  -5   1  302.17   13.50
   2  -5   1  312.07   12.80
  -2  -5  -1  306.57   12.80
   2  -5   1  298.17   13.50
  -2  -5  -1  311.17   12.40
  -2  -5  -1  322.07   13.30
   2   5   2  556.44   23.00
  -2   5  -2  569.24   23.00
   2   5   2  594.04   23.20
  -2   5  -2  569.84   23.70
  -2   5  -2  581.64   23.80
   2   5   2  568.64   23.10
   2  -5   2  573.64   23.80
  -2  -5  -2  557.44   23.20
   2  -5   2  567.14   23.70
  -2  -5  -2  577.74   23.10
   2  -5   2  551.74   23.00
  -2  -5  -2  585.84   23.10
  -2   5  -3  235.28   11.50
  -2   5  -3  243.38   10.80
   2   5   3  237.28   11.10
   2   5   3  231.48   11.00
  -2   5  -3  253.27   11.60
   2   5   3  240.48   10.80
   2  -5   3  242.68   11.60
  -2  -5  -3  243.88   11.20
  -2  -5  -3  234.18   11.10
   2  -5   3  237.48   10.60
  -2  -5  -3  245.78   11.00
   2  -5   3  236.28   11.40
   2   5   4   80.09    6.20
  -2   5  -4   78.29    6.50
  -2   5  -4   85.59    6.50
   2   5   4   70.99    6.10
   2  -5   4   78.59    6.40
   2  -5   4   78.49    6.30
  -2  -5  -4   78.79    6.40
  -2  -5  -4   82.29    6.10
  -2  -5  -4   77.09    6.30
   2   5   5  436.26   19.30
  -2   5  -5  406.46   19.20
   2   5   5  385.16   19.00
  -2   5  -5  412.46   19.20
  -2  -5  -5  411.56   19.10
   2  -5   5  425.96   19.40
  -2  -5  -5  434.16   19.30
   2  -5   5  440.16   19.40
  -2  -5  -5  430.86   18.80
  -2   5  -6   14.20    5.50
   2   5   6    4.90    5.50
   2   5   6    1.70    5.20
  -2   5  -6    6.00    4.80
  -2  -5  -6    6.60    4.40
   2  -5   6    7.70    4.70
  -2  -5  -6    8.00    5.20
   2  -5   6    4.70    5.00
  -2   5  -7   50.29    8.10
   2   5   7   41.40    7.50
  -2   5  -7   50.69    7.90
   2   5   7   43.80    7.40
   2  -5   7   36.80    7.20
  -2  -5  -7   43.60    7.90
  -2  -5  -7   49.30    8.10
   2  -5   7   36.30    7.10
  -2   5  -8   17.10    8.70
   2   5   8   28.50    9.10
   2   5   8   19.70    8.30
   2   5   8   11.00    8.60
  -2   5  -8   23.80    9.00
  -2  -5  -8   27.10    9.70
   2  -5   8   25.50    8.10
  -2  -5  -8   14.90    9.50
   2  -5   8   23.90    9.30
  -2  -5  -8   24.70    8.50
  -2   6   8   15.20   10.20
   2   6  -8   -0.30    6.30
   2   6  -8   -8.70    6.70
  -2   6   8   -1.60    7.70
  -2   6   8   17.80    9.20
  -2  -6   8    9.40    7.60
  -2  -6   8   -3.80    4.30
   2  -6  -8  -15.60    8.80
   2  -6  -8   -2.60    7.00
   2  -6  -8    3.60    9.20
  -2  -6   8    5.20    6.70
  -2   6   7   27.90    7.70
   2   6  -7   18.50    5.30
  -2   6   7   36.70    7.20
  -2   6   7   32.20    8.30
   2   6  -7   16.60    5.00
  -2  -6   7   26.30    6.60
   2  -6  -7   32.70    8.10
   2  -6  -7   13.40    7.60
   2  -6  -7   20.80    7.90
  -2  -6   7   23.20    6.20
  -2   6   6  137.39   11.20
  -2   6   6  116.89   10.50
   2   6  -6  124.19    8.50
   2   6  -6  124.49    8.70
  -2  -6   6  125.19    9.00
   2  -6  -6  117.89   10.60
   2  -6  -6  136.59   10.70
  -2  -6   6  122.49    6.90
   2   6  -5  148.99    8.60
  -2   6   5  149.79   10.50
   2   6  -5  148.19    8.50
  -2   6   5  161.88   10.10
  -2   6   5  162.78   10.40
  -2  -6   5  146.09    8.80
   2  -6  -5  156.78   10.10
   2  -6  -5  144.19   10.30
  -2  -6   5  156.98    8.70
  -2  -6   5  149.49    7.10
   2  -6  -5  148.79   10.30
   2   6  -4   84.89    5.50
  -2   6   4   92.19    6.80
   2   6  -4   75.59    5.40
  -2   6   4   84.79    7.00
  -2   6   4   82.49    7.00
  -2  -6   4   77.49    5.70
  -2  -6   4   84.49    6.60
   2  -6  -4   93.39    7.10
   2  -6  -4   84.49    7.10
  -2  -6   4   79.09    5.50
  -2  -6   4   77.39    4.10
   2  -6  -4   81.09    7.10
   2   6  -3  537.55   22.40
  -2   6   3  549.85   23.50
  -2   6   3  559.64   23.60
   2   6  -3  549.45   22.60
  -2   6   3  575.04   23.70
  -2   6   3  564.04   23.40
   2  -6  -3  571.64   23.60
   2  -6  -3  581.74   23.60
  -2  -6   3  550.34   22.50
  -2  -6   3  549.54   22.60
  -2  -6   3  539.65   23.40
   2  -6  -3  560.84   23.50
   2  -6  -3  557.34   23.40
  -2   6   2   38.70    4.50
   2   6  -2   38.80    4.20
  -2   6   2   48.00    4.20
  -2   6   2   36.50    4.60
   2   6  -2   39.50    3.00
  -2   6   2   44.60    4.50
   2   6  -2   42.90    2.30
   2   6  -2   41.50    2.90
  -2  -6   2   42.80    2.90
   2  -6  -2   41.90    4.20
  -2  -6   2   38.90    4.30
  -2  -6   2   39.10    3.30
   2  -6  -2   44.10    4.60
   2  -6  -2   41.60    4.50
   2  -6  -2   41.70    4.40
   2   6  -1  197.48    8.40
  -2   6   1  197.78    8.60
   2   6  -1  203.58    9.40
  -2   6   1  219.18   10.00
  -2   6   1  194.28    9.80
   2   6  -1  183.28    8.30
  -2   6   1  202.98    9.60
  -2   6   1  202.18    9.30
  -2  -6   1  194.58    9.80
   2  -6  -1  194.98    9.80
   2  -6  -1  201.58   10.10
  -2  -6   1  220.08    9.70
  -2  -6   1  212.58    8.50
   2  -6  -1  207.28    9.40
   2  -6  -1  205.38    9.60
  -2   6   0  556.14   22.30
  -2   6   0  567.54   22.10
   2   6   0  488.55   21.60
  -2   6   0  550.04   22.80
  -2   6   0  547.45   22.90
   2   6   0  558.24   22.40
  -2  -6   0  507.75   22.50
  -2  -6   0  523.85   22.80
   2  -6   0  588.24   22.50
   2  -6   0  553.04   22.10
   2  -6   0  528.95   22.80
  -2  -6   0  538.25   21.70
   2  -6   0  537.95   23.00
  -2  -6   0  574.54   22.20
  -2   6  -1  247.58   11.10
   2   6   1  256.07   10.50
   2   6   1  236.68   11.40
  -2   6  -1  243.38   10.90
   2   6   1  249.18   10.40
  -2   6  -1  218.28   11.80
  -2   6  -1  231.58   11.70
  -2  -6  -1  259.97   11.50
   2  -6   1  255.77   11.90
  -2  -6  -1  249.68   11.00
  -2  -6  -1  253.77   10.50
   2  -6   1  249.18   10.80
   2  -6   1  268.57   10.40
   2  -6   1  239.48   11.70
  -2  -6  -1  256.47   10.50
   2  -6   1  236.98   11.20
  -2   6  -2  146.59    8.20
   2   6   2  139.09    7.00
   2   6   2  156.58    7.70
   2   6   2  142.89    7.10
  -2   6  -2  144.69    7.30
  -2   6  -2  150.18    8.20
   2  -6   2  143.89    8.20
  -2  -6  -2  135.79    7.40
   2  -6   2  141.49    8.10
  -2  -6  -2  148.39    7.20
   2  -6   2  136.69    7.00
  -2   6  -3  490.25   21.20
   2   6   3  489.85   20.60
  -2   6  -3  493.85   21.30
   2   6   3  486.95   20.60
  -2   6  -3  496.55   20.50
   2   6   3  489.35   20.60
  -2  -6  -3  506.95   20.70
  -2  -6  -3  492.55   20.70
   2  -6   3  479.05   20.10
   2  -6   3  494.35   21.30
  -2  -6  -3  492.45   20.70
   2  -6   3  505.45   21.30
  -2   6  -4  145.09    8.10
  -2   6  -4  150.38    8.90
   2   6   4  146.69    8.70
  -2   6  -4  153.18    8.90
   2   6   4  147.49    8.70
   2  -6   4  149.49    9.10
  -2  -6  -4  155.38    8.80
   2  -6   4  139.69    9.00
  -2  -6  -4  142.19    8.80
   2  -6   4  145.09    7.50
  -2  -6  -4  149.59    8.70
  -2   6  -5   11.70    4.10
   2   6   5   11.70    4.30
   2   6   5   12.10    4.50
  -2   6  -5   17.10    4.60
   2  -6   5   11.40    4.30
  -2  -6  -5   12.60    4.90
   2  -6   5   21.00    5.00
  -2  -6  -5   14.30    4.80
  -2  -6  -5   14.50    4.00
   2   6   6   86.99    9.10
   2   6   6   95.19    9.30
  -2   6  -6   81.19    8.80
  -2   6  -6   91.29    9.30
   2  -6   6   78.09    9.50
  -2  -6  -6   89.29    9.40
  -2  -6  -6   95.79    8.90
   2  -6   6   86.09    9.30
  -2   6  -7   42.90    8.00
  -2   6  -7   38.80    7.40
   2   6   7   37.70    7.90
   2   6   7   45.20    7.80
  -2  -6  -7   48.40    8.70
   2  -6   7   43.50    7.80
   2  -6   7   49.40    7.80
  -2  -6  -7   58.09    8.60
   2   6   8   -7.60    7.20
  -2   6  -8   11.80    7.60
   2   6   8   14.90    9.30
  -2   6  -8    7.60    8.50
   2   6   8   -4.60    8.50
  -2  -6  -8  -14.50    9.00
   2  -6   8   10.10    8.10
  -2  -6  -8    0.90    9.30
   2  -6   8   -5.50    8.20
  -2  -6  -8   -1.60    8.60
   2   7  -8   16.50    6.90
  -2   7   8   24.20   10.90
   2   7  -8   15.30    7.20
  -2   7   8   32.60    9.90
  -2   7   8   27.20   14.40
  -2  -7   8   16.50    7.60
   2  -7  -8   30.40   10.40
  -2  -7   8   28.40    9.50
   2  -7  -8   40.20   10.80
   2   7  -7    9.50    5.30
  -2   7   7    7.60    8.40
  -2   7   7    5.20    7.50
   2   7  -7    5.70    4.90
  -2   7   7   17.80    7.10
  -2  -7   7   -3.20    2.70
  -2  -7   7   10.40    5.30
  -2  -7   7    4.60    5.90
   2  -7  -7   -6.20    7.30
   2  -7  -7    1.90    7.00
   2  -7  -7    4.80    7.70
  -2   7   6   -3.90    5.70
   2   7  -6    1.00    3.90
   2   7  -6    2.70    3.80
  -2   7   6   -0.10    5.90
  -2  -7   6   -1.50    2.00
   2  -7  -6    1.20    5.90
  -2  -7   6   -0.80    3.90
   2  -7  -6   -7.60    5.70
   2   7  -5   48.70    5.50
   2   7  -5   42.00    5.50
  -2   7   5   55.09    8.00
  -2   7   5   52.09    7.10
  -2  -7   5   44.00    6.10
  -2  -7   5   37.00    5.60
   2  -7  -5   52.79    6.80
   2  -7  -5   39.60    6.30
  -2  -7   5   41.60    5.60
  -2   7   4  400.36   19.30
  -2   7   4  476.65   20.00
   2   7  -4  437.86   18.50
  -2   7   4  442.36   19.80
   2   7  -4  448.96   18.40
   2  -7  -4  465.75   19.70
  -2  -7   4  421.76   19.50
  -2  -7   4  433.66   18.50
   2  -7  -4  367.66   19.30
   2  -7  -4  458.35   19.80
  -2  -7   4  428.46   18.50
  -2   7   3   13.60    3.20
   2   7  -3   14.20    2.50
   2   7  -3   15.40    2.40
  -2   7   3   12.90    4.00
  -2   7   3   16.50    3.40
   2  -7  -3    6.80    3.50
  -2  -7   3   10.50    2.70
   2  -7  -3   14.60    4.20
  -2  -7   3   13.10    2.60
   2  -7  -3   14.90    3.40
   2  -7  -3    9.20    2.90
  -2  -7   3   13.70    2.50
  -2   7   2  667.93   26.80
  -2   7   2  629.64   26.50
   2   7  -2  643.54   26.60
   2   7  -2  589.94   25.70
  -2   7   2  655.93   27.00
   2   7  -2  640.54   25.60
  -2   7   2  669.23   26.90
   2  -7  -2  661.03   26.60
   2  -7  -2  677.93   27.10
  -2  -7   2  631.34   26.80
   2  -7  -2  641.84   26.70
  -2  -7   2  662.03   25.70
   2  -7  -2  666.43   27.00
  -2  -7   2  614.44   25.80
  -2   7   1  552.74   22.10
  -2   7   1  541.05   23.40
  -2   7   1  572.24   23.20
  -2   7   1  566.74   23.50
  -2   7   1  563.14   22.80
   2   7  -1  542.15   22.00
   2   7  -1  543.85   22.00
   2   7  -1  543.05   23.00
   2  -7  -1  563.44   23.20
  -2  -7   1  617.44   23.10
  -2  -7   1  522.35   23.40
   2  -7  -1  517.25   23.30
   2  -7  -1  567.64   23.00
  -2  -7   1  566.84   22.10
   2  -7  -1  575.54   23.70
   2   7   0    0.00    1.70
  -2   7   0    3.50    1.80
  -2   7   0   -0.80    1.90
  -2   7   0   -1.60    2.40
   2   7   0    1.10    2.00
  -2   7   0   -3.70    2.70
   2  -7   0    1.60    2.10
   2  -7   0   -0.60    2.80
  -2  -7   0    3.40    1.60
  -2  -7   0    1.90    2.00
  -2  -7   0    1.00    2.30
   2  -7   0    1.00    1.80
  -2  -7   0   -0.40    1.60
  -2  -7   0   -1.60    2.50
   2  -7   0   -3.20    3.10
   2   7   1  188.28   10.00
  -2   7  -1  198.68    9.10
   2   7   1  207.08    8.90
  -2   7  -1  173.98   10.40
  -2   7  -1  206.28    9.60
  -2   7  -1  189.18   10.20
   2   7   1  210.28    8.80
   2  -7   1  177.78    9.70
   2  -7   1  209.38    8.70
  -2  -7  -1  206.68    8.80
   2  -7   1  186.78   10.40
  -2  -7  -1  202.78    8.90
   2  -7   1  196.78   10.20
   2  -7   1  193.58    9.10
  -2  -7  -1  215.68    9.90
  -2  -7  -1  207.78    9.60
   2   7   2  662.53   26.70
  -2   7  -2  663.63   27.80
   2   7   2  700.23   27.40
  -2   7  -2  671.13   27.00
  -2   7  -2  632.14   27.60
   2   7   2  657.83   26.60
  -2  -7  -2  664.33   26.70
   2  -7   2  642.24   27.70
   2  -7   2  694.83   26.50
   2  -7   2  631.44   27.60
  -2  -7  -2  649.54   26.60
  -2  -7  -2  665.53   27.10
   2  -7   2  657.03   26.50
  -2   7  -3    2.50    3.10
   2   7   3    1.40    2.50
  -2   7  -3    1.70    2.30
   2   7   3    0.00    2.40
  -2   7  -3   -0.50    2.90
   2   7   3    3.20    2.50
  -2  -7  -3    3.20    2.70
   2  -7   3   -0.30    1.90
  -2  -7  -3    0.70    2.70
   2  -7   3    2.60    2.90
   2  -7   3    2.70    3.20
  -2   7  -4  228.28   11.00
   2   7   4  210.58   10.90
   2   7   4  212.18   11.30
  -2   7  -4  225.88   11.90
  -2   7  -4  229.68   11.70
   2   7   4  221.18   11.30
   2  -7   4  189.08   11.60
  -2  -7  -4  226.18   11.40
   2  -7   4  218.98   10.10
   2  -7   4  226.88   12.00
  -2  -7  -4  213.48   11.30
   2   7   5   47.00    7.00
  -2   7  -5   60.19    6.60
  -2   7  -5   50.49    7.10
  -2   7  -5   69.49    7.50
   2   7   5   52.69    7.40
   2  -7   5   55.69    7.60
  -2  -7  -5   62.79    7.40
   2  -7   5   68.09    7.90
  -2  -7  -5   51.39    7.30
   2  -7   5   57.69    5.10
  -2   7  -6   29.30    5.80
   2   7   6   19.70    5.70
   2   7   6   19.30    6.10
  -2   7  -6   30.10    5.80
  -2  -7  -6   24.00    6.80
  -2  -7  -6   18.10    5.50
   2  -7   6   25.70    6.00
   2  -7   6   31.90    6.40
   2   7   7    9.60    7.20
   2   7   7    4.70    7.40
   2   7   7    3.60    7.00
  -2   7  -7    8.90    6.10
  -2   7  -7   -1.00    6.90
  -2  -7  -7    5.30    7.50
   2  -7   7   -1.00    6.70
   2  -7   7    9.70    6.80
  -2  -7  -7    8.60    7.80
  -2  -7  -7   10.60    7.40
   2   8  -7   11.70    5.60
  -2   8   7    4.70    7.30
   2   8  -7    3.50    5.20
  -2   8   7   15.30    8.50
  -2   8   7    7.80    8.30
  -2  -8   7    0.10    5.90
  -2  -8   7    7.20    4.50
   2  -8  -7    2.90    8.40
  -2  -8   7    9.90    5.70
   2  -8  -7   10.40    8.30
   2  -8  -7   -1.30    7.40
  -2   8   6   56.19    8.70
   2   8  -6   59.89    6.90
  -2   8   6   61.89    8.80
   2   8  -6   70.99    7.40
  -2  -8   6   65.59    7.30
   2  -8  -6   77.09    9.50
   2  -8  -6   68.49    9.40
  -2  -8   6   63.89    8.00
  -2   8   5   42.80    6.90
   2   8  -5   44.50    5.50
   2   8  -5   44.70    5.40
  -2   8   5   36.00    6.60
   2  -8  -5   42.30    6.70
  -2  -8   5   53.39    6.00
  -2  -8   5   39.60    5.90
  -2  -8   5   52.29    6.70
   2  -8  -5   44.90    6.80
  -2   8   4    7.10    4.90
   2   8  -4    9.50    2.50
   2   8  -4   11.90    2.90
  -2   8   4    9.30    3.80
  -2   8   4   12.10    4.90
   2  -8  -4   10.00    4.60
   2  -8  -4   10.50    4.40
  -2  -8   4   13.80    3.20
  -2  -8   4    8.30    4.00
  -2  -8   4    9.80    3.00
   2  -8  -4   12.00    4.30
   2   8  -3  577.64   24.10
  -2   8   3  574.64   25.40
   2   8  -3  573.84   25.10
   2   8  -3  584.04   24.30
  -2   8   3  620.04   25.20
  -2   8   3  625.54   25.70
  -2  -8   3  564.54   25.30
   2  -8  -3  583.34   25.40
  -2  -8   3  585.24   24.40
  -2  -8   3  593.94   24.20
   2  -8  -3  610.74   25.30
   2  -8  -3  613.94   25.60
   2  -8  -3  630.84   25.60
  -2   8   2  107.19    7.10
  -2   8   2  107.59    6.60
  -2   8   2  109.99    7.50
   2   8  -2  108.89    6.80
   2   8  -2   99.49    5.30
  -2   8   2  105.09    7.10
   2   8  -2  103.99    5.60
   2  -8  -2  103.39    7.20
   2  -8  -2  110.69    7.60
   2  -8  -2  102.09    7.00
  -2  -8   2   99.69    6.90
  -2  -8   2  103.79    5.40
   2  -8  -2  100.09    6.80
  -2  -8   2   87.09    5.90
  -2   8   1   54.29    5.80
   2   8  -1   55.79    5.10
  -2   8   1   63.69    4.50
  -2   8   1   61.49    5.70
  -2   8   1   64.49    5.60
   2   8  -1   59.29    3.70
  -2   8   1   59.69    4.80
   2   8  -1   65.39    3.70
   2  -8  -1   60.29    5.60
  -2  -8   1   64.69    4.00
  -2  -8   1   60.49    4.10
   2  -8  -1   57.19    5.70
  -2  -8   1   57.79    5.50
   2  -8  -1   62.09    4.90
   2  -8  -1   61.79    6.20
  -2   8   0  196.08   10.00
  -2   8   0  198.88   10.30
  -2   8   0  203.18    9.30
   2   8   0  196.78    9.20
  -2   8   0  203.08   10.70
   2   8   0  204.98   10.10
   2  -8   0  193.28    9.30
   2  -8   0  205.58   10.30
  -2  -8   0  197.98    8.80
   2  -8   0  196.38   10.60
  -2  -8   0  199.28   10.00
   2  -8   0  190.78   10.50
  -2  -8   0  189.98    9.30
  -2  -8   0  203.18    9.80
   2   8   1  323.17   13.50
   2   8   1  329.27   13.40
  -2   8  -1  321.67   14.30
  -2   8  -1  319.07   13.70
  -2   8  -1  298.17   15.20
   2   8   1  310.87   14.70
  -2   8  -1  323.87   14.80
  -2  -8  -1  321.07   13.50
  -2  -8  -1  328.17   14.20
   2  -8   1  314.97   13.60
  -2  -8  -1  316.17   14.30
   2  -8   1  320.97   15.20
   2  -8   1  278.97   14.40
   2  -8   1  324.97   14.90
  -2  -8  -1  306.77   13.50
   2  -8   1  322.97   13.40
  -2   8  -2    3.70    3.20
  -2   8  -2   -0.60    2.20
   2   8   2    1.80    2.10
   2   8   2   -0.80    2.00
  -2   8  -2    1.70    3.40
   2   8   2    0.80    2.60
   2  -8   2    0.60    1.80
   2  -8   2    1.70    2.00
   2  -8   2   -0.40    3.30
  -2  -8  -2    0.50    2.20
  -2  -8  -2    1.60    2.30
  -2  -8  -2    0.30    2.60
   2  -8   2    1.70    3.00
  -2   8  -3  461.05   20.40
   2   8   3  443.96   19.30
   2   8   3  456.65   19.40
   2   8   3  471.45   19.90
  -2   8  -3  432.66   19.50
  -2   8  -3  457.45   20.50
  -2  -8  -3  443.16   19.30
  -2  -8  -3  458.05   19.50
   2  -8   3  463.65   20.50
   2  -8   3  455.45   20.40
  -2  -8  -3  443.66   19.80
   2  -8   3  449.26   18.60
   2   8   4   87.49    7.00
  -2   8  -4   82.09    7.60
  -2   8  -4   83.79    6.90
   2   8   4   64.09    7.10
  -2   8  -4   85.29    7.90
   2   8   4   79.19    7.00
   2  -8   4   76.59    7.80
   2  -8   4   84.69    5.40
  -2  -8  -4   91.69    7.60
   2  -8   4   93.69    8.10
  -2  -8  -4   88.79    7.40
  -2   8  -5    4.70    3.80
   2   8   5    0.70    4.40
   2   8   5    4.50    4.70
  -2   8  -5    9.90    4.60
  -2   8  -5    7.20    4.70
   2  -8   5    6.70    2.90
   2  -8   5    8.30    4.90
   2  -8   5    7.70    4.90
  -2  -8  -5    5.60    4.30
  -2  -8  -5    2.20    4.50
  -2   8  -6   64.89    9.10
  -2   8  -6   60.49    7.80
   2   8   6   41.30    6.70
   2   8   6   60.89    8.30
  -2   8  -6   60.09    8.40
   2  -8   6   44.20    5.30
  -2  -8  -6   33.20    6.60
   2  -8   6   44.50    7.30
   2  -8   6   38.80    6.60
  -2  -8  -6   54.49    8.00
   2   8   7   54.99    8.70
  -2   8  -7   49.80    9.30
   2   8   7   47.20    9.10
  -2   8  -7   44.30    7.70
   2   8   7   41.20    8.40
   2  -8   7   42.00    8.20
   2  -8   7   33.50    8.00
  -2  -8  -7   53.19    9.60
  -2  -8  -7   41.40    8.40
   2  -8   7   49.20    6.00
   2   9  -7   32.50    6.30
  -2   9   7   40.10    9.10
  -2   9   7   39.60   10.60
   2   9  -7   32.40    6.20
  -2   9   7   30.30    8.00
   2  -9  -7   26.30    9.10
  -2  -9   7   23.00    6.90
  -2  -9   7   26.60    6.60
   2  -9  -7   24.80    9.30
   2  -9  -7   28.10    7.70
  -2  -9   7   31.90    7.10
   2   9  -6   -0.90    4.00
  -2   9   6   -1.60    6.00
  -2   9   6    5.60    7.70
  -2   9   6   -3.20    6.70
   2   9  -6    2.70    4.20
  -2  -9   6    3.70    4.50
  -2  -9   6   -0.60    4.50
   2  -9  -6    1.00    6.80
  -2  -9   6    1.90    4.80
   2  -9  -6   -6.30    6.90
  -2   9   5   46.20    7.10
   2   9  -5   50.49    6.00
   2   9  -5   40.00    5.60
  -2   9   5   47.60    7.10
  -2   9   5   38.90    6.30
   2  -9  -5   54.99    7.70
  -2  -9   5   50.19    6.60
  -2  -9   5   49.70    6.50
   2  -9  -5   43.10    7.20
  -2  -9   5   48.20    6.20
  -2   9   4  295.47   15.10
  -2   9   4  296.47   14.40
  -2   9   4  249.28   14.40
   2   9  -4  278.67   12.80
   2   9  -4  270.27   14.20
  -2   9   4  281.07   14.80
   2   9  -4  281.07   13.10
   2  -9  -4  287.87   14.80
  -2  -9   4  273.57   12.90
  -2  -9   4  276.77   13.20
   2  -9  -4  274.97   14.80
  -2  -9   4  273.17   14.40
   2   9  -3    3.80    2.10
   2   9  -3    7.90    3.30
  -2   9   3    2.80    3.70
  -2   9   3    4.70    3.10
   2   9  -3    4.30    2.60
  -2   9   3    1.30    4.00
  -2  -9   3    1.80    2.20
   2  -9  -3    2.30    4.50
   2  -9  -3    3.60    4.60
   2  -9  -3    3.50    3.70
  -2  -9   3    5.70    3.50
  -2  -9   3    3.10    2.80
  -2   9   2  347.87   16.00
   2   9  -2  331.17   15.60
   2   9  -2  351.26   14.60
   2   9  -2  334.97   14.30
  -2   9   2  319.57   14.90
  -2   9   2  358.96   15.40
  -2   9   2  350.06   16.20
  -2   9   2  348.87   16.00
  -2  -9   2  310.87   15.80
  -2  -9   2  323.87   14.80
   2  -9  -2  331.97   16.00
   2  -9  -2  365.66   16.50
  -2  -9   2  342.87   14.50
   2  -9  -2  350.86   15.60
   2  -9  -2  355.96   16.20
   2   9  -1   57.29    3.70
  -2   9   1   48.50    6.00
   2   9  -1   48.00    5.20
  -2   9   1   53.49    4.80
  -2   9   1   53.89    5.70
   2   9  -1   55.09    3.90
  -2   9   1   50.69    5.80
  -2   9   1   61.49    5.00
   2  -9  -1   52.99    5.70
   2  -9  -1   49.30    5.10
  -2  -9   1   49.30    5.60
   2  -9  -1   49.40    6.30
  -2  -9   1   55.09    4.20
   2  -9  -1   50.39    5.80
  -2  -9   1   52.89    4.20
   2   9   0   69.59    6.10
   2   9   0   66.89    4.90
  -2   9   0   67.29    4.90
  -2   9   0   67.29    6.30
  -2   9   0   70.99    6.10
  -2   9   0   62.09    6.70
   2  -9   0   84.09    6.90
  -2  -9   0   65.89    4.50
   2  -9   0   68.69    5.10
  -2  -9   0   69.49    5.70
  -2  -9   0   66.49    5.20
   2  -9   0   67.79    6.30
   2  -9   0   68.59    6.60
  -2  -9   0   69.29    6.00
   2   9   1   67.19    6.70
  -2   9  -1   77.39    6.20
   2   9   1   78.59    5.10
  -2   9  -1   73.89    5.00
  -2   9  -1   70.09    7.40
  -2   9  -1   86.59    6.80
   2   9   1   80.59    4.90
   2  -9   1   72.19    5.00
   2  -9   1   78.69    7.20
   2  -9   1   77.69    4.90
  -2  -9  -1   73.89    6.20
   2  -9   1   78.79    6.80
  -2  -9  -1   75.79    5.00
  -2  -9  -1   69.39    5.10
  -2  -9  -1   70.69    6.10
   2  -9   1   64.39    6.60
  -2   9  -2  699.83   32.30
  -2   9  -2  781.32   31.50
   2   9   2  755.72   32.00
  -2   9  -2  708.53   32.00
   2   9   2  806.92   31.00
   2   9   2  798.02   31.10
   2  -9   2  726.73   32.10
   2  -9   2  773.12   30.60
  -2  -9  -2  785.72   31.00
   2  -9   2  693.53   32.20
   2  -9   2  791.72   30.80
  -2  -9  -2  775.92   31.00
  -2  -9  -2  801.42   31.70
  -2  -9  -2  816.32   31.60
  -2   9  -3    1.20    4.00
  -2   9  -3    6.20    4.00
  -2   9  -3    1.40    3.00
   2   9   3    2.70    3.00
   2   9   3    4.90    3.50
   2   9   3    3.50    2.90
   2  -9   3    4.40    4.30
  -2  -9  -3    0.90    3.50
   2  -9   3    4.80    2.20
   2  -9   3    8.80    4.30
   2  -9   3    6.70    2.70
  -2  -9  -3    8.70    3.20
  -2  -9  -3    3.90    3.40
   2   9   4  183.68   10.40
  -2   9  -4  186.88   11.20
  -2   9  -4  185.28   11.30
   2   9   4  176.78   10.60
  -2   9  -4  173.88   10.50
   2   9   4  186.18   10.40
  -2  -9  -4  177.18   11.00
   2  -9   4  171.78   11.20
  -2  -9  -4  185.28   10.60
   2  -9   4  181.08    8.60
   2  -9   4  177.08   11.40
  -2  -9  -4  171.08   10.30
  -2   9  -5    3.70    5.30
  -2   9  -5    0.60    4.80
   2   9   5    8.80    5.00
   2   9   5    2.70    5.10
  -2   9  -5    6.20    4.00
  -2  -9  -5    0.70    4.80
  -2  -9  -5   -4.20    4.80
   2  -9   5    4.60    5.30
   2  -9   5    9.30    5.40
   2  -9   5    5.70    2.70
  -2   9  -6   33.40    7.10
   2   9   6   26.00    7.10
   2   9   6   26.40    6.40
  -2   9  -6   28.20    6.50
   2   9   6   19.20    6.60
  -2   9  -6   31.30    5.70
  -2  -9  -6   25.40    7.30
   2  -9   6   25.50    7.30
   2  -9   6   19.90    6.40
   2  -9   6   25.70    3.90
   2   9   7   11.40    8.10
   2   9   7   -8.70    7.20
  -2   9  -7   14.10    6.10
  -2   9  -7    6.90    7.90
  -2   9  -7   15.70    6.90
   2   9   7   -4.80    7.70
   2  -9   7    0.70    6.70
   2  -9   7   -2.80    6.60
   2  -9   7   10.50    4.00
  -2  -9  -7    8.40    8.00
  -2  -9  -7    5.20    8.30
   2  10  -7   15.20    6.70
   2  10  -7   24.70    6.30
  -2  10   7   10.80    9.50
  -2  10   7   28.90   10.30
   2  10  -7   13.80    5.90
   2 -10  -7    7.40   10.00
  -2 -10   7   23.90    6.60
  -2 -10   7   21.50    6.30
  -2 -10   7   22.50    7.10
   2 -10  -7   44.40   10.40
   2  10  -6    1.70    5.20
  -2  10   6    2.20    6.40
  -2  10   6    4.40    7.20
   2  10  -6    4.10    4.50
   2  10  -6   -0.60    4.40
  -2  10   6    7.20    7.30
  -2 -10   6   -7.20    4.90
  -2 -10   6    8.10    5.10
   2 -10  -6    0.20    7.30
   2 -10  -6    3.50    7.60
  -2 -10   6   -3.10    4.70
   2 -10  -6    2.10    7.60
  -2  10   5   92.09   10.80
   2  10  -5   94.19    7.50
   2  10  -5   88.99    9.20
  -2  10   5  103.89   10.30
  -2  10   5   95.19   10.20
   2  10  -5   92.49    7.20
  -2 -10   5   82.29    7.90
   2 -10  -5   78.69    9.80
   2 -10  -5   90.89   10.80
  -2 -10   5   83.09    8.30
  -2  10   4   26.40    6.00
   2  10  -4   24.60    4.30
  -2  10   4   24.60    6.10
   2  10  -4   24.40    4.40
  -2  10   4   27.40    5.00
  -2  10   4   20.30    5.90
   2  10  -4   30.60    4.60
  -2 -10   4   31.50    5.60
  -2 -10   4   35.60    4.40
  -2 -10   4   35.30    5.60
   2 -10  -4   34.70    6.30
   2 -10  -4   26.00    6.30
  -2  10   3  470.85   21.00
   2  10  -3  450.05   20.40
  -2  10   3  438.96   20.70
  -2  10   3  470.45   20.10
   2  10  -3  431.66   19.20
   2  10  -3  459.85   18.90
  -2 -10   3  371.66   20.20
   2 -10  -3  473.75   20.80
   2 -10  -3  499.15   21.30
   2 -10  -3  452.65   20.70
  -2 -10   3  457.65   19.10
  -2 -10   3  414.46   19.30
  -2  10   2   81.69    7.70
  -2  10   2   95.99    6.70
  -2  10   2   96.19    7.80
   2  10  -2   92.29    5.60
   2  10  -2   88.49    7.30
   2  10  -2   90.29    5.40
  -2  10   2   76.79    7.80
  -2 -10   2   92.09    5.70
  -2 -10   2   91.39    6.20
   2 -10  -2   96.99    8.00
  -2 -10   2   78.49    7.20
   2 -10  -2   85.99    7.60
   2 -10  -2   83.39    8.30
   2 -10  -2   93.69    7.10
   2  10  -1   52.49    4.20
  -2  10   1   56.19    5.50
  -2  10   1   42.50    6.30
  -2  10   1   46.90    6.60
   2  10  -1   53.19    3.30
  -2  10   1   54.29    6.30
  -2  10   1   51.69    5.10
   2  10  -1   59.59    4.10
   2  10  -1   51.89    5.70
  -2 -10   1   51.09    4.60
  -2 -10   1   49.20    6.30
   2 -10  -1   47.00    6.30
  -2 -10   1   55.89    4.70
   2 -10  -1   51.59    5.40
   2 -10  -1   48.90    6.40
   2 -10  -1   55.89    7.10
  -2  10   0   20.80    3.10
  -2  10   0   18.80    4.00
   2  10   0   19.00    3.20
  -2  10   0   18.20    4.50
  -2  10   0   15.30    4.60
   2  10   0   22.10    4.00
  -2 -10   0   15.20    2.90
  -2 -10   0   18.40    3.60
   2 -10   0   18.60    4.60
   2 -10   0   13.30    3.40
  -2 -10   0   19.70    3.70
   2 -10   0   20.40    4.80
  -2 -10   0   17.70    4.10
   2 -10   0   13.90    3.00
  -2  10  -1  610.44   25.70
  -2  10  -1  659.83   27.80
   2  10   1  656.83   25.80
  -2  10  -1  620.04   26.60
   2  10   1  625.84   26.00
  -2  10  -1  638.64   27.10
   2  10   1  651.83   27.20
  -2 -10  -1  621.84   25.70
   2 -10   1  636.74   27.10
   2 -10   1  655.53   27.40
   2 -10   1  630.14   25.70
  -2 -10  -1  612.54   26.40
   2 -10   1  549.95   27.20
   2 -10   1  638.24   25.70
  -2 -10  -1  666.03   26.70
  -2 -10  -1  625.74   26.00
  -2  10  -2    3.60    3.90
  -2  10  -2   -1.50    4.30
   2  10   2    0.80    3.60
  -2  10  -2    7.50    3.40
   2  10   2    2.60    2.80
   2  10   2   -0.10    2.70
  -2 -10  -2    5.70    3.40
   2 -10   2   -2.40    3.90
   2 -10   2    2.90    2.20
  -2 -10  -2    3.70    3.60
  -2 -10  -2    0.30    2.90
   2 -10   2    5.00    4.10
   2 -10   2    5.80    2.50
  -2 -10  -2    3.00    3.00
   2  10   3  421.96   18.50
   2  10   3  429.96   19.50
  -2  10  -3  396.66   19.60
   2  10   3  368.46   18.30
  -2  10  -3  426.46   19.00
  -2  10  -3  444.66   20.10
   2 -10   3  405.46   19.70
  -2 -10  -3  437.76   18.60
  -2 -10  -3  419.86   19.20
   2 -10   3  416.56   17.30
   2 -10   3  392.96   19.80
  -2 -10  -3  418.76   18.40
   2 -10   3  443.56   18.10
   2  10   4   -4.40    3.50
   2  10   4   -0.70    4.00
  -2  10  -4    1.50    3.80
  -2  10  -4    0.90    4.70
   2  10   4    1.90    3.90
  -2  10  -4    3.80    4.40
   2 -10   4    3.80    4.90
   2 -10   4    4.80    3.40
   2 -10   4   -1.20    2.20
  -2 -10  -4   -0.80    4.00
  -2 -10  -4    3.10    4.60
  -2 -10  -4   -5.20    3.90
  -2  10  -5   -0.80    5.20
  -2  10  -5    0.60    4.20
  -2  10  -5    3.10    5.30
   2  10   5   -2.80    4.70
   2  10   5    6.00    5.10
   2  10   5    1.20    4.90
   2 -10   5    0.70    2.50
  -2 -10  -5   11.20    5.50
  -2 -10  -5    7.00    5.70
   2 -10   5    1.60    5.90
  -2 -10  -5    0.60    5.60
  -2  10  -6    6.00    4.90
  -2  10  -6   -5.50    6.20
  -2  10  -6   -4.40    5.60
   2  10   6    0.10    6.30
   2  10   6    0.30    6.60
   2  10   6   -7.60    6.90
  -2 -10  -6   -7.20    6.40
  -2 -10  -6    3.40    7.20
   2 -10   6    1.10    3.00
  -2 -10  -6   -6.70    6.60
   2 -10   6   -6.40    5.90
   2 -10   6   -5.10    6.20
   2  11  -6   -0.80    5.00
   2  11  -6    3.20    5.00
  -2  11   6   -0.30    8.20
   2  11  -6   -3.50    6.10
  -2  11   6  -10.10    6.40
  -2  11   6    2.70    8.40
   2 -11  -6    2.80    8.00
  -2 -11   6   -0.10    4.30
  -2 -11   6    1.90    5.60
   2 -11  -6   14.30    8.20
   2 -11  -6   -4.70    7.80
  -2 -11   6    5.90    5.50
  -2  11   5    9.60    6.90
  -2  11   5    9.10    6.90
   2  11  -5   -1.80    3.60
   2  11  -5    1.40    4.10
   2  11  -5    4.80    4.50
  -2  11   5    6.60    5.70
  -2 -11   5    3.90    4.60
  -2 -11   5    2.00    4.40
   2 -11  -5    4.00    7.40
   2 -11  -5    3.10    6.50
   2 -11  -5  -12.20    6.50
  -2  11   4  286.87   14.70
  -2  11   4  284.77   16.00
   2  11  -4  268.17   14.70
  -2  11   4  258.97   15.40
   2  11  -4  274.17   12.90
   2  11  -4  248.48   13.40
  -2  11   4  270.77   15.70
  -2 -11   4  287.87   13.50
  -2 -11   4  264.67   13.70
   2 -11  -4  286.87   15.90
   2 -11  -4  294.47   16.00
  -2 -11   4  255.27   14.70
  -2  11   3   -2.80    3.30
   2  11  -3   -1.00    2.40
   2  11  -3   -0.10    3.60
  -2  11   3   -3.20    4.90
  -2  11   3   -1.50    4.10
   2  11  -3    1.00    2.90
  -2 -11   3   -1.60    3.20
   2 -11  -3   -2.70    5.40
  -2 -11   3   -1.40    2.80
   2 -11  -3    1.20    4.50
  -2 -11   3    1.50    3.90
   2 -11  -3   -1.20    5.20
   2  11  -2  293.57   15.10
  -2  11   2  312.57   14.50
  -2  11   2  318.67   15.50
  -2  11   2  319.37   15.60
   2  11  -2  312.77   13.60
   2  11  -2  299.97   13.40
  -2  11   2  299.17   15.60
   2 -11  -2  306.67   15.50
   2 -11  -2  293.17   15.70
  -2 -11   2  303.77   13.90
  -2 -11   2  309.47   13.70
  -2 -11   2  273.97   15.30
   2 -11  -2  317.47   16.00
  -2  11   1   25.00    5.20
  -2  11   1   27.10    5.00
  -2  11   1   28.30    4.80
  -2  11   1   27.20    3.70
   2  11  -1   24.00    2.60
   2  11  -1   26.90    3.30
   2  11  -1   26.50    3.40
   2  11  -1   27.50    4.50
   2 -11  -1   32.20    4.30
  -2 -11   1   26.70    3.50
   2 -11  -1   32.40    5.20
   2 -11  -1   26.20    5.50
  -2 -11   1   31.00    4.50
   2 -11  -1   23.40    5.30
  -2 -11   1   16.80    4.40
  -2  11   0   30.90    4.40
  -2  11   0   27.00    5.50
   2  11   0   33.40    4.10
  -2  11   0   16.50    4.10
  -2  11   0   24.00    5.10
   2  11   0   25.70    3.50
   2  11   0   27.10    4.70
  -2 -11   0   35.10    4.50
  -2 -11   0   34.70    4.90
   2 -11   0   28.50    5.50
   2 -11   0   17.50    4.20
   2 -11   0   27.70    5.30
  -2 -11   0   27.00    4.20
  -2 -11   0   36.10    5.00
   2 -11   0   30.50    3.90
  -2  11  -1   12.20    2.80
   2  11   1   12.50    3.30
  -2  11  -1   15.40    4.60
   2  11   1   13.10    3.10
   2  11   1    9.40    2.80
  -2  11  -1    6.60    3.70
   2  11   1    4.80    4.00
  -2  11  -1    4.70    5.00
   2 -11   1   14.50    2.90
  -2 -11  -1   11.70    4.00
  -2 -11  -1    9.70    3.90
   2 -11   1   14.50    5.10
   2 -11   1    4.40    3.90
   2 -11   1   12.30    4.70
  -2 -11  -1   15.00    3.70
   2 -11   1   11.60    2.80
  -2 -11  -1   14.60    3.20
   2  11   2  271.97   15.40
  -2  11  -2  256.77   15.60
  -2  11  -2  259.57   14.50
   2  11   2  294.47   13.80
  -2  11  -2  289.27   15.30
   2  11   2  310.07   13.80
   2  11   2  311.37   14.10
  -2 -11  -2  296.87   14.80
  -2 -11  -2  309.07   13.80
   2 -11   2  308.97   15.40
  -2 -11  -2  296.67   14.20
  -2 -11  -2  294.77   13.90
   2 -11   2  304.47   13.40
   2 -11   2  306.37   13.00
  -2  11  -3    7.10    4.60
  -2  11  -3   -0.60    4.90
   2  11   3    3.90    4.10
   2  11   3    2.90    3.50
  -2  11  -3    2.60    3.60
   2  11   3    1.90    3.50
   2  11   3    2.40    3.60
   2 -11   3    5.00    4.80
  -2 -11  -3    8.60    4.40
   2 -11   3    5.10    2.20
  -2 -11  -3    4.80    3.80
  -2 -11  -3   -0.70    3.70
   2 -11   3    6.40    3.10
   2  11   4   68.69    7.90
  -2  11  -4   69.99    9.30
  -2  11  -4   61.49    8.20
   2  11   4   72.79    8.50
  -2  11  -4   74.99    9.10
   2  11   4   67.99    7.00
   2  11   4   45.50    6.50
  -2 -11  -4   68.49    9.00
  -2 -11  -4   73.69    7.80
   2 -11   4   68.19    6.30
   2 -11   4   72.49    9.40
   2 -11   4   67.89    4.60
   2  11   5   -1.00    5.10
   2  11   5    7.10    5.90
  -2  11  -5    0.70    4.50
  -2  11  -5    7.30    6.10
   2  11   5   -8.70    5.40
   2  11   5   -6.80    5.20
  -2  11  -5    3.70    6.50
   2 -11   5   -1.50    6.20
   2 -11   5   -4.80    6.10
  -2 -11  -5    2.80    6.00
  -2 -11  -5   -9.00    5.60
   2 -11   5   -0.70    2.30
   2 -11   5    4.10    4.40
  -2  11  -6   -4.20    5.50
   2  11   6   10.10    7.30
   2  11   6    7.80    6.60
  -2  11  -6   -1.70    6.90
   2  11   6   -0.10    6.80
  -2  11  -6   -1.40    6.50
   2 -11   6    2.60    6.80
   2 -11   6    1.40    4.40
  -2 -11  -6   10.80    7.30
   2 -11   6    0.70    2.60
  -2 -11  -6   -4.90    7.30
  -2 -11  -6    6.90    7.70
   2 -11   6   -0.10    7.50
  -2  12   6    5.80    8.80
   2  12  -6    0.60    6.30
   2  12  -6   -0.80    4.90
  -2  12   6   -7.50    9.40
  -2  12   6   -5.60    9.60
   2  12  -6   -2.80    5.50
  -2 -12   6   -2.80    5.70
   2 -12  -6    3.90    9.50
  -2 -12   6   -0.10    4.90
  -2 -12   6  -11.20    5.80
   2 -12  -6   -8.80    9.00
  -2  12   5   92.09   11.70
   2  12  -5   82.39    7.80
  -2  12   5   83.49   10.90
  -2  12   5   84.39   10.30
   2  12  -5   89.19    8.60
   2  12  -5   67.39    8.10
   2 -12  -5   73.29   11.30
   2 -12  -5   83.69   10.10
   2 -12  -5  110.39   12.50
  -2 -12   5   78.59    8.70
  -2 -12   5   81.19    8.70
  -2 -12   5   84.39    9.10
  -2  12   4    2.50    6.50
  -2  12   4   -3.10    6.50
  -2  12   4    2.10    4.60
   2  12  -4   -2.00    4.20
   2  12  -4   -1.20    3.70
  -2  12   4   -4.10    5.30
   2  12  -4    1.30    3.10
   2 -12  -4    7.20    6.60
  -2 -12   4    2.30    4.20
  -2 -12   4   -3.00    4.00
   2 -12  -4    6.30    7.00
   2 -12  -4   -1.70    6.70
   2  12  -3  397.76   17.60
   2  12  -3  395.86   19.10
  -2  12   3  422.96   20.20
  -2  12   3  402.96   18.60
  -2  12   3  381.36   19.50
   2  12  -3  395.16   17.20
   2 -12  -3  432.06   20.30
  -2 -12   3  375.96   17.80
   2 -12  -3  417.36   20.10
   2 -12  -3  362.36   19.70
  -2 -12   3  393.46   17.60
  -2 -12   3  374.66   19.10
  -2  12   2   10.10    4.60
  -2  12   2    0.20    4.40
  -2  12   2    4.90    3.30
   2  12  -2    7.60    3.10
  -2  12   2   -0.60    4.90
   2  12  -2    5.30    3.90
   2  12  -2    7.60    2.70
   2 -12  -2    3.20    5.40
  -2 -12   2    7.30    3.30
   2 -12  -2   -4.50    5.10
  -2 -12   2    9.30    3.10
  -2 -12   2   -0.80    4.20
   2 -12  -2    3.00    4.20
   2  12  -1   40.60    4.70
   2  12  -1   45.20    3.40
  -2  12   1   51.39    7.60
   2  12  -1   52.69    4.90
  -2  12   1   54.99    6.30
  -2  12   1   46.10    6.40
  -2  12   1   49.40    5.70
   2  12  -1   48.20    7.00
  -2 -12   1   51.69    5.30
   2 -12  -1   53.29    7.00
  -2 -12   1   32.40    5.50
   2 -12  -1   52.59    6.20
  -2 -12   1   49.50    5.60
  -2  12   0   -3.40    3.70
   2  12   0    2.50    3.70
   2  12   0   -0.20    3.10
   2  12   0    2.30    2.30
  -2  12   0   -0.50    5.10
  -2  12   0    3.90    2.70
  -2  12   0    2.40    4.20
  -2 -12   0    0.70    2.80
   2 -12   0    2.30    3.70
  -2 -12   0    2.10    3.30
   2 -12   0    2.10    4.70
  -2 -12   0    4.30    3.70
  -2 -12   0    0.30    4.10
   2 -12   0    3.30    3.10
   2  12   1  112.39    7.20
   2  12   1  112.89    9.70
  -2  12  -1  106.39    7.00
  -2  12  -1  112.49    9.00
   2  12   1  112.29    7.80
   2  12   1  124.79    7.60
  -2  12  -1  114.99   10.30
  -2  12  -1  109.89    9.00
   2 -12   1  115.49    9.70
  -2 -12  -1  130.39    9.30
  -2 -12  -1  119.99    7.80
  -2 -12  -1  130.19    7.60
   2 -12   1  117.09   10.00
  -2 -12  -1  108.69    8.30
   2 -12   1  120.69    7.20
   2  12   2    0.70    3.40
  -2  12  -2    2.30    5.20
  -2  12  -2    0.10    3.70
   2  12   2   -0.60    3.30
   2  12   2    1.20    4.30
  -2  12  -2    1.70    4.30
   2  12   2   -0.40    3.40
  -2 -12  -2   -0.60    3.90
   2 -12   2   -0.60    2.80
  -2 -12  -2   -1.00    3.50
   2 -12   2   -0.50    4.40
  -2 -12  -2   -3.00    3.60
  -2 -12  -2    1.20    4.30
   2 -12   2    0.70    2.50
   2  12   3  275.37   16.10
   2  12   3  313.57   15.10
   2  12   3  318.87   14.90
  -2  12  -3  304.17   15.80
   2  12   3  297.07   15.30
  -2  12  -3  290.77   16.40
  -2  12  -3  300.77   17.10
   2 -12   3  327.47   13.20
   2 -12   3  295.47   14.30
  -2 -12  -3  303.07   14.90
   2 -12   3  305.97   16.80
  -2 -12  -3  316.77   15.20
  -2  12  -4   -1.00    4.50
   2  12   4    3.20    5.50
   2  12   4    0.60    4.20
  -2  12  -4    3.60    6.00
   2  12   4    0.40    5.10
   2  12   4    0.90    4.70
  -2  12  -4   -4.60    5.10
   2 -12   4   10.70    6.30
   2 -12   4    5.60    2.30
   2 -12   4    3.20    3.90
  -2 -12  -4   10.00    5.20
  -2 -12  -4    6.10    5.50
  -2  12  -5    0.50    6.30
  -2  12  -5    0.20    6.70
   2  12   5    7.60    6.00
   2  12   5    6.70    6.70
   2  12   5    5.10    6.10
  -2  12  -5   10.00    5.70
   2  12   5    3.70    5.80
  -2 -12  -5   21.60    7.00
  -2 -12  -5   13.20    6.60
   2 -12   5   13.20    7.40
   2 -12   5    2.30    4.50
   2 -12   5   15.90    7.30
  -2 -12  -5   12.10    6.80
   2  12   6   -4.40    7.90
  -2  12  -6    9.70    6.20
  -2  12  -6   -8.80    7.00
   2  12   6   -3.20    7.30
   2  12   6   -2.50    7.40
  -2  12  -6   -7.90    7.60
   2 -12   6   -1.20    4.60
  -2 -12  -6  -15.40    8.20
  -2 -12  -6    7.80    8.80
   2 -12   6    5.70    8.00
  -2  13   5   16.10    8.40
   2  13  -5   14.60    5.00
  -2  13   5   22.90    8.10
   2  13  -5   20.20    6.60
  -2  13   5   17.50    9.20
   2  13  -5    9.40    5.20
  -2  13   5   21.80    7.10
  -2 -13   5   16.30    5.70
   2 -13  -5   31.90    8.50
  -2 -13   5   10.40    5.00
   2 -13  -5   15.00    8.80
   2 -13  -5   10.60    8.40
  -2  13   4  180.38   14.40
   2  13  -4  187.78   11.20
   2  13  -4  206.78   12.80
  -2  13   4  192.18   13.00
  -2  13   4  204.58   15.30
  -2  13   4  167.98   14.10
   2  13  -4  189.08   10.50
   2 -13  -4  207.38   14.50
   2 -13  -4  192.28   14.70
  -2 -13   4  174.48   12.30
   2 -13  -4  203.88   14.90
  -2 -13   4  178.88   11.30
  -2  13   3    2.90    5.50
   2  13  -3   -4.90    2.80
  -2  13   3    1.70    4.50
   2  13  -3   -3.20    3.20
   2  13  -3   -0.50    4.20
  -2  13   3    5.10    5.90
  -2 -13   3   -0.10    4.50
  -2 -13   3    1.20    4.00
   2 -13  -3    0.70    5.60
   2 -13  -3   -3.70    6.70
  -2 -13   3   -2.00    3.90
   2 -13  -3    5.90    6.90
  -2  13   2  262.57   14.00
  -2  13   2  220.38   13.60
   2  13  -2  237.38   11.10
  -2  13   2  228.28   12.30
   2  13  -2  236.28   11.40
  -2  13   2  215.28   14.30
   2  13  -2  208.08   13.10
   2 -13  -2  226.38   14.60
  -2 -13   2  232.98   11.70
  -2 -13   2  235.08   11.70
   2 -13  -2  211.18   13.70
  -2 -13   2  211.58   13.30
   2  13  -1    1.50    1.70
  -2  13   1    2.50    5.10
  -2  13   1    1.50    3.20
  -2  13   1    3.70    4.20
   2  13  -1   -1.50    3.00
   2  13  -1   -0.60    2.80
  -2  13   1    1.10    5.20
   2  13  -1    2.70    3.90
  -2 -13   1    1.10    4.30
  -2 -13   1    0.20    3.40
  -2 -13   1    0.50    3.00
   2 -13  -1    3.20    4.60
   2 -13  -1    1.40    5.40
  -2  13   0   26.00    6.30
  -2  13   0   15.50    5.20
   2  13   0   23.80    4.80
  -2  13   0   15.90    4.80
  -2  13   0   22.50    3.60
   2  13   0   22.00    3.20
   2  13   0   27.60    4.50
   2 -13   0   15.20    5.80
  -2 -13   0   24.70    4.80
   2 -13   0   14.60    5.00
   2  13   1    4.20    4.60
   2  13   1    0.40    3.60
  -2  13  -1    4.80    2.80
   2  13   1   -1.20    3.70
  -2  13  -1   11.30    5.00
  -2  13  -1    0.30    4.30
  -2  13  -1    5.80    6.10
   2  13   1    2.20    3.20
   2 -13   1   -9.80    5.00
   2 -13   1   -3.40    5.00
  -2 -13  -1    3.80    3.70
  -2 -13  -1    5.00    3.40
  -2 -13  -1    1.60    4.40
   2  13   2  412.16   18.50
  -2  13  -2  379.66   20.70
  -2  13  -2  420.86   19.90
  -2  13  -2  398.96   19.50
   2  13   2  427.86   18.30
   2  13   2  399.16   20.10
   2  13   2  382.06   18.50
   2 -13   2  428.16   20.50
   2 -13   2  380.06   17.80
  -2 -13  -2  419.06   18.40
  -2 -13  -2  374.46   18.30
  -2  13  -3   -5.90    6.10
   2  13   3   -8.90    4.50
  -2  13  -3   -0.40    4.50
  -2  13  -3    0.20    5.40
   2  13   3    7.20    4.50
   2  13   3   -4.60    4.10
   2  13   3   10.50    5.00
  -2 -13  -3    2.10    4.30
  -2 -13  -3   -0.50    7.30
   2 -13   3   10.60    5.60
  -2 -13  -3    1.60    4.40
   2 -13   3   -0.80    3.30
  -2 -13  -3    4.70    5.30
  -2  13  -4   90.29   11.10
   2  13   4  111.99   10.10
   2  13   4  109.49    9.50
   2  13   4  105.19   11.90
  -2  13  -4  114.69   12.30
  -2  13  -4  106.29   10.60
   2  13   4   89.29   10.40
  -2 -13  -4  109.09   12.10
   2 -13   4   99.59   11.90
  -2 -13  -4  113.29   10.10
   2 -13   4   88.09    8.60
   2 -13   4   97.29   12.10
  -2 -13  -4  116.79   11.00
   2  13   5    1.30    6.80
  -2  13  -5    1.90    7.80
   2  13   5   24.70    7.70
  -2  13  -5   10.20    7.00
   2  13   5   17.30    7.30
  -2  13  -5   13.30    6.10
   2  13   5    6.00    6.90
  -2 -13  -5   15.60    7.80
   2 -13   5   10.00    5.00
  -2 -13  -5   12.60    7.20
   2 -13   5   13.70    7.60
  -2 -13  -5   13.80    7.60
   2 -13   5   13.70    7.60
  -2  14   4    4.30    8.30
   2  14  -4    1.90    3.90
  -2  14   4   -4.30    7.10
  -2  14   4   -3.50    5.70
   2  14  -4   10.10    4.60
   2  14  -4   -3.60    5.20
  -2 -14   4    2.20    4.80
   2 -14  -4   -3.20    8.50
   2 -14  -4   -1.10    8.40
  -2 -14   4   -3.20    4.80
   2 -14  -4    1.70    6.60
  -2 -14   4   10.90    5.00
  -2  14   3  158.98   11.30
   2  14  -3  145.89   11.60
   2  14  -3  158.38    9.80
   2  14  -3  141.49    8.90
  -2  14   3  144.89   13.80
  -2  14   3  140.79   13.00
  -2 -14   3  151.08   11.30
   2 -14  -3  164.18   13.80
   2 -14  -3  163.98   14.10
  -2 -14   3  157.38   10.40
   2 -14  -3  137.09   13.30
   2  14  -2   45.20    4.90
   2  14  -2   38.00    6.10
  -2  14   2   49.40    8.40
  -2  14   2   39.70    7.20
  -2  14   2   43.00    5.80
   2  14  -2   37.10    5.90
   2 -14  -2   50.79    8.70
   2 -14  -2   33.20    6.30
  -2 -14   2   47.00    7.10
  -2 -14   2   41.00    5.40
   2 -14  -2   47.50    8.10
  -2  14   1   25.50    6.90
  -2  14   1   24.50    4.50
   2  14  -1   35.80    5.30
   2  14  -1   32.00    3.20
   2  14  -1   36.60    6.20
  -2  14   1   18.10    5.30
  -2  14   1   21.20    6.10
   2 -14  -1   30.50    7.00
   2 -14  -1   23.90    5.90
  -2  14   0   78.69    8.80
   2  14   0   72.49    5.60
  -2  14   0   82.09    9.40
   2  14   0   68.89    9.30
  -2  14   0   62.49    6.60
   2  14   0   75.29    7.10
  -2  14   0   73.69   10.40
   2 -14   0   73.59   10.10
  -2 -14   0   62.79    6.80
   2 -14   0   71.79    9.80
  -2 -14   0   79.09    8.80
   2  14   1  181.08   10.00
   2  14   1  160.48    9.50
  -2  14  -1  145.39   11.90
   2  14   1  177.08   12.60
   2  14   1  164.88   10.60
  -2  14  -1  154.98   12.90
  -2  14  -1  154.48    9.10
  -2  14  -1  169.78   12.10
  -2 -14  -1  174.88   12.60
  -2 -14  -1  179.18   10.00
  -2 -14  -1  179.38    9.90
   2 -14   1  166.98   12.60
   2 -14   1  152.48   13.10
  -2  14  -2    1.90    4.80
   2  14   2   -0.60    3.90
  -2  14  -2    1.10    6.70
   2  14   2    8.10    5.00
  -2  14  -2    4.40    5.00
   2  14   2    0.00    4.80
   2  14   2    0.20    4.20
   2 -14   2    2.90    3.70
   2 -14   2  -11.60    5.80
  -2 -14  -2   11.50    5.90
  -2 -14  -2   11.50    5.70
  -2 -14  -2    2.80    4.30
  -2 -14  -2    3.80    4.40
   2 -14   2   -2.20    9.20
  -2  14  -3  153.88   12.50
  -2  14  -3  150.98   13.80
   2  14   3  171.08   11.10
  -2  14  -3  159.38   12.70
   2  14   3  180.98   11.70
   2  14   3  116.59   13.00
   2  14   3  171.58   11.70
   2 -14   3  133.39   14.60
  -2 -14  -3  156.58   11.10
  -2 -14  -3  158.98   10.70
   2 -14   3  193.18   13.30
   2 -14   3  167.28   10.10
  -2 -14  -3  141.39   11.90
  -2 -14  -3  149.99   13.40
  -2  14  -4   42.90    7.50
   2  14   4   39.70    7.80
  -2  14  -4   41.90    8.60
   2  14   4   51.09    8.30
  -2  14  -4   30.90    7.70
   2  14   4   62.69    9.30
   2 -14   4   25.20    7.70
  -2 -14  -4   66.29    9.90
  -2 -14  -4   46.80    7.80
  -2 -14  -4   57.49    8.80
   2 -14   4   51.89    6.80
  -2 -14  -4   41.40    8.30
   2 -14   4   23.70    8.10
   2  15  -3    2.00    5.60
  -2  15   3    3.20    6.40
  -2  15   3    5.10    5.40
   2  15  -3   -3.20    3.80
  -2  15   3    4.70    8.20
   2  15  -3   12.30    4.60
  -2 -15   3    2.80    5.00
  -2 -15   3    8.20    4.90
   2 -15  -3    1.40    6.80
  -2 -15   3    1.40    5.00
   2 -15  -3   12.50    8.10
   2 -15  -3   -6.70    7.80
  -2  15   2   80.29    8.80
  -2  15   2   66.39    9.40
   2  15  -2   86.49   10.00
   2  15  -2   70.49    6.80
   2  15  -2   71.89    7.50
  -2  15   2   63.49    8.20
  -2 -15   2   80.59    8.40
   2 -15  -2   57.49    9.70
   2 -15  -2   63.19    8.80
   2 -15  -2   91.39   10.90
  -2 -15   2   72.39    8.70
  -2  15   1   20.30    4.60
  -2  15   1   20.90    6.50
   2  15  -1   30.00    3.40
  -2  15   1   32.00    7.80
  -2  15   1   28.80    6.50
   2  15  -1   30.00    4.60
   2  15  -1   32.80    6.70
   2 -15  -1   31.40    7.60
  -2 -15   1   30.50    5.70
   2 -15  -1   37.20    7.60
   2 -15  -1   27.10    7.00
   2  15   0   16.50    3.40
  -2  15   0   14.60    6.40
   2  15   0   20.30    5.90
  -2  15   0   12.00    5.50
  -2  15   0   17.20    7.00
  -2  15   0   19.80    4.50
   2  15   0   11.80    4.60
  -2 -15   0   15.50    4.60
   2 -15   0    9.60    6.80
   2 -15   0   14.10    6.70
  -2 -15   0   18.50    5.90
   2 -15   0   16.20    6.70
   2  15   1   55.69    6.30
  -2  15  -1   42.80    5.00
   2  15   1   41.80    6.30
  -2  15  -1   56.39    8.40
   2  15   1   53.89    7.90
  -2  15  -1   52.59    7.70
  -2  15  -1   31.80    6.70
   2  15   1   34.60    7.20
   2 -15   1   55.49    9.10
  -2 -15  -1   49.90    6.40
  -2 -15  -1   49.60    6.10
   2 -15   1   70.19    9.20
   2 -15   1   42.50    8.20
  -2 -15  -1   40.00    7.90
  -2 -15  -1   49.60    7.60
   2  15   2  168.68   10.70
   2  15   2  157.38   13.50
   2  15   2  148.89   11.60
   2  15   2  141.49   10.30
  -2  15  -2  142.89   12.30
  -2  15  -2  140.19   12.80
  -2  15  -2  163.38   14.30
   2 -15   2  153.08   14.90
  -2 -15  -2  163.18   13.60
  -2 -15  -2  135.59   12.10
   2 -15   2  170.88   13.60
  -2 -15  -2  150.68   10.80
  -2 -15  -2  155.68   10.10
   2  15   3   -3.60    5.40
  -2  15  -3    2.40    6.50
  -2  15  -3    5.70    7.70
   2  15   3    2.60    6.90
   2  15   3    8.00    6.30
  -2  15  -3    4.40    6.30
   2  15   3    5.40    5.60
   2 -15   3    8.60    8.10
  -2 -15  -3    5.90    5.80
  -2 -15  -3   -1.00    5.90
   2 -15   3   -0.40    7.80
   2 -15   3    9.50    5.30
  -2 -15  -3   -1.10    7.00
  -2 -15  -3    3.90    7.40
   2  16  -2   29.00    5.50
  -2  16   2   40.70    9.30
   2  16  -2   31.80    4.70
   2  16  -2   45.20    7.70
  -2  16   2   31.80    6.30
  -2  16   2   20.40    6.70
  -2 -16   2   29.90    6.30
   2 -16  -2   25.90    8.90
   2 -16  -2    8.80   11.00
  -2 -16   2   35.80    6.50
   2 -16  -2   34.30    9.20
  -2  16   1   10.60    6.30
   2  16  -1   14.20    4.60
   2  16  -1   32.20    7.00
  -2  16   1    8.00    4.80
  -2  16   1    5.90    6.90
  -2  16   1   17.00    8.00
   2 -16  -1   14.70    7.70
  -2 -16   1   -1.30    4.80
   2 -16  -1   11.50    7.20
  -2 -16   1    8.00    5.80
   2 -16  -1   11.80    8.20
  -2  16   0  120.49   12.00
   2  16   0  104.49    9.30
   2  16   0  111.29    7.50
  -2  16   0  102.89   12.10
   2  16   0   85.19   12.50
  -2  16   0  109.59    9.10
  -2  16   0  125.79   13.50
   2 -16   0  100.39   12.70
   2 -16   0  127.39   13.60
   2 -16   0  129.89   12.90
  -2 -16   0  121.49   11.40
   2  16   1   62.99    9.50
  -2  16  -1   68.49    8.80
  -2  16  -1   63.39    7.20
   2  16   1   54.39    7.40
   2  16   1   50.79    8.20
  -2  16  -1   65.09   10.30
  -2  16  -1   60.49   10.30
   2  16   1   75.19    8.80
  -2 -16  -1   67.29    9.80
  -2 -16  -1   70.59   11.00
   2 -16   1   70.29   10.00
  -2 -16  -1   54.99    7.00
   2 -16   1   61.99   10.00
   2  16   2   10.80    5.90
   2  16   2   16.20    6.50
  -2  16  -2   21.50    7.20
  -2  16  -2    9.20    6.50
   2  16   2    8.00    5.20
   2  16   2   14.70    7.10
  -2  16  -2   20.30    9.20
  -2 -16  -2   19.90    7.60
   2 -16   2   22.50    8.40
  -2 -16  -2   15.60    6.20
  -2 -16  -2   17.60    8.10
  -2 -16  -2   20.50    5.60
  -3   0   8   25.90    8.60
  -3   0   8   16.20    7.80
   3   0  -8   28.40    7.70
  -3   0   7    1.10    5.90
   3   0  -7    3.00    5.30
  -3   0   7   -0.90    4.50
   3   0  -6    6.80    4.20
  -3   0   6    5.10    3.60
  -3   0   6   15.20    5.10
  -3   0   6    9.30    4.90
  -3   0   5   21.10    3.90
   3   0  -5   15.40    3.70
  -3   0   5   18.60    4.20
   3   0  -4  712.53   28.90
  -3   0   4  693.73   28.90
  -3   0   4  711.23   29.00
   3   0  -4  717.13   29.00
  -3   0   4  711.53   28.90
   3   0  -2  836.02   32.90
  -3   0   2  797.12   32.90
   3   0  -2  848.12   33.00
  -3   0   2  875.01   33.10
   3   0  -2  823.72   33.30
  -3   0   2  817.32   32.90
  -3   0   2  858.21   33.40
   3   0  -1    2.70    1.20
  -3   0   1    2.90    1.30
  -3   0   1    0.80    1.30
   3   0  -1    0.60    1.60
  -3   0   1    2.10    1.50
   3   0   0  477.15   19.00
   3   0   0  447.86   19.20
  -3   0   0  487.85   19.10
  -3   0   0  434.26   19.10
  -3   0   0  499.05   19.70
   3   0   0  484.55   19.50
   3   0   0  493.65   19.20
   3   0   1    0.40    1.20
   3   0   1    3.20    1.80
   3   0   1    4.80    1.50
   3   0   2  908.01   35.60
   3   0   2  887.01   35.60
  -3   0  -2  877.21   35.50
  -3   0  -2  917.51   35.60
  -3   0  -3    3.90    2.60
   3   0   3    5.80    2.50
   3   0   3    1.20    2.20
  -3   0  -4  173.68    9.10
   3   0   4  164.68    9.10
  -3   0  -4  155.18    9.00
   3   0   4  173.68    9.30
  -3   0  -5    1.20    3.70
  -3   0  -5   -1.60    3.90
   3   0   5   -4.10    3.70
   3   0   5    3.00    4.00
   3   0   6  237.48   13.40
  -3   0  -6  245.78   13.60
   3   0   6  204.28   13.00
  -3   0  -6  213.48   13.30
   3   0   7    3.30    6.40
  -3   0  -7    3.80    6.10
   3   0   7    6.40    6.50
  -3   0  -7    7.50    6.30
  -3   0  -7    1.90    5.10
  -3   0  -8  213.68   17.30
   3   0   8  249.48   17.50
   3   0   8  237.38   17.30
  -3   0  -8  268.17   17.10
  -3   1   8   -0.70    7.30
  -3   1   8    8.00    8.20
  -3   1   8   -0.70    6.00
   3   1  -8   20.20    7.00
  -3  -1   8   20.00    8.20
   3  -1  -8    1.90    6.90
   3  -1  -8  -12.70    8.20
  -3  -1   8   18.80    8.00
   3   1  -7    5.40    5.30
  -3   1   7   18.90    6.80
  -3   1   7   26.40    5.50
   3   1  -7   14.50    5.50
  -3  -1   7   19.10    4.90
   3  -1  -7   14.30    6.30
  -3  -1   7   18.90    6.20
  -3  -1   7   19.60    6.30
   3   1  -6   10.30    4.40
  -3   1   6    7.20    4.00
   3   1  -6    3.30    3.80
  -3   1   6    6.10    5.00
   3  -1  -6    5.70    4.60
  -3  -1   6    5.10    4.50
  -3  -1   6    6.40    3.50
  -3  -1   6    2.00    4.50
   3   1  -5  167.28    8.70
   3   1  -5  161.88    9.00
  -3   1   5  170.58    9.40
  -3   1   5  167.98    9.50
   3   1  -5  157.68    9.20
  -3   1   5  144.09    9.40
  -3  -1   5  165.58    9.30
   3  -1  -5  162.58    9.50
  -3  -1   5  165.88    9.00
  -3  -1   5  168.48    9.30
   3  -1  -5  170.08    9.10
   3   1  -4   50.89    4.50
   3  -1  -4   68.09    5.00
   3  -1  -4   65.49    5.10
  -3   1   3 1128.19   44.50
  -3   1   3 1149.69   44.60
   3   1  -3 1125.09   44.40
  -3   1   3 1136.09   44.70
   3   1  -3 1159.38   44.30
  -3  -1   3 1134.09   44.50
   3  -1  -3 1117.19   44.40
   3  -1  -3 1125.19   44.60
  -3  -1   3 1076.39   44.20
  -3  -1   3 1118.09   44.30
   3  -1  -3 1128.29   44.70
   3   1  -2  121.59    6.50
   3   1  -2  117.09    5.90
   3   1  -2  126.79    6.00
  -3   1   2  152.38    6.60
   3  -1  -2  139.09    6.90
  -3  -1   2  137.49    6.70
  -3  -1   2  122.59    6.00
  -3  -1   2  139.79    6.60
  -3  -1   2  120.39    6.10
  -3   1   1  276.17   11.80
  -3   1   1  296.57   11.40
   3   1  -1  268.77   11.20
   3   1  -1  288.07   12.10
   3   1  -1  288.07   12.10
  -3   1   1  262.37   11.70
  -3   1   1  290.47   12.20
   3   1  -1  245.68   11.30
  -3  -1   1  296.17   11.90
   3  -1  -1  286.27   11.80
  -3  -1   1  294.27   12.00
   3  -1  -1  248.58   11.70
   3  -1  -1  294.07   11.50
   3  -1  -1  276.37   12.20
  -3  -1   1  258.47   11.30
  -3   1   0  240.28   10.20
   3   1   0  203.58    9.70
  -3   1   0  251.97   10.50
   3   1   0  232.48   10.50
  -3   1   0  255.67   10.50
  -3   1   0  222.28   10.30
   3   1   0  230.28   10.30
   3   1   0  225.28    9.60
   3  -1   0  228.48   10.30
   3  -1   0  244.78    9.90
   3  -1   0  232.38   10.10
   3  -1   0  234.58    9.40
   3  -1   0  235.58   10.50
  -3  -1   0  234.48    9.60
  -3  -1   0  231.18   10.70
   3   1   1  743.43   30.30
  -3   1  -1  790.82   30.70
  -3   1  -1  770.62   30.70
  -3   1  -1  782.32   30.70
   3   1   1  762.12   30.40
   3  -1   1  746.03   30.70
  -3  -1  -1  804.52   31.00
  -3  -1  -1  768.12   30.40
  -3  -1  -1  790.82   30.40
   3  -1   1  775.42   30.70
   3  -1   1  762.72   30.80
   3   1   2    6.40    1.80
   3   1   2    7.30    2.00
  -3  -1  -2    6.20    2.00
  -3  -1  -2    5.00    1.10
  -3   1  -3  865.31   35.10
   3   1   3  865.51   34.90
  -3   1  -3  841.82   34.90
   3   1   3  852.51   34.80
   3  -1   3  874.51   35.00
   3  -1   3  906.31   35.20
  -3  -1  -3  881.11   35.00
  -3  -1  -3  889.11   34.10
  -3  -1  -3  858.81   34.90
  -3   1  -4    7.40    3.30
  -3   1  -4    7.30    3.40
   3   1   4    6.50    3.20
   3   1   4    7.60    3.20
   3  -1   4    5.40    3.10
   3  -1   4    8.00    3.20
  -3  -1  -4    5.50    2.90
  -3  -1  -4    8.10    2.20
  -3  -1  -4   13.80    3.50
  -3   1  -5   11.70    4.30
   3   1   5    9.30    4.10
   3   1   5   12.30    4.50
  -3   1  -5    3.10    3.80
  -3  -1  -5    6.30    4.70
   3  -1   5   12.50    4.50
  -3  -1  -5   15.10    4.50
   3  -1   5   11.20    4.20
  -3  -1  -5   15.80    3.40
   3   1   6   84.69    8.90
  -3   1  -6   96.69    9.50
   3   1   6   83.59    9.00
  -3   1  -6   68.69    8.70
  -3  -1  -6   90.09    8.90
   3  -1   6   79.19    8.80
  -3  -1  -6   83.09    9.40
   3  -1   6   79.19    9.30
  -3  -1  -6   81.79    7.60
   3   1   7   81.49   10.20
   3   1   7   65.49    9.00
  -3   1  -7   81.79   10.80
  -3   1  -7   91.59   11.20
  -3  -1  -7   90.89   11.10
   3  -1   7   92.69   11.40
  -3  -1  -7   67.89   10.70
   3  -1   7   75.79   10.90
  -3   1  -8   15.70    8.40
   3   1   8   11.30    9.20
   3   1   8    5.90    7.90
  -3   1  -8   -4.00    8.20
  -3  -1  -8    2.40    8.90
  -3  -1  -8   12.50    8.40
   3  -1   8    4.20    8.60
   3  -1   8   14.10    8.90
   3   2  -8   38.50    8.00
   3   2  -8   59.79    8.60
  -3   2   8   53.49    8.00
  -3   2   8   60.29    9.50
  -3  -2   8   42.20    9.10
  -3  -2   8   47.50    8.30
   3  -2  -8   44.80    9.40
   3  -2  -8   43.50   10.40
  -3  -2   8   43.60    7.00
   3   2  -7   12.60    5.10
  -3   2   7    7.20    6.50
   3   2  -7    3.50    4.60
  -3  -2   7    3.60    5.70
  -3  -2   7   10.00    4.50
  -3  -2   7   16.00    6.30
   3  -2  -7    7.30    5.90
  -3   2   6   -3.30    4.80
  -3   2   6    8.40    4.30
   3   2  -6   10.60    4.20
   3   2  -6   15.00    4.40
   3  -2  -6    8.40    5.10
  -3  -2   6   14.10    3.90
  -3  -2   6   14.10    4.50
  -3  -2   6    9.50    4.70
   3  -2  -6    3.20    4.70
   3   2  -5   11.70    3.30
  -3   2   5   17.90    4.10
  -3   2   5    9.00    3.60
  -3   2   5    9.70    3.80
   3  -2  -5    6.60    3.70
   3  -2  -5   10.50    4.00
   3  -2  -5    8.70    3.10
   3  -2  -5    9.10    3.80
  -3   2   4  603.04   24.20
  -3   2   4  583.34   24.20
  -3   2   4  565.94   24.00
   3   2  -4  556.64   23.50
   3   2  -4  576.24   23.50
   3   2  -4  576.04   23.70
   3  -2  -4  574.14   24.00
   3  -2  -4  582.84   24.10
  -3  -2   4  580.94   23.70
   3  -2  -4  570.84   24.10
   3  -2  -4  569.94   24.20
  -3  -2   4  563.24   23.60
  -3  -2   4  572.84   23.60
   3   2  -3    8.70    1.80
  -3   2   2  205.08    9.60
   3   2  -2  198.68    8.60
  -3   2   2  212.38    9.50
   3   2  -2  209.98    9.30
   3   2  -2  212.38    8.70
   3  -2  -2  219.28    9.40
  -3  -2   2  194.38    8.60
  -3  -2   2  180.28    8.90
   3  -2  -2  207.98    9.40
   3  -2  -2  208.58    9.70
  -3  -2   2  214.58    9.40
  -3  -2   2  210.98    9.50
   3  -2  -2  211.08    9.40
   3   2  -1  210.08    8.40
  -3   2   1  200.88    9.40
  -3   2   1  212.18    9.50
  -3   2   1  216.28    9.70
  -3   2   1  212.38    8.60
   3   2  -1  190.48    9.70
   3   2  -1  208.88    9.40
   3  -2  -1  220.58    9.00
   3  -2  -1  210.18    9.40
   3  -2  -1  224.78    9.60
  -3  -2   1  219.98    9.30
   3  -2  -1  200.88    9.60
  -3  -2   1  208.38    9.90
  -3  -2   1  205.28    9.40
  -3  -2   1  179.38    8.40
   3   2   0  207.18    9.70
  -3   2   0  227.78   10.80
  -3   2   0  247.18    9.80
   3   2   0  237.08    9.60
  -3   2   0  243.68   10.80
   3   2   0  230.18    9.80
   3   2   0  240.78   10.50
  -3   2   0  253.07   10.80
  -3   2   0  253.97   10.50
   3   2   0  233.68   11.10
   3  -2   0  236.58   10.60
   3  -2   0  248.08   10.90
   3  -2   0  251.27    9.80
  -3  -2   0  247.28    9.70
   3  -2   0  244.08    9.90
   3  -2   0  249.38   10.80
  -3  -2   0  236.18   11.10
   3   2   1  105.39    4.70
   3   2   1   99.49    5.00
   3   2   1  101.19    5.00
  -3   2  -1  117.09    5.70
  -3   2  -1  106.19    4.70
  -3  -2  -1  115.69    6.30
  -3  -2  -1  103.39    5.10
   3  -2   1  108.09    5.80
   3  -2   1  116.79    6.00
   3  -2   1  113.59    5.80
  -3  -2  -1  103.49    5.10
  -3   2  -2 1539.65   59.39
  -3   2  -2 1476.85   58.29
   3   2   2 1509.85   58.99
  -3   2  -2 1557.24   59.39
   3   2   2 1483.75   58.89
   3  -2   2 1556.54   59.39
  -3  -2  -2 1451.35   58.39
  -3  -2  -2 1497.85   58.89
  -3  -2  -2 1562.84   58.99
   3  -2   2 1503.55   59.39
   3   2   3    7.90    2.50
   3   2   3    9.70    2.60
   3  -2   3    9.20    2.60
  -3  -2  -3    8.60    2.50
  -3  -2  -3    9.50    1.90
   3  -2   3   11.60    2.70
  -3  -2  -3    8.80    2.70
  -3   2  -4  204.98   10.80
  -3   2  -4  215.88   11.10
   3   2   4  212.68   10.80
   3   2   4  213.28   10.90
   3  -2   4  234.98   11.20
   3  -2   4  211.88   10.90
  -3  -2  -4  218.08    9.90
  -3  -2  -4  212.38   10.80
  -3  -2  -4  206.78   10.80
  -3   2  -5   32.70    5.30
   3   2   5   27.80    5.20
  -3   2  -5   28.10    5.10
   3   2   5   31.50    5.20
  -3  -2  -5   26.20    4.50
   3  -2   5   30.30    5.00
  -3  -2  -5   24.70    5.20
   3  -2   5   29.80    5.10
  -3  -2  -5   26.00    3.80
   3   2   6   20.10    6.10
   3   2   6   16.60    5.60
  -3   2  -6   21.80    5.60
  -3   2  -6   16.00    5.70
  -3  -2  -6   21.50    4.70
   3  -2   6   13.70    5.50
   3  -2   6   20.00    5.60
  -3  -2  -6    9.80    5.40
  -3   2  -7    1.80    6.40
  -3   2  -7   12.60    6.80
   3   2   7    0.60    6.30
   3   2   7   14.40    6.90
   3  -2   7    0.90    6.30
   3  -2   7    4.60    6.80
  -3  -2  -7   10.80    7.10
  -3  -2  -7    8.00    5.40
  -3  -2  -7    7.00    6.70
   3   2   8   30.10    9.10
  -3   2  -8   32.70    9.60
   3   2   8   25.80    9.70
  -3   2  -8   34.70    9.90
   3  -2   8   33.70    9.90
   3  -2   8   17.60    9.00
  -3  -2  -8   20.50    9.40
  -3  -2  -8    6.30    8.70
  -3   3   8   16.30    8.40
   3   3  -8   13.50    7.40
  -3   3   8   10.70    8.00
  -3   3   8    6.40    6.90
   3   3  -8    2.30    5.90
  -3  -3   8    1.30    5.40
  -3  -3   8   15.80    8.10
  -3  -3   8    2.30    6.90
   3  -3  -8   -2.60    7.30
   3  -3  -8    9.50    8.50
   3  -3  -8    2.70    7.70
   3   3  -7   17.50    5.20
  -3   3   7   13.60    7.40
   3   3  -7   22.30    5.70
   3  -3  -7   13.30    6.40
  -3  -3   7   18.70    4.70
   3  -3  -7   13.40    6.00
  -3  -3   7   26.00    5.30
  -3  -3   7   20.10    6.10
   3  -3  -7    2.70    7.50
   3   3  -6   39.80    6.30
  -3   3   6   34.60    5.50
   3   3  -6   27.40    4.70
  -3   3   6   33.10    5.70
   3  -3  -6   35.80    5.90
   3  -3  -6   28.30    5.90
  -3  -3   6   41.70    5.60
  -3  -3   6   35.50    5.50
  -3  -3   6   36.50    5.60
   3  -3  -6   39.50    6.20
  -3   3   5  357.26   16.20
   3   3  -5  347.57   15.30
  -3   3   5  344.47   16.00
   3   3  -5  340.17   15.10
  -3   3   5  324.17   15.70
  -3  -3   5  345.07   14.90
   3  -3  -5  308.57   15.70
  -3  -3   5  330.87   15.20
  -3  -3   5  339.67   15.30
   3  -3  -5  324.67   16.00
   3  -3  -5  326.57   16.10
   3  -3  -5  332.97   15.60
   3   3  -4    7.60    2.30
  -3   3   4   13.70    3.40
  -3   3   4    7.10    3.20
   3   3  -4    7.60    2.10
   3   3  -4    7.30    2.50
  -3   3   4    6.00    2.80
   3  -3  -4    8.80    3.00
   3  -3  -4    9.20    3.10
   3  -3  -4   11.00    2.90
   3   3  -3  957.20   39.10
   3   3  -3  972.70   39.20
  -3   3   3 1034.80   40.00
  -3   3   3 1016.10   39.90
   3   3  -3 1011.10   39.20
  -3   3   3 1000.60   40.00
  -3  -3   3  982.90   39.10
   3  -3  -3 1002.30   40.00
  -3  -3   3  991.80   39.90
   3  -3  -3 1010.50   39.90
  -3  -3   3  995.00   39.40
   3  -3  -3 1016.60   39.90
  -3  -3   3  989.00   39.20
   3  -3  -3  988.40   39.90
   3   3  -2   68.39    3.60
  -3   3   2   73.59    4.90
   3   3  -2   70.09    4.40
  -3   3   2   65.79    4.90
  -3   3   2   70.19    5.00
  -3  -3   2   89.19    5.20
  -3  -3   2   76.79    3.70
   3  -3  -2   67.59    4.80
   3  -3  -2   82.39    5.00
   3  -3  -2   69.69    5.10
  -3  -3   2   78.49    4.50
   3  -3  -2   77.89    5.00
  -3   3   1   38.90    3.80
  -3   3   1   37.70    3.70
  -3   3   1   45.30    4.00
   3   3  -1   40.20    3.30
  -3   3   1   41.50    2.30
   3  -3  -1   44.60    3.80
   3  -3  -1   43.80    3.20
  -3  -3   1   42.40    1.90
  -3  -3   1   40.90    4.50
  -3  -3   1   39.50    3.80
   3  -3  -1   38.20    3.90
   3  -3  -1   47.10    4.10
  -3   3   0  116.09    6.30
  -3   3   0  114.39    6.50
   3   3   0  114.29    4.70
  -3   3   0  119.09    6.70
   3   3   0  116.19    5.50
  -3   3   0  122.99    5.90
  -3   3   0  117.89    5.50
   3  -3   0  115.69    6.40
   3  -3   0  114.89    6.30
  -3  -3   0  125.09    4.80
  -3  -3   0  111.69    6.90
   3  -3   0  119.79    5.60
   3  -3   0  115.59    6.60
  -3  -3   0  128.59    6.60
  -3  -3   0  108.79    4.90
   3   3   1  855.01   34.10
  -3   3  -1  851.11   34.20
   3   3   1  905.21   34.20
  -3   3  -1  857.81   35.10
   3   3   1  903.41   34.20
  -3   3  -1  876.21   35.20
  -3   3  -1  861.51   34.50
  -3  -3  -1  869.01   34.10
  -3  -3  -1  922.21   35.30
   3  -3   1  897.11   35.10
   3  -3   1  884.71   35.00
  -3  -3  -1  953.40   34.30
  -3  -3  -1  801.12   34.20
   3  -3   1  841.92   35.10
   3   3   2   43.50    3.50
   3   3   2   39.70    3.50
   3   3   2   49.30    3.00
   3  -3   2   55.79    4.40
   3  -3   2   53.19    4.30
  -3  -3  -2   41.60    3.60
  -3  -3  -2   40.20    3.70
  -3  -3  -2   43.90    3.10
  -3   3  -3  665.13   27.30
   3   3   3  666.43   27.00
   3   3   3  670.43   27.00
  -3   3  -3  658.73   27.40
  -3  -3  -3  680.33   27.00
  -3  -3  -3  643.24   26.30
   3  -3   3  645.94   27.30
  -3  -3  -3  670.33   27.00
   3  -3   3  664.23   27.50
  -3   3  -4   64.69    6.10
   3   3   4   54.89    5.50
   3   3   4   58.89    5.70
  -3   3  -4   76.69    6.20
   3  -3   4   57.69    6.20
  -3  -3  -4   58.59    5.90
  -3  -3  -4   54.49    4.80
  -3  -3  -4   44.40    5.60
   3  -3   4   59.19    5.90
  -3   3  -5   -1.10    4.00
   3   3   5   -2.90    3.70
  -3   3  -5   -1.40    3.80
   3   3   5   -3.90    3.80
  -3  -3  -5   -3.70    4.10
   3  -3   5   -5.20    3.70
  -3  -3  -5    2.20    2.90
   3  -3   5   -4.10    3.80
  -3  -3  -5   -3.60    4.10
  -3   3  -6   -3.60    5.00
   3   3   6    2.50    5.30
  -3   3  -6   12.50    6.00
   3   3   6   12.00    5.30
  -3  -3  -6   10.50    5.30
   3  -3   6   16.40    5.90
   3  -3   6    7.60    5.10
  -3  -3  -6   13.00    4.30
  -3   3  -7  101.69   11.40
   3   3   7  111.79   11.40
   3   3   7   81.39   11.00
  -3   3  -7  104.79   11.60
  -3  -3  -7   96.49   11.40
  -3  -3  -7   78.99    9.60
  -3  -3  -7  102.89   10.90
   3  -3   7  111.59   12.00
   3  -3   7   97.69   11.60
   3   3   8   -7.00    8.70
   3   3   8    1.90    8.50
  -3   3  -8   14.10    9.10
  -3   3  -8   -8.80    8.50
  -3  -3  -8    1.90    8.30
   3  -3   8   -2.70    9.10
  -3  -3  -8  -15.60    8.70
   3  -3   8    1.30    8.50
  -3   4   8   79.69   12.40
   3   4  -8   59.99    8.80
   3   4  -8   76.19   11.10
  -3   4   8   48.50    8.50
  -3   4   8   54.69   10.10
   3  -4  -8   67.69   10.30
  -3  -4   8   52.29    8.80
   3  -4  -8   34.00    9.70
   3  -4  -8   53.89    9.40
  -3  -4   8   41.80    8.20
  -3   4   7   43.20    7.10
  -3   4   7   71.99   11.00
  -3   4   7   41.40    8.00
   3   4  -7   39.20    6.10
   3   4  -7   49.30    7.80
   3  -4  -7   38.00    7.80
  -3  -4   7   55.09    7.20
   3  -4  -7   53.39    8.40
  -3  -4   7   49.30    6.90
   3  -4  -7   57.49    8.50
  -3  -4   7   45.70    7.10
   3   4  -6   39.70    5.90
  -3   4   6   21.50    5.10
   3   4  -6   31.30    4.90
  -3   4   6   37.40    6.60
  -3  -4   6   33.80    5.30
   3  -4  -6   33.60    6.00
   3  -4  -6   35.70    6.50
   3  -4  -6   36.70    6.50
  -3  -4   6   44.00    6.90
  -3  -4   6   52.79    5.70
  -3   4   5  101.19    8.10
   3   4  -5   97.09    6.50
   3   4  -5   94.89    6.60
  -3   4   5   94.29    8.20
  -3   4   5   86.19    8.10
  -3  -4   5   92.59    7.00
   3  -4  -5   84.49    8.20
   3  -4  -5  113.09    8.70
   3  -4  -5  105.19    7.80
  -3  -4   5   91.49    6.60
   3  -4  -5  100.59    8.10
  -3  -4   5   95.09    6.20
   3   4  -4  535.45   21.90
   3   4  -4  530.05   22.20
  -3   4   4  577.14   23.30
  -3   4   4  557.24   23.30
   3   4  -4  536.55   22.20
  -3   4   4  558.54   23.30
  -3  -4   4  551.64   22.40
  -3  -4   4  535.95   22.10
   3  -4  -4  553.04   23.20
  -3  -4   4  519.15   22.20
   3  -4  -4  528.45   23.20
  -3  -4   4  519.95   23.10
   3  -4  -4  529.65   23.20
   3  -4  -4  559.84   23.20
   3   4  -3    0.70    1.50
  -3   4   3    6.00    2.70
   3   4  -3    1.40    1.50
   3   4  -3    1.80    1.50
  -3   4   3    5.20    2.30
  -3  -4   3    1.00    1.70
  -3  -4   3   -1.50    1.70
   3  -4  -3    1.20    2.40
   3  -4  -3    2.00    2.50
   3  -4  -3    3.20    2.30
   3  -4  -3    0.20    2.40
  -3  -4   3    0.90    1.70
  -3  -4   3    2.50    2.30
   3   4  -2  777.12   31.00
   3   4  -2  752.72   30.40
  -3   4   2  793.82   31.70
  -3   4   2  788.72   31.70
  -3   4   2  782.22   31.70
   3  -4  -2  793.72   31.80
  -3  -4   2  792.42   31.70
   3  -4  -2  804.02   31.70
  -3  -4   2  762.12   30.40
   3  -4  -2  796.02   31.40
  -3  -4   2  770.42   30.40
   3  -4  -2  788.92   31.80
  -3   4   1  243.58   11.60
  -3   4   1  268.87   11.10
  -3   4   1  261.87   11.50
   3   4  -1  259.17   11.00
  -3   4   1  250.37   11.70
  -3  -4   1  250.47   11.60
  -3  -4   1  257.67   11.90
   3  -4  -1  258.97   11.60
   3  -4  -1  246.68   11.80
   3  -4  -1  263.27   11.10
   3  -4  -1  231.28   11.40
  -3   4   0  101.59    6.20
  -3   4   0   90.59    6.00
  -3   4   0  100.79    5.00
   3   4   0   97.29    5.00
  -3   4   0   90.79    5.60
   3  -4   0   81.49    5.70
  -3  -4   0   95.99    6.00
   3  -4   0  102.29    5.10
   3  -4   0   96.49    5.90
   3  -4   0   91.09    5.60
  -3  -4   0   84.99    6.20
   3  -4   0   88.69    6.10
   3   4   1  121.39    5.50
  -3   4  -1  124.39    7.10
   3   4   1  124.39    5.60
  -3   4  -1  121.79    6.70
   3   4   1  131.79    6.20
  -3   4  -1  129.79    6.00
  -3   4  -1  122.99    7.20
  -3   4  -1  125.39    6.00
   3  -4   1  118.79    6.00
   3  -4   1  127.29    7.00
   3  -4   1  121.69    6.80
  -3  -4  -1  122.89    7.20
  -3  -4  -1  124.89    5.70
   3  -4   1  118.39    7.00
  -3  -4  -1  128.29    5.80
  -3   4  -2  859.51   34.90
   3   4   2  856.61   33.80
  -3   4  -2  869.91   34.90
  -3   4  -2  853.61   33.90
   3   4   2  872.31   34.10
   3   4   2  864.81   34.10
   3  -4   2  841.22   34.40
  -3  -4  -2  887.51   34.10
   3  -4   2  841.12   34.90
   3  -4   2  854.31   34.90
  -3  -4  -2  844.72   33.90
  -3  -4  -2  897.41   34.20
   3   4   3   73.59    5.20
   3   4   3   70.49    5.20
  -3  -4  -3   65.29    5.20
  -3  -4  -3   67.49    5.20
   3  -4   3   74.79    5.10
   3  -4   3   83.09    6.00
  -3  -4  -3   63.99    4.80
   3  -4   3   78.29    5.90
  -3   4  -4  117.89    7.80
  -3   4  -4  113.89    7.80
   3   4   4  116.29    7.40
   3   4   4  113.79    7.50
   3  -4   4  104.29    7.70
   3  -4   4  109.69    7.80
  -3  -4  -4  100.49    7.40
  -3  -4  -4  112.89    7.60
  -3  -4  -4  104.09    6.60
   3   4   5   87.69    7.80
   3   4   5   90.39    7.80
  -3   4  -5   90.99    8.00
  -3   4  -5   94.89    8.30
   3  -4   5   90.49    8.10
   3  -4   5   92.49    8.10
  -3  -4  -5   92.09    8.00
  -3  -4  -5   93.19    7.00
  -3  -4  -5   79.59    7.90
  -3   4  -6   15.60    5.70
  -3   4  -6   12.20    5.30
   3   4   6   21.70    5.90
   3   4   6   17.40    5.40
  -3  -4  -6   15.10    4.70
  -3  -4  -6    6.80    5.20
   3  -4   6   19.40    5.60
   3  -4   6   24.20    5.90
   3   4   7   11.00    6.50
  -3   4  -7   12.50    7.00
   3   4   7   11.50    7.40
  -3   4  -7   13.10    7.20
  -3  -4  -7    6.30    5.70
   3  -4   7    9.30    6.70
  -3  -4  -7   21.00    6.80
   3  -4   7   15.50    6.90
  -3  -4  -7   21.30    7.40
  -3   4  -8   29.60   10.00
   3   4   8   30.80    9.90
  -3   4  -8   40.60   10.10
   3   4   8   33.60    9.60
   3  -4   8   34.10   10.30
  -3  -4  -8   28.50    8.50
   3  -4   8   19.70    8.90
  -3  -4  -8   37.20    9.30
  -3  -4  -8   31.70    8.90
  -3   5   8   53.99   10.80
   3   5  -8   64.49    9.70
  -3   5   8   40.10    8.40
  -3   5   8   51.09   11.10
   3   5  -8   43.00    8.30
  -3  -5   8   35.80    7.50
   3  -5  -8   28.10    8.30
   3  -5  -8   48.40   10.00
  -3  -5   8   41.20    8.10
   3  -5  -8   42.30   10.40
   3   5  -7    8.20    4.90
   3   5  -7   12.60    4.70
  -3   5   7    5.30    6.00
  -3   5   7   -2.50    6.70
  -3   5   7   15.10    7.70
  -3  -5   7    9.60    6.10
   3  -5  -7    6.30    6.80
  -3  -5   7    4.10    4.90
   3  -5  -7    6.20    7.10
   3  -5  -7   12.80    6.50
  -3  -5   7   -0.70    3.70
  -3   5   6  132.49   11.00
  -3   5   6  118.09   10.50
   3   5  -6  119.99    8.30
   3   5  -6  134.39    8.50
   3  -5  -6  125.99   10.30
  -3  -5   6   92.59    8.70
   3  -5  -6  123.19   10.00
  -3  -5   6  122.79    7.50
  -3  -5   6  112.59    8.30
  -3   5   5   74.19    7.90
  -3   5   5   78.19    7.80
   3   5  -5   82.49    5.90
   3   5  -5   85.99    6.10
  -3   5   5   66.29    8.30
  -3  -5   5   83.89    7.80
  -3  -5   5   79.79    6.40
  -3  -5   5   84.29    6.50
  -3  -5   5   81.29    5.50
   3  -5  -5   90.29    8.00
   3  -5  -5   93.29    7.90
   3  -5  -5   72.29    8.10
   3  -5  -5   80.39    7.70
  -3   5   4   16.60    3.60
  -3   5   4   11.00    4.00
   3   5  -4   13.10    2.60
  -3   5   4   11.40    3.90
   3   5  -4   14.90    2.60
   3   5  -4   18.50    2.70
   3  -5  -4   14.70    3.40
  -3  -5   4    7.40    2.60
   3  -5  -4   12.90    4.00
  -3  -5   4   13.20    2.80
  -3  -5   4   13.20    2.30
   3  -5  -4   12.60    3.60
   3  -5  -4   14.00    4.00
  -3  -5   4   16.20    3.40
   3   5  -3  275.97   11.80
  -3   5   3  293.77   13.50
  -3   5   3  289.27   13.20
   3   5  -3  272.77   11.80
   3   5  -3  279.67   11.80
   3  -5  -3  294.07   13.40
  -3  -5   3  280.67   11.90
   3  -5  -3  285.07   13.10
  -3  -5   3  267.37   13.00
   3  -5  -3  284.47   13.20
   3  -5  -3  290.97   13.30
  -3  -5   3  265.07   11.90
  -3   5   2  207.28   10.00
  -3   5   2  216.38   10.30
  -3   5   2  208.28   10.20
   3   5  -2  189.88    9.00
  -3   5   2  188.08    9.70
   3   5  -2  193.38    8.30
   3  -5  -2  205.58   10.00
  -3  -5   2  193.18   10.00
  -3  -5   2  198.38    8.30
   3  -5  -2  199.98    9.70
  -3  -5   2  205.98    8.40
   3  -5  -2  211.78   10.10
   3  -5  -2  219.38   10.40
  -3   5   1   30.80    4.00
  -3   5   1   28.70    3.70
   3   5  -1   24.80    3.00
  -3   5   1   28.30    3.70
   3   5  -1   32.50    3.20
  -3   5   1   30.30    3.90
   3  -5  -1   34.40    4.00
  -3  -5   1   33.60    4.30
   3  -5  -1   25.90    4.10
   3  -5  -1   26.70    4.00
   3  -5  -1   29.90    3.50
  -3  -5   1   22.20    3.20
  -3   5   0  461.75   18.70
  -3   5   0  465.45   19.70
   3   5   0  455.45   18.70
  -3   5   0  457.35   19.70
  -3   5   0  466.75   19.10
   3  -5   0  462.05   19.80
   3  -5   0  445.36   19.10
  -3  -5   0  442.36   17.60
   3  -5   0  486.05   18.90
   3  -5   0  492.35   18.50
  -3  -5   0  433.66   19.60
   3  -5   0  454.55   19.60
  -3  -5   0  400.46   17.70
  -3  -5   0  461.05   19.60
  -3   5  -1  393.96   18.10
  -3   5  -1  414.76   18.30
   3   5   1  424.36   17.40
   3   5   1  414.16   16.60
  -3   5  -1  425.36   17.60
   3   5   1  433.46   16.60
  -3   5  -1  416.46   17.20
  -3   5  -1  416.26   16.80
   3  -5   1  375.26   17.20
   3  -5   1  400.86   18.10
  -3  -5  -1  436.86   17.00
  -3  -5  -1  424.16   18.10
   3  -5   1  424.56   17.60
   3  -5   1  428.16   18.20
   3   5   2   31.90    3.20
   3   5   2   35.60    3.40
  -3   5  -2   36.90    4.70
   3   5   2   32.10    3.10
  -3   5  -2   34.60    4.90
  -3  -5  -2   33.80    3.60
  -3  -5  -2   33.20    3.40
   3  -5   2   39.50    4.80
  -3  -5  -2   32.40    3.50
   3  -5   2   31.70    4.00
   3  -5   2   32.00    4.50
   3   5   3  278.17   12.50
  -3   5  -3  269.37   13.30
   3   5   3  274.27   12.10
  -3   5  -3  280.67   12.20
  -3   5  -3  292.47   13.40
   3   5   3  283.47   12.60
  -3  -5  -3  278.17   12.60
   3  -5   3  266.67   12.50
   3  -5   3  280.27   13.40
  -3  -5  -3  264.07   12.30
  -3  -5  -3  283.17   12.70
   3  -5   3  281.17   13.30
  -3   5  -4  207.88   10.90
  -3   5  -4  197.78   11.00
   3   5   4  192.78   10.40
   3   5   4  197.98   10.40
  -3   5  -4  199.68    9.60
   3  -5   4  201.08   11.10
   3  -5   4  189.98   10.80
  -3  -5  -4  192.88   10.40
  -3  -5  -4  194.38    9.90
  -3  -5  -4  195.08   10.50
   3  -5   4  200.18    9.90
  -3   5  -5    4.60    4.00
   3   5   5    4.70    4.20
  -3   5  -5    8.30    4.50
   3   5   5   -0.10    4.30
   3  -5   5   11.30    4.50
  -3  -5  -5    7.90    3.60
  -3  -5  -5    2.00    4.20
  -3  -5  -5    1.00    4.10
   3  -5   5   10.80    4.50
   3   5   6   36.60    6.00
  -3   5  -6   34.00    6.40
   3   5   6   38.50    6.50
  -3   5  -6   40.50    6.80
  -3  -5  -6   42.50    6.90
   3  -5   6   41.50    7.00
   3  -5   6   47.00    7.20
  -3  -5  -6   34.60    5.50
  -3   5  -7   74.39   11.10
   3   5   7   91.89   11.10
  -3   5  -7   83.79   11.30
   3   5   7   88.59   10.10
   3  -5   7   56.89    8.70
   3  -5   7   84.99   11.70
  -3  -5  -7   76.19   10.20
  -3  -5  -7   84.49   11.00
  -3  -5  -7   71.59   11.10
  -3   5  -8   -7.40    9.10
   3   5   8   12.30    9.50
   3   5   8   10.20    8.90
  -3   5  -8    9.20    8.50
  -3  -5  -8    4.50    8.30
  -3  -5  -8    4.90    8.10
   3  -5   8    8.30    8.60
   3  -5   8   19.30    9.90
   3   6  -7   49.60    6.80
  -3   6   7   71.79    9.40
  -3   6   7   46.80    8.10
   3   6  -7   57.49    8.30
  -3   6   7   63.89    9.80
   3  -6  -7   62.59    9.40
  -3  -6   7   66.79    8.70
   3  -6  -7   73.89   11.40
  -3  -6   7   63.09    8.80
  -3  -6   7   69.19    9.60
   3  -6  -7   34.40    7.90
  -3   6   6    5.40    6.10
  -3   6   6    5.50    6.00
   3   6  -6    1.30    3.70
   3   6  -6    9.80    3.70
  -3  -6   6    8.80    3.00
   3  -6  -6   -1.50    5.50
   3  -6  -6    6.70    5.90
  -3  -6   6    6.10    4.50
  -3  -6   6    1.20    6.40
  -3  -6   6    3.80    4.00
   3  -6  -6    4.80    5.30
   3   6  -5  166.08    8.70
   3   6  -5  160.98    8.80
  -3   6   5  178.98   11.00
  -3   6   5  165.08   11.00
  -3  -6   5  160.88   10.50
   3  -6  -5  170.98   10.80
   3  -6  -5  152.38   10.80
  -3  -6   5  163.58    9.00
  -3  -6   5  160.78    7.90
   3  -6  -5  154.28   10.60
  -3  -6   5  150.18    8.90
  -3   6   4  200.48   11.80
   3   6  -4  222.18   10.30
  -3   6   4  233.68   11.90
  -3   6   4  233.58   12.30
   3   6  -4  235.48   10.40
  -3  -6   4  236.88   10.60
   3  -6  -4  210.38   11.80
   3  -6  -4  219.58   12.10
  -3  -6   4  225.08   11.80
   3  -6  -4  220.18   11.80
  -3  -6   4  223.18   10.50
   3  -6  -4  241.88   12.00
   3   6  -3   82.99    4.30
  -3   6   3   88.79    6.40
   3   6  -3   84.69    4.60
   3   6  -3   85.39    4.70
  -3   6   3   80.59    6.80
   3  -6  -3   84.99    6.70
  -3  -6   3   83.79    4.80
  -3  -6   3   72.49    6.10
   3  -6  -3   83.89    6.70
   3  -6  -3   90.49    7.00
  -3  -6   3   83.49    6.50
   3  -6  -3   74.39    6.50
  -3   6   2  354.16   15.50
   3   6  -2  331.97   13.30
  -3   6   2  351.76   15.00
   3   6  -2  349.57   14.80
   3   6  -2  290.87   13.40
  -3   6   2  350.76   15.00
  -3   6   2  345.17   15.40
   3   6  -2  313.27   13.90
   3  -6  -2  345.67   15.60
   3  -6  -2  338.87   15.10
   3  -6  -2  338.77   14.90
  -3  -6   2  317.17   13.50
   3  -6  -2  345.37   15.40
  -3  -6   2  346.97   13.50
  -3  -6   2  331.07   15.20
  -3   6   1  777.52   31.10
  -3   6   1  777.22   30.30
   3   6  -1  765.42   29.80
  -3   6   1  770.12   30.50
  -3   6   1  723.73   30.80
   3   6  -1  758.42   30.20
   3  -6  -1  769.82   30.40
   3  -6  -1  693.43   30.70
   3  -6  -1  756.52   30.60
  -3  -6   1  789.42   30.90
   3  -6  -1  694.63   31.10
  -3  -6   1  732.43   30.90
  -3   6   0   -1.40    2.70
  -3   6   0    0.00    3.10
  -3   6   0   -1.80    1.90
  -3   6   0   -1.40    1.80
   3   6   0   -0.40    0.60
   3   6   0    0.10    1.80
  -3  -6   0   -0.90    0.90
   3  -6   0   -0.60    2.80
  -3  -6   0   -5.10    2.60
   3  -6   0   -0.40    1.90
  -3  -6   0    0.80    2.80
   3  -6   0   -1.60    3.00
   3  -6   0    1.00    1.80
  -3  -6   0   -1.20    1.10
  -3   6  -1  329.67   12.80
   3   6   1  295.87   12.80
  -3   6  -1  324.67   13.90
  -3   6  -1  313.67   13.60
  -3   6  -1  297.57   14.80
   3   6   1  336.47   12.90
   3   6   1  306.77   13.90
  -3   6  -1  312.07   14.70
   3  -6   1  283.67   13.60
   3  -6   1  315.57   14.60
  -3  -6  -1  321.37   12.90
   3  -6   1  332.47   12.60
  -3  -6  -1  331.67   13.40
  -3  -6  -1  299.87   14.40
   3  -6   1  299.87   14.60
   3  -6   1  322.67   13.90
  -3   6  -2  239.58   12.50
  -3   6  -2  257.47   12.80
   3   6   2  264.57   11.60
   3   6   2  249.88   11.10
   3   6   2  260.57   11.10
  -3   6  -2  259.97   11.50
  -3  -6  -2  267.57   12.40
  -3  -6  -2  266.57   11.40
  -3  -6  -2  265.77   11.30
   3  -6   2  239.08   12.50
   3  -6   2  243.78   12.60
   3  -6   2  245.08   11.60
   3   6   3   26.50    3.40
  -3   6  -3   33.70    4.80
  -3   6  -3   25.40    4.30
   3   6   3   30.50    3.80
  -3   6  -3   43.10    4.40
   3   6   3   27.90    3.90
  -3  -6  -3   23.00    3.60
   3  -6   3   34.20    4.90
  -3  -6  -3   26.20    3.80
   3  -6   3   30.70    4.30
   3  -6   3   25.90    4.30
  -3  -6  -3   29.10    3.50
   3   6   4  142.19    8.90
  -3   6  -4  152.88    9.70
  -3   6  -4  159.68    8.30
   3   6   4  146.49    8.90
  -3   6  -4  155.08    9.40
   3  -6   4  161.58   10.00
  -3  -6  -4  150.88    9.10
  -3  -6  -4  128.99    8.80
  -3  -6  -4  153.08    8.70
   3  -6   4  147.99    8.10
   3  -6   4  148.59    9.80
  -3   6  -5  188.28   10.20
  -3   6  -5  172.78   11.50
  -3   6  -5  184.98   11.50
   3   6   5  184.28   10.90
   3   6   5  184.18   11.10
   3  -6   5  192.68   11.90
  -3  -6  -5  188.08   11.30
  -3  -6  -5  187.08   10.60
   3  -6   5  187.68    9.90
   3  -6   5  199.98   12.00
  -3  -6  -5  211.58   11.40
   3   6   6   19.60    6.10
  -3   6  -6   16.40    6.10
   3   6   6   12.40    5.40
  -3   6  -6   16.40    5.60
  -3  -6  -6   16.70    5.00
   3  -6   6   14.70    5.90
  -3  -6  -6   12.70    5.70
   3  -6   6   13.70    6.20
   3   6   7   21.00    6.70
   3   6   7   20.40    7.90
  -3   6  -7   30.50    7.60
  -3   6  -7   18.10    6.80
  -3  -6  -7    9.60    7.40
  -3  -6  -7   23.40    8.00
   3  -6   7   23.40    7.70
   3  -6   7   29.20    7.90
  -3   7   7   10.40    7.60
   3   7  -7   -1.00    4.60
  -3   7   7   14.30    8.60
  -3   7   7    2.00    6.70
   3   7  -7    3.30    5.10
  -3  -7   7    0.30    5.30
  -3  -7   7    0.50    5.90
   3  -7  -7    5.10    7.60
  -3  -7   7    3.70    3.30
   3  -7  -7    7.30    7.10
   3  -7  -7   -1.20    8.10
  -3  -7   7    2.60    4.50
  -3   7   6   77.49   10.60
   3   7  -6   79.39    7.30
   3   7  -6   90.19    7.40
  -3   7   6   79.39   10.40
  -3  -7   6   78.59    7.80
   3  -7  -6   89.39   10.30
  -3  -7   6   87.99    9.00
   3  -7  -6   85.09   10.60
   3  -7  -6   63.99   10.00
  -3   7   5   16.10    5.60
  -3   7   5   16.40    5.70
   3   7  -5   15.70    3.50
   3   7  -5   13.10    3.10
   3  -7  -5   16.50    5.60
   3  -7  -5   18.00    5.60
  -3  -7   5   15.70    4.90
  -3  -7   5   11.70    3.30
   3  -7  -5   14.10    5.20
  -3  -7   5   18.00    3.80
  -3   7   4   35.70    4.90
   3   7  -4   36.00    3.90
  -3   7   4   43.90    6.60
  -3   7   4   53.69    6.70
   3   7  -4   35.70    4.10
   3  -7  -4   34.30    5.70
  -3  -7   4   47.60    5.90
   3  -7  -4   41.30    5.80
  -3  -7   4   39.30    4.40
  -3  -7   4   38.10    4.40
   3  -7  -4   37.20    5.40
  -3   7   3   85.29    7.10
   3   7  -3   87.29    5.00
   3   7  -3   91.89    5.00
   3   7  -3   86.49    4.30
  -3   7   3   96.99    6.90
  -3   7   3   87.39    7.50
   3  -7  -3   77.99    7.40
  -3  -7   3   89.29    5.00
   3  -7  -3  100.89    7.50
   3  -7  -3   81.19    7.20
   3  -7  -3   94.39    7.00
  -3  -7   3   77.59    6.80
  -3   7   2  474.45   20.00
  -3   7   2  445.76   19.40
  -3   7   2  482.25   20.10
   3   7  -2  443.56   17.70
   3   7  -2  421.16   17.70
   3   7  -2  431.36   18.10
  -3   7   2  464.35   19.40
   3   7  -2  453.15   19.20
  -3  -7   2  426.76   19.60
  -3  -7   2  393.16   17.90
   3  -7  -2  459.05   19.90
   3  -7  -2  473.25   20.20
   3  -7  -2  468.55   19.60
  -3  -7   2  456.65   17.80
   3  -7  -2  448.56   19.40
  -3   7   1   15.80    2.90
  -3   7   1    9.40    3.60
  -3   7   1    8.10    2.60
  -3   7   1    5.90    3.60
   3   7  -1   12.00    2.20
   3   7  -1    8.00    2.40
  -3  -7   1    4.00    2.90
  -3  -7   1   13.50    1.30
   3  -7  -1   11.40    2.80
   3  -7  -1   12.60    3.00
   3  -7  -1    9.00    3.60
  -3  -7   1   11.60    1.30
   3  -7  -1   13.10    2.40
  -3  -7   1    9.00    3.50
   3  -7  -1    6.20    4.20
   3   7   0  828.92   33.50
   3   7   0  859.61   33.40
  -3   7   0  898.81   35.70
  -3   7   0  858.11   34.80
  -3   7   0  873.81   34.70
   3   7   0  886.51   34.90
  -3   7   0  899.21   35.70
   3  -7   0  913.21   35.80
   3  -7   0  848.32   34.80
  -3  -7   0  826.72   35.30
  -3  -7   0  774.42   33.70
   3  -7   0  914.81   34.90
   3  -7   0  884.81   35.60
  -3  -7   0  837.42   33.50
  -3   7  -1  303.87   14.50
  -3   7  -1  312.67   13.70
   3   7   1  282.57   13.80
  -3   7  -1  303.87   14.80
  -3   7  -1  303.77   13.50
   3   7   1  308.67   12.60
   3   7   1  330.47   12.60
   3  -7   1  271.47   13.60
  -3  -7  -1  309.87   12.60
   3  -7   1  315.37   14.70
  -3  -7  -1  281.27   14.20
   3  -7   1  312.97   14.70
   3  -7   1  301.57   13.50
   3  -7   1  311.37   12.40
  -3  -7  -1  305.77   13.30
   3   7   2   73.09    4.60
  -3   7  -2   66.79    6.90
  -3   7  -2   80.19    5.60
  -3   7  -2   65.69    4.30
   3   7   2   91.79    5.80
  -3   7  -2   62.99    6.40
   3   7   2   66.69    4.70
  -3  -7  -2   76.79    4.90
   3  -7   2   66.59    5.40
  -3  -7  -2   76.59    5.50
   3  -7   2   63.69    6.80
   3  -7   2   65.49    6.70
  -3  -7  -2   83.19    6.50
  -3   7  -3  164.48    8.90
   3   7   3  165.18    8.70
   3   7   3  162.48    8.50
  -3   7  -3  161.48   10.20
  -3   7  -3  161.38    9.90
   3   7   3  165.98    8.60
   3  -7   3  171.88   10.10
  -3  -7  -3  170.88    9.00
  -3  -7  -3  169.38    8.70
   3  -7   3  167.78    8.70
   3  -7   3  151.48   10.10
  -3   7  -4  157.08   10.30
   3   7   4  159.28    9.30
  -3   7  -4  148.89   10.10
  -3   7  -4  171.58    9.10
   3   7   4  161.98    9.20
   3  -7   4  157.08   10.60
   3  -7   4  159.08    8.60
  -3  -7  -4  154.18    9.50
  -3  -7  -4  149.79    9.40
  -3  -7  -4  165.38    9.40
   3  -7   4  172.58   10.70
  -3   7  -5   11.60    3.50
   3   7   5    3.70    4.10
  -3   7  -5    8.00    4.60
  -3   7  -5    7.90    4.70
   3   7   5   10.30    4.60
   3  -7   5    8.90    5.40
  -3  -7  -5    8.90    4.80
   3  -7   5    4.80    4.80
   3  -7   5    7.30    3.30
  -3  -7  -5    5.10    4.30
  -3  -7  -5    8.00    4.60
   3   7   6  139.89   11.00
   3   7   6  112.29    9.80
  -3   7  -6  108.79   11.30
  -3   7  -6  128.59   11.00
  -3   7  -6  117.39    9.10
  -3  -7  -6  113.99   10.60
  -3  -7  -6  100.09   13.90
   3  -7   6  119.49   11.40
  -3  -7  -6  125.39   10.60
   3  -7   6  111.89    8.00
   3  -7   6  122.49   10.80
  -3   7  -7   10.30    7.20
   3   7   7    8.60    7.30
  -3   7  -7   22.40    8.20
   3   7   7    6.60    6.80
  -3  -7  -7   18.00    7.70
  -3  -7  -7   24.60    8.70
   3  -7   7   19.00    8.00
   3  -7   7   16.20    7.10
   3  -7   7    8.00    4.60
   3   8  -7   71.69    8.90
  -3   8   7   57.29    8.50
  -3   8   7   58.79    9.80
  -3   8   7   38.40   10.00
   3   8  -7   40.90    6.50
   3  -8  -7   67.09   10.70
  -3  -8   7   68.59   10.20
  -3  -8   7   47.20    7.30
  -3  -8   7   58.99    8.20
   3  -8  -7   61.39    9.80
  -3   8   6   33.50    7.80
   3   8  -6   45.20    6.30
   3   8  -6   45.80    6.50
  -3   8   6   44.90    8.20
  -3  -8   6   44.70    6.90
   3  -8  -6   40.30    7.90
  -3  -8   6   39.40    6.80
   3  -8  -6   40.90    7.70
   3  -8  -6   38.50    7.60
  -3   8   5   67.09    9.00
   3   8  -5   69.19    6.20
  -3   8   5   71.79    9.50
   3   8  -5   62.69    5.60
   3  -8  -5   58.99    8.70
  -3  -8   5   67.49    8.00
  -3  -8   5   71.49    6.60
   3  -8  -5   73.19    8.40
  -3  -8   5   61.39    6.10
   3  -8  -5   65.09    8.30
  -3   8   4  158.88   10.50
  -3   8   4  157.88    9.90
   3   8  -4  156.98    8.00
  -3   8   4  147.39   10.50
   3   8  -4  150.18    7.70
  -3  -8   4  151.38   10.00
   3  -8  -4  152.88   10.60
   3  -8  -4  157.28   10.20
   3  -8  -4  152.28   10.60
  -3  -8   4  149.09    8.00
  -3  -8   4  137.09    8.10
   3  -8  -4  145.39   10.10
  -3   8   3    0.90    2.90
   3   8  -3    3.40    2.20
   3   8  -3    4.00    2.90
  -3   8   3    2.20    3.60
  -3   8   3    1.30    3.90
   3   8  -3    1.20    2.00
  -3  -8   3    1.80    1.90
   3  -8  -3    1.90    3.10
  -3  -8   3    2.10    3.20
   3  -8  -3    1.30    4.20
   3  -8  -3   -7.20    2.90
   3  -8  -3   -3.80    4.40
  -3   8   2   45.50    5.10
  -3   8   2   40.50    6.50
   3   8  -2   41.60    5.00
   3   8  -2   41.70    3.30
  -3   8   2   40.20    5.30
  -3   8   2   40.30    5.80
   3   8  -2   38.60    2.80
   3   8  -2   44.10    2.90
   3  -8  -2   52.39    6.20
  -3  -8   2   45.90    3.10
   3  -8  -2   42.60    6.20
   3  -8  -2   42.50    5.40
  -3  -8   2   39.10    5.50
  -3  -8   2   35.30    3.10
   3  -8  -2   45.50    5.50
  -3   8   1  663.23   26.40
  -3   8   1  648.54   27.20
   3   8  -1  644.74   26.30
  -3   8   1  618.34   27.00
   3   8  -1  625.94   24.60
  -3   8   1  663.53   26.30
   3  -8  -1  636.94   26.40
  -3  -8   1  643.64   24.80
   3  -8  -1  596.44   25.00
   3  -8  -1  660.23   26.50
   3  -8  -1  612.34   27.30
  -3  -8   1  602.94   24.80
  -3  -8   1  696.63   26.80
   3  -8  -1  591.94   26.90
  -3  -8   1  601.04   26.90
   3   8   0   38.20    2.90
  -3   8   0   40.30    5.40
   3   8   0   35.10    4.90
  -3   8   0   38.30    5.90
   3   8   0   40.30    2.60
  -3   8   0   40.50    4.90
  -3   8   0   41.20    4.60
  -3  -8   0   36.00    2.70
   3  -8   0   41.60    4.70
   3  -8   0   45.90    5.20
  -3  -8   0   43.70    5.20
   3  -8   0   44.20    5.60
  -3  -8   0   35.20    3.40
   3  -8   0   39.30    5.20
   3   8   1  223.28   12.10
  -3   8  -1  251.57   13.00
  -3   8  -1  255.17   11.90
  -3   8  -1  253.97   11.80
   3   8   1  262.97   10.70
  -3   8  -1  256.97   13.40
   3   8   1  252.27   10.90
  -3  -8  -1  266.17   11.70
  -3  -8  -1  253.47   10.80
   3  -8   1  243.68   12.70
   3  -8   1  246.18   11.60
   3  -8   1  236.88   12.10
   3  -8   1  266.37   13.20
  -3  -8  -1  233.28   12.40
  -3  -8  -1  242.88   10.90
   3  -8   1  248.18   10.50
   3   8   2  143.39    7.10
   3   8   2  133.69    7.00
   3   8   2  146.99    8.30
  -3   8  -2  122.79    9.50
  -3   8  -2  124.19    9.10
  -3   8  -2  142.19    8.10
  -3  -8  -2  141.99    8.70
  -3  -8  -2  142.49    7.30
   3  -8   2  126.99    9.20
   3  -8   2  135.69    7.60
   3  -8   2  113.59    9.00
  -3  -8  -2  149.69    8.10
   3  -8   2  148.69    6.90
  -3  -8  -2  139.09    7.30
  -3   8  -3   44.30    6.80
   3   8   3   59.69    5.70
  -3   8  -3   44.20    5.80
   3   8   3   52.59    5.20
  -3   8  -3   54.19    7.50
   3   8   3   46.80    5.00
   3  -8   3   49.60    7.30
  -3  -8  -3   55.09    5.90
   3  -8   3   48.10    6.90
  -3  -8  -3   42.80    5.20
   3  -8   3   52.99    5.00
  -3   8  -4    6.20    4.40
   3   8   4    9.60    3.60
   3   8   4    7.10    3.60
   3   8   4    6.40    3.90
  -3   8  -4    4.70    4.60
  -3   8  -4    4.10    3.30
   3  -8   4    5.50    5.10
   3  -8   4    9.20    4.70
  -3  -8  -4   11.40    3.90
   3  -8   4    9.60    3.20
  -3  -8  -4    4.00    3.70
  -3   8  -5  160.68   11.30
  -3   8  -5  158.38    9.80
  -3   8  -5  158.88   11.60
   3   8   5  169.28   10.70
   3   8   5  155.98   10.20
   3  -8   5  144.49   11.50
  -3  -8  -5  149.69   10.60
   3  -8   5  154.58   11.80
   3  -8   5  151.28    9.00
  -3  -8  -5  153.68   10.60
  -3   8  -6   10.40    4.50
   3   8   6   15.60    6.20
   3   8   6   21.80    6.90
  -3   8  -6   13.70    6.60
  -3   8  -6   18.90    6.40
   3  -8   6   22.50    6.90
  -3  -8  -6   14.40    6.10
   3  -8   6   16.50    4.10
  -3  -8  -6    8.30    6.30
   3  -8   6   13.30    7.10
  -3   8  -7   25.10    8.10
   3   8   7   22.90    8.60
  -3   8  -7    9.70    5.80
   3   8   7    4.80    7.20
  -3   8  -7   22.40    8.90
   3  -8   7   16.50    7.60
   3  -8   7   18.30    5.20
   3  -8   7    6.80    8.00
  -3  -8  -7   27.20    8.10
  -3  -8  -7   19.50    8.30
   3   9  -7    5.30    5.60
  -3   9   7   29.10   10.30
  -3   9   7   27.50   10.30
   3   9  -7    6.80    5.30
  -3   9   7   15.90    9.80
  -3  -9   7    6.50    5.60
   3  -9  -7    6.10    8.70
  -3  -9   7   -1.60    5.30
   3  -9  -7   13.40    9.60
  -3  -9   7    8.50    6.50
  -3   9   6  200.48   14.50
   3   9  -6  212.18   11.40
  -3   9   6  190.98   14.70
  -3   9   6  220.88   15.50
   3   9  -6  196.88   11.00
   3  -9  -6  202.48   14.50
  -3  -9   6  207.28   12.10
   3  -9  -6  204.58   14.60
  -3  -9   6  182.38   11.70
  -3  -9   6  195.88   13.00
   3  -9  -6  183.48   14.90
  -3   9   5   34.50    7.90
  -3   9   5   67.59    8.80
   3   9  -5   60.89    5.40
  -3   9   5   57.99    8.20
   3   9  -5   47.30    5.90
  -3  -9   5   59.89    6.50
   3  -9  -5   49.00    7.90
   3  -9  -5   51.79    7.80
  -3  -9   5   50.09    6.30
   3  -9  -5   50.59    7.30
  -3  -9   5   63.69    7.70
   3   9  -4   32.60    3.90
  -3   9   4   34.80    7.00
   3   9  -4   28.20    4.00
   3   9  -4   30.10    4.90
  -3   9   4   35.40    5.60
  -3   9   4   31.60    6.70
   3  -9  -4   32.10    5.20
   3  -9  -4   36.50    6.60
   3  -9  -4   26.60    6.10
  -3  -9   4   30.50    4.10
  -3  -9   4   30.90    5.70
   3  -9  -4   26.70    5.80
  -3  -9   4   23.20    3.40
  -3   9   3  142.99   10.10
  -3   9   3  114.99    9.10
  -3   9   3  131.49    8.80
   3   9  -3  121.59    8.50
   3   9  -3  116.69    6.60
   3   9  -3  124.29    6.70
  -3  -9   3  139.49    6.80
  -3  -9   3  123.09    9.40
   3  -9  -3  110.99    9.00
   3  -9  -3  139.79    9.30
   3  -9  -3  148.59   10.30
   3  -9  -3  138.49    9.50
   3   9  -2  228.28    9.80
   3   9  -2  234.88   11.80
  -3   9   2  225.68   12.60
  -3   9   2  227.18   10.50
   3   9  -2  235.48    9.80
  -3   9   2  235.08   12.20
  -3   9   2  237.58   12.90
  -3   9   2  239.38   11.80
   3   9  -2  230.08    9.80
   3  -9  -2  233.38   13.20
   3  -9  -2  248.28   12.90
   3  -9  -2  238.18   12.10
   3  -9  -2  231.38   12.10
  -3  -9   2  212.68   12.20
  -3  -9   2  243.58   10.00
  -3  -9   2  212.98   10.10
  -3   9   1   19.00    4.80
   3   9  -1   18.20    2.30
  -3   9   1   19.80    3.90
  -3   9   1   14.80    5.00
   3   9  -1   28.20    3.90
  -3   9   1   29.20    3.90
   3  -9  -1   12.50    5.10
   3  -9  -1   16.90    3.70
  -3  -9   1   14.10    3.90
  -3  -9   1   16.00    2.40
   3  -9  -1   15.00    4.40
  -3  -9   1   20.70    2.60
  -3  -9   1   30.80    4.60
   3  -9  -1   19.10    3.40
  -3   9   0  535.55   23.50
  -3   9   0  521.35   22.50
   3   9   0  521.25   22.70
   3   9   0  526.25   21.20
  -3   9   0  521.45   22.30
   3   9   0  523.15   21.00
  -3   9   0  553.34   23.60
   3  -9   0  547.15   22.80
  -3  -9   0  520.05   21.50
  -3  -9   0  526.55   22.90
   3  -9   0  551.24   23.60
   3  -9   0  514.35   22.30
   3  -9   0  511.55   23.30
   3   9   1   18.90    3.00
   3   9   1   16.60    3.80
  -3   9  -1   27.70    5.00
  -3   9  -1   14.40    3.40
  -3   9  -1   22.60    5.30
   3   9   1   19.40    2.90
  -3   9  -1   24.90    3.40
   3  -9   1   22.50    3.40
   3  -9   1   14.70    3.60
  -3  -9  -1   13.50    3.30
  -3  -9  -1   18.00    4.40
  -3  -9  -1   25.10    3.00
  -3  -9  -1   21.00    2.90
   3  -9   1   18.80    4.90
   3  -9   1   17.00    4.50
   3  -9   1   26.50    2.70
  -3   9  -2    1.10    2.90
   3   9   2    7.00    3.50
   3   9   2    8.60    2.50
  -3   9  -2    3.50    4.40
  -3   9  -2   -0.80    4.30
   3   9   2    4.20    2.40
  -3  -9  -2    6.40    2.70
  -3  -9  -2    0.90    3.00
   3  -9   2    6.90    2.30
  -3  -9  -2    4.00    2.60
   3  -9   2    4.10    2.80
  -3  -9  -2    4.90    3.50
   3  -9   2    0.70    4.10
   3  -9   2   -1.90    4.50
  -3   9  -3   52.29    8.00
   3   9   3   56.19    5.60
  -3   9  -3   51.29    7.80
  -3   9  -3   56.29    6.50
   3   9   3   71.69    5.70
   3   9   3   69.89    6.60
   3  -9   3   56.59    8.40
   3  -9   3   66.99    5.40
   3  -9   3   63.49    5.00
  -3  -9  -3   68.69    6.90
  -3  -9  -3   61.69    5.90
   3  -9   3   51.89    7.90
  -3  -9  -3   49.99    5.70
  -3   9  -4  232.78   13.80
  -3   9  -4  241.18   14.10
   3   9   4  236.08   12.10
  -3   9  -4  241.98   12.50
   3   9   4  219.98   12.20
   3   9   4  245.58   12.40
   3  -9   4  241.58   13.90
  -3  -9  -4  224.98   12.70
   3  -9   4  242.18   11.40
  -3  -9  -4  244.38   12.30
   3  -9   4  224.88   14.10
   3   9   5    3.40    4.30
  -3   9  -5    4.80    6.10
  -3   9  -5    0.60    5.30
   3   9   5    7.70    5.10
  -3   9  -5    1.40    4.00
   3  -9   5   -1.70    5.20
  -3  -9  -5    3.00    5.00
   3  -9   5    2.80    3.20
  -3  -9  -5    4.90    5.00
   3  -9   5    5.60    5.60
   3   9   6   95.39   10.20
  -3   9  -6  105.59   11.50
   3   9   6  120.59   11.30
  -3   9  -6  102.49    9.60
  -3   9  -6  104.99   12.10
   3  -9   6  102.89   12.90
   3  -9   6  116.69   12.00
   3  -9   6  117.19    8.00
  -3  -9  -6   95.69   11.00
   3   9   7    1.60    8.50
  -3   9  -7   -1.20    7.10
  -3   9  -7   -0.80    9.10
   3   9   7  -10.80    7.40
  -3  -9  -7    4.40    8.60
   3  -9   7   -5.70   10.20
   3  -9   7    8.00    4.90
   3  -9   7    3.70    8.50
  -3  10   6   -4.40    8.00
  -3  10   6   -5.90    8.20
   3  10  -6    9.30    4.50
   3  10  -6    8.10    5.80
  -3  10   6   -2.20    6.70
   3  10  -6    6.10    4.00
  -3 -10   6   -3.00    4.60
  -3 -10   6   -5.10    4.30
  -3 -10   6    3.90    5.00
   3 -10  -6    3.20    7.80
   3 -10  -6   -4.60    7.80
   3 -10  -6  -14.60    7.70
  -3  10   5  157.48   12.90
  -3  10   5  160.48   11.90
   3  10  -5  147.59    8.30
  -3  10   5  147.09   12.40
   3  10  -5  143.99    9.00
   3  10  -5  141.39   11.00
  -3 -10   5  143.89    9.30
  -3 -10   5  145.89   10.80
   3 -10  -5  149.59   13.00
   3 -10  -5  128.59   12.20
   3 -10  -5  147.29   13.00
  -3  10   4   18.70    4.70
  -3  10   4    5.50    4.40
  -3  10   4    9.20    6.00
   3  10  -4    1.60    3.00
   3  10  -4    4.70    2.50
  -3  10   4    1.70    5.90
   3  10  -4    1.10    3.80
  -3 -10   4    3.10    3.40
  -3 -10   4    5.90    4.30
   3 -10  -4    6.40    5.30
  -3 -10   4   -1.00    2.80
   3 -10  -4    7.00    6.50
   3 -10  -4    1.90    6.00
   3  10  -3   40.70    5.20
  -3  10   3   39.70    6.70
   3  10  -3   32.10    3.50
  -3  10   3   38.30    5.70
   3  10  -3   30.80    4.00
  -3  10   3   38.00    5.60
   3 -10  -3   27.30    4.90
  -3 -10   3   33.50    4.10
   3 -10  -3   35.80    6.60
   3 -10  -3   37.10    6.60
  -3 -10   3   35.50    5.70
  -3 -10   3   22.70    4.90
   3 -10  -3   31.90    5.60
   3  10  -2   22.80    4.30
  -3  10   2   17.60    5.30
  -3  10   2   14.90    5.10
  -3  10   2   17.80    4.40
   3  10  -2   18.40    2.90
  -3  10   2   26.70    3.90
   3  10  -2   21.30    3.10
  -3  10   2   24.00    3.90
  -3 -10   2   24.40    2.80
   3 -10  -2   30.80    4.80
   3 -10  -2   24.50    4.70
  -3 -10   2   19.00    5.60
   3 -10  -2   28.80    6.40
   3 -10  -2   24.70    5.60
  -3  10   1  541.15   23.10
   3  10  -1  521.55   22.10
  -3  10   1  521.45   21.80
  -3  10   1  531.35   22.20
  -3  10   1  494.25   22.90
   3  10  -1  502.35   20.20
   3 -10  -1  524.95   22.00
   3 -10  -1  480.25   22.70
  -3 -10   1  515.35   20.40
  -3 -10   1  488.75   22.80
   3 -10  -1  469.35   22.00
   3 -10  -1  486.45   23.20
  -3 -10   1  477.65   20.60
   3  10   0   65.29    6.90
  -3  10   0   69.09    6.00
   3  10   0   68.09    4.20
   3  10   0   68.09    4.70
  -3  10   0   69.49    6.70
  -3  10   0   51.69    7.80
  -3  10   0   66.19    7.60
   3 -10   0   69.39    6.10
   3 -10   0   59.89    7.70
  -3 -10   0   54.79    6.50
  -3 -10   0   68.99    5.10
   3 -10   0   77.39    8.00
   3 -10   0   70.89    6.90
   3  10   1  225.28   10.20
  -3  10  -1  229.08   11.20
   3  10   1  212.98   12.40
   3  10   1  215.28   10.60
  -3  10  -1  219.68   11.80
  -3  10  -1  231.08   12.60
  -3  10  -1  240.08   13.30
  -3 -10  -1  203.28   12.00
  -3 -10  -1  230.68   10.70
   3 -10   1  236.88   13.20
  -3 -10  -1  222.28   10.40
   3 -10   1  226.68   11.10
   3 -10   1  231.78   13.10
  -3 -10  -1  244.68   11.80
   3 -10   1  228.78   12.20
   3  10   2   17.80    3.10
   3  10   2   16.90    4.50
  -3  10  -2   16.70    4.00
  -3  10  -2   18.10    5.20
   3  10   2   16.70    3.10
  -3  10  -2   18.90    6.00
  -3 -10  -2   14.00    4.40
   3 -10   2   19.00    5.50
  -3 -10  -2   16.30    4.00
  -3 -10  -2   21.90    3.70
   3 -10   2   20.90    5.50
  -3 -10  -2   24.60    3.60
   3 -10   2   21.90    3.40
   3 -10   2   22.60    3.20
  -3  10  -3  114.69   10.80
  -3  10  -3  128.79   10.30
   3  10   3  136.89    9.20
   3  10   3  117.59    7.80
   3  10   3  123.19    8.00
  -3  10  -3  127.19    9.00
  -3 -10  -3  138.39    8.30
   3 -10   3  112.49   10.20
  -3 -10  -3  117.69    8.00
   3 -10   3  131.99    7.30
   3 -10   3  111.49   10.60
  -3 -10  -3  121.59    9.00
   3 -10   3  125.79    7.50
  -3 -10  -3  140.19    9.10
   3  10   4    3.20    3.60
   3  10   4    4.10    4.00
  -3  10  -4   -4.60    5.30
   3  10   4   -1.60    3.90
  -3  10  -4   -9.50    5.10
  -3  10  -4   -3.90    3.90
  -3 -10  -4    3.10    4.20
   3 -10   4   -3.00    2.90
   3 -10   4    0.90    2.90
  -3 -10  -4    2.70    4.60
   3 -10   4   -2.60    5.50
   3 -10   4   -4.40    5.10
   3  10   5  176.78   11.70
  -3  10  -5  194.78   13.90
   3  10   5  196.78   12.40
  -3  10  -5  189.78   14.20
  -3  10  -5  208.18   12.10
  -3 -10  -5  196.18   12.30
  -3 -10  -5  171.88   12.20
   3 -10   5  209.68   14.70
   3 -10   5  208.08   13.70
   3 -10   5  217.58   10.40
  -3 -10  -5  164.68   12.80
  -3  10  -6   11.00    6.90
   3  10   6    7.50    6.20
  -3  10  -6    6.00    7.70
  -3  10  -6    9.10    5.40
   3  10   6   13.00    7.30
   3 -10   6    2.60    7.40
  -3 -10  -6   -6.30    6.60
   3 -10   6    2.90    3.90
  -3 -10  -6    7.80    7.20
  -3 -10  -6   -4.90    7.50
   3 -10   6    1.80    7.30
   3  11  -6   93.19    8.10
  -3  11   6  108.19   12.40
  -3  11   6   97.29   14.70
   3  11  -6   86.89    9.30
  -3  11   6  110.39   13.10
   3  11  -6  109.39   12.70
   3 -11  -6  127.89   15.00
  -3 -11   6   95.09   10.30
   3 -11  -6   90.19   12.10
  -3 -11   6   98.19   10.20
   3 -11  -6  110.09   14.90
   3  11  -5    0.20    3.90
   3  11  -5   -2.80    3.00
  -3  11   5   14.90    6.00
   3  11  -5    2.40    5.00
  -3  11   5   -2.70    7.20
   3 -11  -5   -0.50    6.60
   3 -11  -5    6.40    7.70
  -3 -11   5    1.00    3.90
   3 -11  -5   10.40    7.50
  -3 -11   5    2.80    4.80
   3  11  -4   11.20    2.90
  -3  11   4   10.50    5.10
  -3  11   4    0.50    6.40
  -3  11   4    8.30    5.80
  -3  11   4    8.10    7.10
   3  11  -4    6.40    4.60
   3  11  -4    5.00    3.50
  -3 -11   4    7.20    4.70
  -3 -11   4    3.60    3.70
   3 -11  -4   20.80    7.00
   3 -11  -4    2.00    6.50
  -3 -11   4   10.90    3.70
   3 -11  -4    1.40    5.90
   3  11  -3    5.60    3.60
  -3  11   3   11.50    4.00
   3  11  -3    1.60    2.40
   3  11  -3    0.50    2.60
  -3  11   3   -4.40    5.50
  -3  11   3    3.80    4.70
   3 -11  -3   -1.70    5.90
  -3 -11   3   -6.20    4.00
   3 -11  -3   -1.10    4.30
   3 -11  -3    4.00    4.60
  -3 -11   3    4.60    3.60
   3 -11  -3    2.70    6.40
  -3 -11   3    0.20    2.60
  -3  11   2  234.98   14.60
  -3  11   2  267.07   14.80
  -3  11   2  262.97   13.90
  -3  11   2  266.97   13.20
   3  11  -2  259.37   11.20
   3  11  -2  266.47   13.50
   3  11  -2  258.97   11.10
  -3  11   2  253.37   12.20
   3 -11  -2  257.17   13.80
   3 -11  -2  234.88   15.00
   3 -11  -2  263.87   14.60
  -3 -11   2  266.37   11.40
  -3 -11   2  234.88   14.20
   3 -11  -2  249.38   13.50
  -3  11   1   -4.20    4.80
  -3  11   1    1.00    3.80
   3  11  -1   -1.60    2.00
  -3  11   1   -3.80    4.60
  -3  11   1   -1.40    2.90
   3  11  -1   -0.60    3.50
   3 -11  -1   -6.40    5.20
   3 -11  -1    1.40    3.50
  -3 -11   1   -1.30    2.10
  -3 -11   1   -1.30    4.20
   3 -11  -1   -4.90    4.70
   3 -11  -1   -2.30    3.30
   3  11   0  508.85   20.40
  -3  11   0  462.15   23.00
  -3  11   0  511.25   23.20
  -3  11   0  479.45   22.10
   3  11   0  453.65   20.60
   3  11   0  524.85   22.70
  -3  11   0  492.15   21.60
  -3 -11   0  524.85   22.10
   3 -11   0  502.05   21.70
   3 -11   0  495.15   23.10
   3 -11   0  538.55   22.50
  -3 -11   0  510.15   21.00
   3 -11   0  530.15   23.40
  -3  11  -1   16.00    3.50
  -3  11  -1    8.80    3.90
   3  11   1   10.60    3.10
   3  11   1    1.80    4.00
  -3  11  -1   17.50    5.00
   3  11   1    9.80    2.70
  -3  11  -1   12.60    5.70
  -3 -11  -1   12.20    3.60
   3 -11   1   14.10    5.70
  -3 -11  -1    8.80    4.10
  -3 -11  -1    5.50    4.30
   3 -11   1   13.10    5.60
   3 -11   1   11.30    3.30
   3 -11   1   13.40    4.60
  -3 -11  -1   10.50    3.00
   3  11   2    3.50    4.30
   3  11   2    2.80    2.80
  -3  11  -2    0.00    5.20
  -3  11  -2    4.80    4.00
  -3  11  -2    3.50    5.40
   3  11   2    3.00    3.10
  -3 -11  -2    2.00    3.80
  -3 -11  -2    2.90    4.00
  -3 -11  -2    2.00    3.10
   3 -11   2    0.00    5.10
   3 -11   2    2.80    3.00
   3 -11   2   -3.40    4.80
  -3 -11  -2    7.50    3.60
   3 -11   2    7.90    2.80
  -3  11  -3   10.20    6.60
  -3  11  -3    9.90    5.20
  -3  11  -3   13.00    4.30
   3  11   3   13.30    4.60
   3  11   3    8.10    3.90
   3  11   3   19.40    4.00
   3 -11   3   12.60    3.20
   3 -11   3   13.00    6.20
  -3 -11  -3   16.80    5.00
   3 -11   3   14.50    3.50
  -3 -11  -3    9.80    4.00
   3 -11   3    7.80    6.50
  -3 -11  -3   14.10    4.20
  -3 -11  -3   18.10    4.90
   3  11   4   85.09    9.20
  -3  11  -4   85.79   10.70
  -3  11  -4   93.89    9.00
   3  11   4   92.59    8.50
  -3  11  -4   98.49   11.60
   3  11   4   96.39    8.10
   3 -11   4  109.19    7.20
   3 -11   4   85.09   10.80
  -3 -11  -4   99.59    8.50
   3 -11   4  100.79    6.70
   3 -11   4   74.99   10.80
  -3 -11  -4  106.69   10.10
   3  11   5    6.90    5.30
   3  11   5   -9.30    5.00
  -3  11  -5    1.20    6.60
   3  11   5    6.00    5.90
  -3  11  -5    2.30    4.80
  -3  11  -5   -6.70    7.80
   3 -11   5    3.40    3.30
  -3 -11  -5    6.00    6.40
   3 -11   5   -0.60    6.90
   3 -11   5    2.10    4.90
   3 -11   5    0.20    7.30
  -3 -11  -5    3.10    5.60
   3  11   6   32.40    7.70
   3  11   6   23.30    8.30
  -3  11  -6   32.40    6.90
  -3  11  -6   34.30    8.80
   3  11   6   18.20    7.20
  -3  11  -6   31.30    8.80
   3 -11   6   47.10   10.40
   3 -11   6   29.00    5.50
   3 -11   6   37.70    4.90
  -3 -11  -6   28.10    8.40
   3 -11   6   40.40    9.00
  -3 -11  -6   18.10    8.40
  -3 -11  -6   37.80    8.40
   3  12  -5   79.09    9.90
   3  12  -5   68.29    7.80
  -3  12   5   76.29   11.40
  -3  12   5   67.99   10.40
   3  12  -5   71.59    6.60
  -3  12   5   70.29    8.90
   3 -12  -5   79.59   10.70
  -3 -12   5   62.49    8.90
   3 -12  -5   69.39   10.20
  -3 -12   5   74.89    8.20
   3 -12  -5   73.59   10.00
  -3  12   4    0.40    5.90
   3  12  -4    5.40    3.50
  -3  12   4   13.40    7.20
   3  12  -4   -0.10    4.70
  -3  12   4    8.30    7.40
   3  12  -4   -3.80    2.60
  -3  12   4   10.10    5.00
   3 -12  -4    5.10    7.00
   3 -12  -4    3.10    6.10
  -3 -12   4    5.50    3.60
  -3 -12   4    1.70    3.80
  -3 -12   4    2.10    4.30
   3 -12  -4    1.80    7.10
  -3  12   3   49.30    7.90
  -3  12   3   39.50    6.20
  -3  12   3   32.40    6.10
   3  12  -3   38.10    4.80
   3  12  -3   27.50    5.10
   3  12  -3   36.80    4.10
   3 -12  -3   39.10    6.70
  -3 -12   3   28.30    5.70
   3 -12  -3   44.80    8.40
   3 -12  -3   43.20    8.20
  -3 -12   3   35.10    5.10
  -3  12   2   -4.60    6.10
  -3  12   2    5.50    3.70
   3  12  -2   -4.80    2.30
   3  12  -2    1.50    3.40
  -3  12   2   -3.80    5.40
   3  12  -2   -2.10    2.30
  -3  12   2   -3.60    4.60
   3 -12  -2   -8.50    5.50
   3 -12  -2    0.40    4.40
   3 -12  -2   -4.10    4.50
  -3 -12   2   -5.80    4.20
   3 -12  -2    3.10    6.30
  -3 -12   2    1.60    2.60
  -3  12   1  533.65   24.40
  -3  12   1  509.55   24.30
   3  12  -1  511.65   21.30
  -3  12   1  519.45   23.50
  -3  12   1  521.95   22.80
   3  12  -1  503.45   21.10
   3  12  -1  532.35   23.60
   3 -12  -1  519.15   24.60
  -3 -12   1  532.75   21.60
   3 -12  -1  553.24   23.20
   3 -12  -1  528.45   23.60
  -3 -12   1  507.65   24.10
   3 -12  -1  531.95   24.80
   3  12   0   -0.20    2.40
  -3  12   0    1.30    3.10
  -3  12   0    1.80    5.40
  -3  12   0    7.10    5.40
  -3  12   0    0.70    3.80
   3  12   0    3.40    3.90
   3  12   0    2.40    2.70
  -3 -12   0    0.90    2.90
  -3 -12   0    6.50    3.20
   3 -12   0   -5.10    5.50
  -3 -12   0    3.20    3.80
   3 -12   0    4.50    4.10
   3 -12   0   -2.90    5.60
   3 -12   0    3.40    3.30
  -3  12  -1  136.69    8.60
  -3  12  -1  141.69   10.70
   3  12   1  135.79    7.60
  -3  12  -1  146.69   10.00
  -3  12  -1  141.09   11.80
   3  12   1  133.59    8.20
   3  12   1  141.49   10.90
   3 -12   1  138.19   10.70
  -3 -12  -1  137.59    7.90
   3 -12   1  134.39   11.20
   3 -12   1  139.09   11.10
  -3 -12  -1  129.89    9.20
  -3 -12  -1  143.39   10.00
  -3 -12  -1  139.89    8.70
   3 -12   1  137.89    8.50
  -3  12  -2    2.70    4.00
  -3  12  -2    3.70    5.00
   3  12   2    1.60    4.60
  -3  12  -2   -0.20    6.00
   3  12   2   -1.60    3.10
   3  12   2    6.10    3.20
   3 -12   2    5.60    2.90
  -3 -12  -2    0.30    4.40
   3 -12   2   -2.00    5.50
  -3 -12  -2    0.70    3.40
   3 -12   2   -4.50    5.90
  -3 -12  -2    3.20    3.80
   3 -12   2    1.30    3.10
  -3 -12  -2   -8.20    4.10
  -3  12  -3    8.90    4.50
   3  12   3   18.10    5.40
  -3  12  -3    4.80    6.80
   3  12   3    5.70    4.00
  -3  12  -3    9.50    5.80
   3  12   3    9.60    3.90
  -3 -12  -3    9.50    4.40
  -3 -12  -3    8.50    5.10
   3 -12   3   10.70    3.40
  -3 -12  -3   14.10    4.90
   3 -12   3    7.20    6.00
   3 -12   3   13.10    3.50
   3 -12   3    2.90    7.50
  -3  12  -4   -2.50    4.70
  -3  12  -4   -7.60    7.10
   3  12   4   -4.20    4.80
   3  12   4    5.10    5.20
   3  12   4   -6.30    4.80
  -3  12  -4   -1.60    5.90
   3 -12   4    0.50    3.50
   3 -12   4    0.00    3.10
  -3 -12  -4    5.00    5.50
   3 -12   4    1.20    6.70
   3 -12   4  -10.00    6.80
  -3 -12  -4    4.50    6.10
  -3 -12  -4   -4.90    4.90
   3  12   5   96.99   12.00
   3  12   5   94.69   11.20
   3  12   5   92.49   11.30
  -3  12  -5   92.19   14.30
   3  12   5  103.29   10.40
  -3  12  -5  111.09   10.90
  -3  12  -5  112.49   12.80
  -3 -12  -5  119.29   12.00
  -3 -12  -5   97.99   10.40
   3 -12   5  112.69   13.00
   3 -12   5  105.29    7.10
   3 -12   5  106.09   14.80
   3 -12   5  115.99    9.00
  -3 -12  -5  113.49   13.00
  -3  13   5    0.50    9.10
   3  13  -5   -2.20    3.40
  -3  13   5    5.00    9.80
  -3  13   5   14.00    7.30
   3  13  -5    4.20    6.20
   3  13  -5    1.80    4.70
  -3 -13   5   -0.50    5.00
   3 -13  -5    7.10    9.40
  -3 -13   5    3.80    5.50
   3 -13  -5    6.00    9.50
  -3 -13   5    6.50    5.00
  -3  13   4   26.10    6.80
  -3  13   4   20.00    8.90
   3  13  -4   13.40    5.20
   3  13  -4   27.50    4.40
  -3  13   4    6.60    6.90
  -3  13   4   28.00    8.70
   3  13  -4   19.40    3.70
  -3 -13   4   19.20    5.90
   3 -13  -4   17.30    7.00
   3 -13  -4   32.80    8.80
   3 -13  -4   28.00    9.70
   3  13  -3   35.80    5.30
   3  13  -3   48.50    6.90
  -3  13   3   54.99    9.30
  -3  13   3   63.49    8.50
  -3  13   3   47.80    6.90
   3  13  -3   34.30    4.20
   3 -13  -3   49.30    8.70
  -3 -13   3   20.40    5.80
  -3 -13   3   35.70    4.60
   3 -13  -3   67.69   10.00
  -3  13   2  150.48   13.00
  -3  13   2  151.68   12.40
   3  13  -2  151.88    8.20
   3  13  -2  168.48    8.10
  -3  13   2  155.28   11.40
   3  13  -2  139.89   10.80
  -3  13   2  159.88   10.50
   3 -13  -2  141.19   12.60
  -3 -13   2  134.99   10.80
   3 -13  -2  148.69   11.60
  -3 -13   2  152.98    8.40
   3 -13  -2  160.28   10.90
   3 -13  -2  163.48   13.40
  -3  13   1    9.60    5.00
  -3  13   1   10.80    6.20
  -3  13   1    3.80    6.30
  -3  13   1    8.20    3.90
   3  13  -1    9.60    3.20
   3  13  -1    8.60    4.40
   3  13  -1   10.20    2.40
   3 -13  -1   10.00    4.60
   3 -13  -1   10.00    6.70
   3 -13  -1    8.60    6.60
  -3 -13   1    4.90    4.30
  -3 -13   1   10.40    3.30
   3 -13  -1   11.30    5.40
  -3  13   0  301.77   15.80
  -3  13   0  338.27   17.10
   3  13   0  335.87   15.00
   3  13   0  342.27   14.80
   3  13   0  337.47   17.30
  -3  13   0  369.76   18.10
   3  13   0  329.67   15.00
  -3  13   0  343.77   18.30
   3 -13   0  340.37   16.20
  -3 -13   0  354.76   15.60
   3 -13   0  328.37   18.10
   3 -13   0  356.76   18.60
   3 -13   0  345.87   17.50
  -3 -13   0  314.67   14.90
  -3 -13   0  346.47   16.00
   3  13   1   -5.60    3.20
   3  13   1   -4.00    4.80
   3  13   1   -2.00    3.40
  -3  13  -1    3.60    3.60
  -3  13  -1    2.10    4.50
  -3  13  -1   -9.60    5.90
  -3  13  -1   -1.70    5.10
   3  13   1    1.90    3.10
   3 -13   1   -0.60    5.90
   3 -13   1   -1.20    3.40
  -3 -13  -1    5.40    4.40
   3 -13   1    2.00    5.80
  -3 -13  -1    1.40    3.40
   3 -13   1    3.30    5.10
  -3 -13  -1    2.60    4.30
   3  13   2    2.90    3.50
   3  13   2   14.40    5.50
  -3  13  -2    3.40    6.50
  -3  13  -2    2.50    5.50
   3  13   2    1.40    4.10
  -3  13  -2    2.40    4.60
   3  13   2    5.60    3.80
  -3 -13  -2    3.10    3.80
   3 -13   2    3.10    3.40
  -3 -13  -2    9.10    5.00
   3 -13   2    3.60    6.60
   3 -13   2    1.20    6.80
   3 -13   2    4.50    3.20
  -3  13  -3    1.00    7.40
  -3  13  -3    5.00    6.60
   3  13   3    0.50    4.40
   3  13   3    3.50    4.20
   3  13   3    0.80    4.60
   3  13   3    0.70    5.10
  -3  13  -3    2.20    4.80
  -3 -13  -3    3.40    7.60
  -3 -13  -3    1.90    4.60
  -3 -13  -3    9.10    5.20
   3 -13   3    1.50    6.40
  -3 -13  -3    2.20    4.90
   3 -13   3    5.50    3.40
   3 -13   3   -5.40    8.00
   3 -13   3    1.00    3.30
  -3  13  -4  130.59   14.80
  -3  13  -4  126.59   12.80
   3  13   4  128.39   10.70
   3  13   4  119.99   11.50
   3  13   4  136.89   10.80
   3  13   4  152.48   12.60
  -3  13  -4  151.78   11.80
   3 -13   4  139.69    9.20
   3 -13   4  124.59   13.40
  -3 -13  -4  127.19   10.80
   3 -13   4  116.49   14.80
  -3 -13  -4  145.59   12.10
  -3 -13  -4  170.18   13.20
  -3 -13  -4  130.19   11.80
   3 -13   4  148.19    8.20
  -3  14   4   17.30    7.10
  -3  14   4   40.70   10.20
   3  14  -4    7.10    6.00
   3  14  -4    1.90    4.20
  -3  14   4   30.40   10.30
  -3  14   4   18.10    6.60
   3 -14  -4   38.40    9.00
  -3 -14   4   11.00    4.80
  -3 -14   4    1.20    4.50
  -3 -14   4    3.80    5.00
   3 -14  -4   32.50    9.80
  -3  14   3   11.50    5.20
   3  14  -3   15.60    5.50
   3  14  -3    9.60    3.60
  -3  14   3    3.60    6.70
   3  14  -3    7.40    3.80
  -3  14   3    7.10    8.70
  -3 -14   3    6.10    5.80
  -3 -14   3    0.20    3.90
   3 -14  -3    0.20    8.40
   3 -14  -3    4.60    8.20
   3 -14  -3   11.50    6.50
  -3  14   2   15.50    7.80
  -3  14   2   21.10    6.20
   3  14  -2    8.70    3.60
  -3  14   2   15.00    5.20
  -3  14   2    9.60    6.80
   3  14  -2    6.00    5.00
   3 -14  -2   23.70    7.70
  -3 -14   2   13.20    5.80
   3 -14  -2   19.80    6.50
   3 -14  -2    2.40    7.40
  -3 -14   2   10.70    3.60
  -3 -14   2    5.80    3.80
   3  14  -1  186.08   12.40
   3  14  -1  167.18    8.10
   3  14  -1  163.38    9.20
  -3  14   1  170.78   11.00
  -3  14   1  171.78   13.20
  -3  14   1  167.68   12.60
  -3  14   1  165.58   13.60
  -3 -14   1  180.28    9.70
   3 -14  -1  181.58   14.00
   3 -14  -1  190.58   11.50
   3 -14  -1  188.68   12.90
   3 -14  -1  175.28   13.60
   3  14   0   16.40    5.50
  -3  14   0   21.70    6.90
   3  14   0   14.70    3.60
   3  14   0   13.00    3.70
  -3  14   0   24.20    7.50
  -3  14   0   12.10    4.20
   3  14   0   19.10    3.50
  -3  14   0   20.20    5.70
   3 -14   0   10.10    7.00
   3 -14   0   17.80    4.90
   3 -14   0    6.80    6.70
  -3 -14   0   16.40    4.60
  -3 -14   0   14.70    4.50
   3 -14   0   23.30    6.10
  -3  14  -1   93.29   11.00
  -3  14  -1   87.09    7.80
   3  14   1   89.89    7.80
  -3  14  -1   91.49   10.30
   3  14   1   84.09    7.30
   3  14   1   82.69   10.80
  -3  14  -1   96.59   12.00
   3  14   1   94.19    7.20
   3 -14   1   98.69    8.00
  -3 -14  -1  107.99    8.20
   3 -14   1   99.19   11.10
   3 -14   1   85.09   11.60
  -3 -14  -1   93.39   11.30
   3 -14   1   95.19   11.40
   3  14   2   50.99    6.50
  -3  14  -2   66.79   10.00
  -3  14  -2   76.39   10.70
  -3  14  -2   36.80    6.40
   3  14   2   45.00    7.00
   3  14   2   33.20    6.80
   3  14   2   50.69    5.80
   3 -14   2   55.59    9.30
  -3 -14  -2   44.00    7.00
   3 -14   2   65.09    9.00
  -3 -14  -2   39.90    6.50
  -3 -14  -2   51.99    6.90
   3 -14   2   62.09    6.60
  -3  14  -3   34.30    6.40
   3  14   3   16.80    6.30
  -3  14  -3   19.70    9.60
   3  14   3   33.20    5.90
   3  14   3   20.10    6.10
   3  14   3   28.90    5.40
  -3  14  -3   13.10    7.30
   3 -14   3   35.80   10.50
  -3 -14  -3   27.00    7.10
  -3 -14  -3   23.90    6.50
   3 -14   3   28.50    4.50
  -3 -14  -3   21.10    6.70
   3 -14   3   30.30    4.80
   3 -14   3   19.20    7.70
  -3  14  -4    0.20    9.70
  -3  14  -4    3.10    6.00
  -3  14  -4   -1.60    8.50
   3  14   4    7.70    6.10
   3  14   4   -1.30    6.20
   3  14   4   -4.50    7.10
   3  14   4    3.80    6.80
   3 -14   4    8.80    5.40
  -3 -14  -4   -6.40    6.40
  -3 -14  -4    1.60    6.60
  -3 -14  -4   16.20    7.80
  -3 -14  -4    6.90    7.40
   3 -14   4    6.00    8.10
   3 -14   4    0.30    3.40
   3  15  -3   83.59   11.20
  -3  15   3   99.89   11.10
   3  15  -3   65.59    6.90
   3  15  -3   71.29    6.80
  -3  15   3   92.59   12.40
  -3 -15   3   65.59    9.50
   3 -15  -3   95.29   14.80
   3 -15  -3   98.19   12.10
  -3 -15   3   66.19    8.00
   3 -15  -3   61.99   12.80
   3  15  -2   82.89   10.70
  -3  15   2   61.39   10.00
  -3  15   2   53.99    6.90
  -3  15   2   81.79   12.20
   3  15  -2   56.89    6.50
  -3  15   2   77.49   11.00
  -3 -15   2   63.59    8.80
   3 -15  -2   64.39   10.20
   3 -15  -2   89.29   11.30
   3 -15  -2   44.10    7.90
  -3  15   1   17.20    7.80
  -3  15   1   13.40    7.30
   3  15  -1   19.90    6.10
   3  15  -1   16.70    4.30
  -3  15   1   21.60    5.30
  -3  15   1    9.50    6.00
   3  15  -1   16.10    2.60
   3 -15  -1   12.70    7.80
   3 -15  -1   22.70    7.70
   3 -15  -1   17.80    6.10
   3  15   0  123.49   12.20
   3  15   0  101.49    7.50
  -3  15   0  120.49   11.60
   3  15   0  123.49    8.10
  -3  15   0  112.79   12.10
   3  15   0  116.99    8.00
  -3  15   0  127.59   13.60
  -3  15   0  122.49    9.50
   3 -15   0  134.69   13.30
   3 -15   0  126.39   13.50
   3 -15   0  145.09   12.40
   3  15   1   11.80    4.40
   3  15   1    5.30    4.10
  -3  15  -1   10.00    4.60
   3  15   1    8.30    6.20
  -3  15  -1   16.30    6.30
   3  15   1    1.40    4.50
  -3  15  -1    4.90    7.60
  -3  15  -1   24.60    7.30
   3 -15   1   17.20    6.90
  -3 -15  -1    1.30    7.40
  -3 -15  -1   18.20    5.90
   3 -15   1   20.80    7.70
  -3 -15  -1   -0.60    4.20
   3 -15   1    6.40    7.70
  -3 -15  -1    9.30    5.20
   3  15   2   -3.50    4.30
  -3  15  -2    2.70    8.20
  -3  15  -2  -12.10    6.20
   3  15   2   -9.00    6.20
   3  15   2    3.20    4.90
  -3  15  -2    0.30    5.90
   3  15   2   -1.40    4.90
  -3 -15  -2    3.90    5.30
  -3 -15  -2   -4.50    6.80
   3 -15   2   -4.20    7.60
   3 -15   2   -0.80    7.70
  -3 -15  -2    7.70    4.90
  -3 -15  -2    2.50    6.10
   3 -15   2    4.10    4.40
   3  15   3   34.70    6.30
  -3  15  -3   41.80    8.70
   3  15   3   28.30    7.70
  -3  15  -3   34.20    7.50
  -3  15  -3   28.20   10.40
   3  15   3   29.20    6.60
   3  15   3   36.10    6.40
  -3 -15  -3   33.80    7.90
  -3 -15  -3   31.50    8.20
   3 -15   3   52.49    6.40
   3 -15   3   59.59   10.60
  -3 -15  -3   32.60    8.30
   3  16  -1  100.39    8.30
  -3  16   1  112.29   14.20
  -3  16   1   99.99   13.40
   3  16  -1  101.39    7.90
  -3  16   1  107.69   12.60
   3  16  -1  108.09   12.60
  -3 -16   1   95.59    9.10
   3 -16  -1  116.29   12.90
   3 -16  -1  111.09   14.00
   3  16   0   10.50    3.80
   3  16   0   22.00    7.40
  -3  16   0    5.20    8.90
  -3  16   0   -0.20    8.20
   3  16   0    4.90    3.60
  -3  16   0   10.00    5.20
  -3  16   0   13.70    6.80
   3  16   0    9.00    4.30
  -3 -16   0    4.20    5.20
   3 -16   0   17.70    7.60
   3 -16   0   34.00    9.60
  -3 -16   0    0.60    4.30
  -3  16  -1   56.49    9.10
  -3  16  -1   48.20    8.30
   3  16   1   42.60    7.80
  -3 -16  -1   45.00    7.50
  -3 -16  -1   40.80    9.70
  -4   0   8   22.90    8.00
   4   0  -8    7.20    6.80
  -4   0   8   21.00    6.80
  -4   0   8   23.30    8.90
  -4   0   7   20.70    5.40
  -4   0   7   23.60    6.80
   4   0  -7    5.90    5.70
   4   0  -6  131.99    9.10
   4   0  -6  137.19    9.10
   4   0  -6  127.19    9.40
  -4   0   6  133.49    9.50
  -4   0   6  150.98   10.10
   4   0  -5   12.80    3.50
  -4   0   5   13.20    3.90
   4   0  -5    6.80    3.60
  -4   0   5   18.10    3.80
   4   0  -5   16.70    3.40
   4   0  -4   15.10    3.00
  -4   0   4   12.00    3.40
   4   0  -4   12.10    3.00
   4   0  -4   12.80    3.00
  -4   0   4   15.60    3.20
  -4   0   4   12.30    3.20
  -4   0   3    7.80    2.50
   4   0  -3    8.90    2.10
  -4   0   3   15.30    2.60
  -4   0   3    9.60    2.60
  -4   0   3   11.80    2.80
   4   0  -3    3.10    2.10
  -4   0   2  527.35   21.60
   4   0  -2  539.75   21.60
   4   0  -2  514.75   21.60
  -4   0   2  546.75   21.70
  -4   0   2  551.14   22.40
   4   0  -2  521.25   22.30
  -4   0   1  203.78    9.20
  -4   0   0 1302.07   50.69
   4   0   0 1266.27   50.89
   4   0   0 1225.08   49.90
   4   0   0 1296.27   51.29
   4   0   0 1415.86   50.99
  -4   0   0 1238.68   50.89
  -4   0   0 1337.27   51.39
   4   0   0 1300.17   50.59
   4   0   1   78.09    5.60
   4   0   2    4.80    2.00
  -4   0  -2   10.10    2.40
  -4   0  -2   10.40    2.80
   4   0   2    2.90    2.10
   4   0   3    0.50    2.40
  -4   0  -3    0.00    2.60
  -4   0  -3    2.70    2.70
   4   0   3    4.80    2.60
   4   0   4  306.87   14.60
  -4   0  -4  301.77   14.50
  -4   0  -4  307.57   14.70
  -4   0  -4  308.97   13.10
   4   0   4  324.67   14.80
  -4   0  -5   12.70    4.50
   4   0   5   12.80    4.80
   4   0   5   11.40    4.40
   4   0   6  125.09   10.30
   4   0   6  108.09   10.10
  -4   0  -6  117.29   10.40
  -4   0  -6  103.89    8.00
  -4   0  -7   11.80    7.50
  -4   0  -7   15.00    7.40
   4   0   7    8.00    7.10
   4   0   7   -7.90    6.50
   4   0   8    4.70    8.60
  -4   0  -8   28.50    9.60
  -4   0  -8   -7.70    6.80
   4   0   8   24.60   10.30
  -4   0  -8    0.80   11.10
  -4   1   8    3.80    8.30
   4   1  -8   -0.20    6.40
  -4   1   8    2.30    7.10
  -4   1   8   -0.40    7.90
  -4  -1   8   19.10    7.50
  -4  -1   8   10.10    7.90
   4  -1  -8    4.70    7.30
   4  -1  -8    8.00    7.00
  -4  -1   8   -2.80    7.40
   4  -1  -8  -10.70    7.90
  -4   1   7  197.78   13.60
   4   1  -7  176.08   12.20
  -4   1   7  206.48   13.40
   4  -1  -7  197.48   12.70
  -4  -1   7  196.28   12.50
   4  -1  -7  187.48   12.70
  -4  -1   7  198.48   13.40
  -4  -1   7  189.58   13.00
  -4   1   6   21.90    4.70
   4   1  -6   23.40    5.00
  -4   1   6    9.40    5.00
   4  -1  -6    8.40    4.60
   4  -1  -6   18.40    4.30
  -4  -1   6   14.90    7.70
   4  -1  -6    7.20    4.60
  -4  -1   6   29.30    4.60
   4   1  -5  196.18   10.20
   4   1  -5  198.78   10.10
  -4   1   5  190.78   10.60
   4   1  -5  173.58    9.70
  -4   1   5  185.48   10.40
  -4   1   5  188.58   10.60
   4  -1  -5  169.38   10.50
  -4  -1   5  192.38   10.40
  -4  -1   5  195.78   10.40
  -4  -1   5  186.88   10.10
   4  -1  -5  180.48   10.10
   4  -1  -5  191.68   10.40
  -4   1   4    6.50    3.30
   4   1  -4    9.20    2.60
   4   1  -4    5.00    2.80
   4   1  -4    8.20    2.50
  -4   1   4   11.20    3.20
  -4   1   4    6.30    3.00
   4  -1  -4    7.90    3.10
  -4  -1   4   11.40    3.00
  -4  -1   4   11.70    3.00
  -4  -1   4   11.80    3.10
   4  -1  -4    7.00    2.80
   4  -1  -4    9.90    2.90
  -4  -1   4    9.60    2.90
  -4   1   3   68.59    4.70
   4   1  -3   72.99    4.20
  -4   1   3   65.49    5.50
   4   1  -3   71.69    4.60
   4   1  -3   70.89    5.10
  -4   1   3   59.59    5.10
  -4   1   3   69.29    5.10
   4  -1  -3   58.99    4.70
  -4  -1   3   59.29    4.40
  -4  -1   3   71.19    5.00
   4  -1  -3   66.69    5.40
  -4  -1   3   67.69    4.70
   4  -1  -3   69.89    4.70
  -4  -1   3   59.69    5.40
  -4   1   2  137.29    7.00
  -4   1   2  132.69    6.60
  -4  -1   2  135.19    7.00
  -4  -1   2  152.78    7.60
   4  -1  -2  119.99    7.40
   4   1  -1 1249.97   46.70
   4   1  -1 1141.89   46.00
  -4   1   1 1168.88   46.10
   4   1  -1 1232.38   46.90
  -4   1   1 1065.79   46.40
  -4   1   1 1233.78   47.00
  -4   1   1 1180.18   46.50
   4   1  -1 1164.98   45.90
   4  -1  -1 1083.79   46.40
   4  -1  -1 1211.88   47.00
   4  -1  -1 1264.87   46.60
  -4  -1   1 1270.37   47.20
  -4  -1   1 1142.89   45.90
   4  -1  -1 1219.98   46.00
  -4  -1   1 1142.59   46.40
  -4  -1   1 1078.49   46.00
  -4  -1   1 1228.78   46.80
   4   1   0   51.19    4.40
   4   1   0   47.90    5.00
  -4   1  -1  583.24   22.80
  -4   1  -1  541.25   22.80
   4   1   1  549.25   23.00
   4   1   1  569.74   22.40
   4   1   1  554.64   22.40
  -4   1  -1  516.95   22.90
   4  -1   1  533.85   22.80
  -4  -1  -1  561.74   22.40
  -4  -1  -1  530.45   23.20
   4  -1   1  573.04   22.70
   4  -1   1  551.54   23.10
  -4  -1  -1  594.74   22.40
   4   1   2  112.29    6.30
   4   1   2  128.29    6.40
  -4   1  -2  117.79    6.80
  -4   1  -2  126.09    7.10
  -4   1  -2  120.89    6.90
   4  -1   2  111.79    7.10
  -4  -1  -2  120.49    6.50
  -4  -1  -2  121.59    6.50
   4  -1   2  122.09    6.80
   4  -1   2  116.89    6.70
  -4  -1  -2  124.29    7.30
  -4   1  -3  112.49    7.10
  -4   1  -3  120.69    7.20
   4   1   3  111.99    6.90
   4   1   3  115.99    6.80
  -4  -1  -3  114.19    5.30
   4  -1   3  113.29    7.10
   4  -1   3  107.49    7.00
  -4  -1  -3  119.09    6.90
  -4  -1  -3  125.09    7.20
   4   1   4   -1.70    3.20
   4   1   4    4.40    3.30
  -4   1  -4   12.60    3.70
  -4  -1  -4    6.80    3.40
   4  -1   4    8.30    3.40
   4  -1   4    8.30    3.40
  -4  -1  -4    2.60    3.50
   4   1   5  312.87   15.80
   4   1   5  318.97   15.90
  -4   1  -5  295.57   16.00
  -4   1  -5  320.87   16.00
   4  -1   5  340.07   16.20
   4  -1   5  338.77   16.00
  -4  -1  -5  338.27   15.80
  -4  -1  -5  311.07   14.30
   4   1   6    2.80    5.40
  -4   1  -6    2.10    5.90
   4   1   6    3.70    5.40
   4  -1   6    4.50    5.30
   4  -1   6    9.60    5.90
  -4  -1  -6    6.80    3.90
  -4  -1  -6   10.10    5.40
   4   1   7   30.70    8.20
  -4   1  -7   33.30    7.70
  -4   1  -7   26.70    8.50
   4   1   7   39.30    8.20
  -4  -1  -7   19.50    5.80
   4  -1   7   31.50    8.60
  -4  -1  -7   30.40    7.70
  -4  -1  -7   39.20    8.50
   4  -1   7   21.90    7.40
  -4   1  -8   -1.50    6.60
   4   1   8    6.00    8.90
  -4   1  -8   35.90   13.80
   4   1   8   18.10   10.00
  -4   1  -8   12.20    9.60
   4  -1   8   30.70   10.10
  -4  -1  -8   -1.80    7.10
   4  -1   8   17.00    9.30
  -4  -1  -8   26.20    9.50
  -4   2   8   27.20    9.10
  -4   2   8   21.00    7.80
  -4   2   8   45.40   12.40
   4   2  -8   27.80    7.10
   4  -2  -8   22.30    9.20
  -4  -2   8   41.40    8.90
  -4  -2   8   30.00    7.60
   4  -2  -8   31.40    8.60
   4  -2  -8   23.90    8.20
  -4   2   7   12.80    7.10
  -4   2   7   12.30    7.10
  -4   2   7   14.70    7.30
   4   2  -7   11.70    5.10
   4  -2  -7    4.90    6.90
   4  -2  -7   22.70    6.50
   4  -2  -7   21.30    6.50
  -4  -2   7   17.70    6.20
  -4  -2   7   20.60    6.40
  -4  -2   7   22.60    5.60
   4   2  -6  166.38   10.50
  -4   2   6  180.08   11.40
  -4   2   6  157.98   11.10
   4  -2  -6  177.78   12.10
  -4  -2   6  166.78   10.80
   4  -2  -6  183.18   11.20
   4  -2  -6  170.18   11.20
   4  -2  -6  181.08   10.80
  -4  -2   6  180.08   10.60
  -4   2   5   27.20    4.60
  -4   2   5   21.70    4.30
  -4   2   5   22.30    5.00
   4   2  -5   18.80    3.30
   4   2  -5   13.90    3.80
  -4  -2   5   32.70    4.40
   4  -2  -5   21.30    4.70
   4  -2  -5   16.00    4.50
   4  -2  -5   20.20    3.90
  -4   2   4   15.70    3.90
  -4   2   4   19.40    3.70
   4   2  -4   17.10    2.80
   4   2  -4   18.00    3.10
   4   2  -4   16.90    2.70
  -4   2   4   11.40    3.40
  -4  -2   4   18.70    3.30
  -4  -2   4   25.60    3.50
   4  -2  -4   12.40    3.30
   4  -2  -4   20.40    4.00
  -4  -2   4   20.80    3.10
   4  -2  -4   19.90    4.10
  -4  -2   4   22.30    3.40
   4  -2  -4   18.00    3.70
   4   2  -3    8.70    2.10
  -4   2   3    7.10    3.00
  -4   2   3    6.00    2.70
  -4   2   3    9.60    3.10
   4  -2  -3   14.70    2.80
   4  -2  -3   10.30    3.00
   4  -2  -3    7.90    2.50
   4  -2  -3    7.20    2.90
  -4   2   2  625.54   23.80
  -4   2   2  584.64   24.40
   4   2  -2  630.24   23.60
   4   2  -2  581.84   24.50
  -4   2   2  611.94   24.40
  -4   2   2  594.74   24.80
   4   2  -2  554.14   23.50
  -4  -2   2  608.04   24.50
   4  -2  -2  577.14   24.30
  -4  -2   2  567.44   23.50
   4  -2  -2  594.04   24.80
  -4  -2   2  603.94   24.50
   4  -2  -2  593.44   24.40
   4  -2  -2  604.74   24.10
   4   2   0  400.76   17.30
  -4   2   0  427.76   18.30
   4   2   0  414.96   17.10
  -4   2   0  430.16   18.50
  -4   2   0  429.66   18.50
   4   2   0  411.46   17.10
   4   2   0  427.06   18.20
  -4   2   0  477.55   18.30
   4  -2   0  425.26   18.10
  -4  -2   0  438.16   18.80
   4  -2   0  450.95   18.50
  -4  -2   0  449.26   17.30
   4  -2   0  421.86   17.20
   4  -2   0  440.86   17.40
   4  -2   0  442.36   18.50
   4   2   1   81.89    4.40
   4   2   1   82.49    4.50
  -4  -2  -1   81.19    4.50
  -4  -2  -1   85.19    4.70
  -4  -2  -1   78.79    6.00
   4   2   2    4.00    1.90
   4   2   2    5.90    2.00
  -4  -2  -2    4.00    2.30
   4  -2   2    9.10    2.80
  -4  -2  -2    5.80    2.90
   4  -2   2   10.40    2.60
   4  -2   2    4.80    2.20
  -4  -2  -2    7.10    2.10
  -4   2  -3   78.89    5.80
   4   2   3   55.99    5.00
   4   2   3   56.49    5.00
  -4  -2  -3   55.69    3.60
  -4  -2  -3   56.99    5.20
   4  -2   3   65.29    5.50
   4  -2   3   70.59    5.60
  -4  -2  -3   59.19    5.10
   4   2   4  387.16   17.20
  -4   2  -4  405.96   17.50
   4   2   4  390.66   17.20
  -4   2  -4  332.57   17.20
  -4  -2  -4  391.66   17.10
   4  -2   4  389.06   17.40
   4  -2   4  392.06   17.60
  -4  -2  -4  371.36   15.80
  -4  -2  -4  360.76   17.20
   4   2   5    1.80    4.20
   4   2   5    2.10    4.20
  -4   2  -5   21.50    5.00
  -4  -2  -5    3.20    4.30
  -4  -2  -5    1.50    2.60
   4  -2   5   15.90    4.50
   4  -2   5    7.40    4.40
  -4   2  -6  119.09   11.10
  -4   2  -6  129.39   11.00
   4   2   6  134.49   10.80
   4   2   6  143.29   10.60
  -4  -2  -6  121.09    8.80
   4  -2   6  124.69   10.60
   4  -2   6  136.29   11.10
  -4  -2  -6  137.09   10.80
  -4   2  -7    3.60    7.50
  -4   2  -7    9.30    7.50
   4   2   7    2.00    7.10
   4   2   7    3.60    6.40
  -4  -2  -7    6.40    5.50
  -4  -2  -7    1.50    7.90
  -4  -2  -7    7.80    7.00
   4  -2   7   20.60    7.50
   4  -2   7    1.40    7.20
   4   3  -8    6.10    6.70
  -4   3   8   11.60    8.70
  -4   3   8   10.80    7.90
   4  -3  -8    4.00    7.80
   4  -3  -8  -10.80    8.30
  -4  -3   8   -0.60    6.10
  -4  -3   8   12.80    6.80
  -4  -3   8   33.60    7.70
  -4   3   7   75.69   11.10
  -4   3   7   48.50    8.20
   4   3  -7   92.89    8.70
  -4   3   7   70.69   10.50
   4  -3  -7   63.19    9.90
  -4  -3   7   74.69    9.40
   4  -3  -7   58.69    8.80
  -4  -3   7   67.59    8.60
  -4  -3   7   68.59    9.10
   4  -3  -7   64.79    8.90
   4   3  -6   15.90    4.00
  -4   3   6   -4.50    5.30
  -4   3   6    8.20    4.70
   4  -3  -6    7.90    5.20
   4  -3  -6    5.10    4.90
   4  -3  -6    3.20    3.90
   4  -3  -6    4.70    5.10
  -4  -3   6   11.00    5.00
   4   3  -5  141.09    8.00
  -4   3   5  134.89    9.50
   4   3  -5  132.69    7.60
  -4   3   5  119.99    9.30
  -4  -3   5  128.69    8.20
  -4  -3   5  135.89    8.10
  -4  -3   5  129.69    8.20
  -4  -3   5  135.99    9.10
   4  -3  -5  124.99    9.20
   4  -3  -5  128.29    9.00
   4  -3  -5  130.99    9.60
   4  -3  -5  130.99    9.00
  -4   3   4   53.49    5.90
   4   3  -4   58.49    4.70
  -4   3   4   43.90    5.90
  -4   3   4   54.69    6.10
   4   3  -4   54.79    4.60
   4  -3  -4   60.59    6.20
  -4  -3   4   53.69    4.60
  -4  -3   4   46.50    4.90
  -4  -3   4   52.49    5.30
   4  -3  -4   51.39    5.60
  -4  -3   4   53.49    5.70
   4  -3  -4   58.39    6.00
   4  -3  -4   56.59    6.10
  -4   3   3  228.88   11.40
   4   3  -3  242.08   10.20
   4   3  -3  238.88   10.80
  -4   3   3  223.08   11.60
   4   3  -3  219.98   10.00
   4  -3  -3  225.58   11.30
  -4  -3   3  247.08   10.20
   4  -3  -3  223.88   11.20
   4  -3  -3  231.28   11.60
  -4  -3   3  241.68   11.00
   4  -3  -3  225.48   11.20
  -4  -3   3  253.57   11.40
  -4  -3   3  250.17   10.40
  -4   3   2   97.49    6.00
   4   3  -2   69.19    3.90
  -4   3   2   84.39    5.90
  -4   3   2   94.99    6.00
   4   3  -2   72.19    5.30
   4  -3  -2   88.99    6.10
  -4  -3   2   93.49    5.80
  -4  -3   2   74.39    5.40
  -4  -3   2   81.29    4.10
   4  -3  -2   79.99    5.30
  -4   3   1 1105.39   46.50
  -4   3   1 1230.28   46.80
   4   3  -1 1235.78   46.50
  -4   3   1 1160.48   46.70
  -4  -3   1 1152.98   45.10
   4  -3  -1 1203.28   45.80
  -4  -3   1 1180.08   46.60
  -4  -3   1 1196.18   47.10
   4  -3  -1 1079.99   46.40
  -4  -3   1 1182.68   45.10
   4  -3  -1 1183.48   46.70
   4  -3  -1 1144.29   46.70
   4   3   0   25.60    1.90
   4   3   0   24.30    1.90
   4   3   0   38.30    3.80
  -4  -3   0   31.10    2.10
  -4  -3   0   21.90    2.30
   4   3   1  218.88    9.10
  -4   3  -1  216.28   10.10
  -4   3  -1  223.58   10.80
   4   3   1  230.28    9.40
  -4   3  -1  237.58    9.10
  -4   3  -1  206.68   10.60
   4   3   1  223.98    9.30
  -4  -3  -1  231.38    9.40
   4  -3   1  217.28   10.60
  -4  -3  -1  207.98   10.90
  -4  -3  -1  187.78    9.60
   4  -3   1  221.98   10.60
   4  -3   1  208.18   10.60
  -4   3  -2   67.09    5.60
  -4   3  -2   65.09    5.10
  -4   3  -2   67.09    5.60
  -4   3  -2   63.09    3.70
   4   3   2   60.89    4.30
   4   3   2   66.59    4.30
  -4  -3  -2   64.09    4.50
   4  -3   2   60.79    5.20
  -4  -3  -2   67.59    3.40
  -4  -3  -2   68.59    5.90
  -4  -3  -2   67.59    4.40
   4  -3   2   60.59    5.30
   4  -3   2   60.99    5.40
  -4   3  -3  185.98    9.50
  -4   3  -3  180.38    7.80
   4   3   3  167.78    8.70
  -4   3  -3  186.88    9.50
   4   3   3  165.28    8.60
  -4  -3  -3  158.38    7.70
   4  -3   3  173.28    9.60
   4  -3   3  169.18    9.10
   4  -3   3  172.78    9.50
  -4  -3  -3  160.68    8.90
  -4  -3  -3  167.98    8.70
   4   3   4   44.40    5.70
   4   3   4   50.19    5.70
  -4  -3  -4   48.80    6.10
  -4  -3  -4   43.10    5.90
  -4  -3  -4   41.10    4.30
  -4   3  -5  243.48   13.70
  -4   3  -5  247.68   13.90
   4   3   5  243.58   13.10
   4   3   5  262.37   13.20
  -4  -3  -5  244.88   13.40
   4  -3   5  258.17   13.70
   4  -3   5  271.17   14.10
  -4  -3  -5  243.68   11.80
  -4  -3  -5  241.38   13.60
   4   3   6   12.60    5.90
  -4   3  -6   10.70    6.70
   4   3   6    8.50    5.60
  -4   3  -6   13.10    6.00
  -4  -3  -6    3.90    6.00
  -4  -3  -6    6.00    4.20
   4  -3   6    8.00    5.80
   4  -3   6    8.60    6.10
   4   3   7    6.70    7.50
  -4   3  -7    2.30    6.70
  -4   3  -7    1.70    8.30
   4   3   7    3.60    6.60
   4  -3   7   14.20    8.20
  -4  -3  -7    2.60    5.70
   4  -3   7   10.80    6.90
  -4  -3  -7    3.40    7.70
  -4  -3  -7   10.60    7.80
  -4   4   7   27.20    7.60
  -4   4   7   23.60    8.40
  -4   4   7   16.20    6.50
   4   4  -7   19.80    5.80
   4  -4  -7   34.10    7.60
   4  -4  -7   11.60    7.20
  -4  -4   7   13.00    5.00
  -4  -4   7   25.30    6.20
   4  -4  -7   29.80    8.00
  -4  -4   7   27.20    6.20
  -4   4   6  254.47   14.30
   4   4  -6  248.98   12.50
   4  -4  -6  233.38   14.30
  -4  -4   6  232.08   13.30
   4  -4  -6  254.87   13.50
  -4  -4   6  239.88   12.50
   4  -4  -6  214.98   13.70
  -4  -4   6  232.88   12.30
   4  -4  -6  248.48   14.00
   4   4  -5   61.99    5.40
  -4   4   5   83.09    7.80
   4   4  -5   66.99    5.90
  -4   4   5   63.69    7.80
  -4  -4   5   67.19    6.10
   4  -4  -5   69.49    7.70
   4  -4  -5   62.99    7.40
  -4  -4   5   69.89    7.50
   4  -4  -5   62.79    7.40
   4  -4  -5   62.19    7.60
  -4  -4   5   66.29    6.00
  -4  -4   5   65.49    6.00
   4   4  -4    1.10    2.00
   4   4  -4    0.60    2.00
  -4   4   4   -0.30    3.00
  -4   4   4   -0.50    3.90
  -4   4   4   -5.40    3.40
   4  -4  -4   -2.60    3.40
   4  -4  -4   -1.40    3.10
  -4  -4   4    3.00    2.90
   4  -4  -4    1.50    3.40
   4  -4  -4    1.50    3.50
  -4  -4   4   -3.90    2.40
  -4  -4   4    3.10    2.50
  -4   4   3  279.07   13.30
   4   4  -3  284.77   12.40
   4   4  -3  268.77   11.60
   4   4  -3  287.57   11.60
  -4   4   3  292.37   13.40
  -4  -4   3  258.57   11.60
   4  -4  -3  287.47   13.40
   4  -4  -3  293.87   13.50
   4  -4  -3  285.17   13.20
   4  -4  -3  271.87   13.00
  -4  -4   3  275.17   12.50
  -4  -4   3  260.57   13.00
  -4   4   2  546.65   22.80
   4   4  -2  505.85   22.20
  -4   4   2  559.04   21.30
  -4   4   2  546.75   22.80
  -4   4   2  573.44   23.00
  -4  -4   2  525.95   21.00
   4  -4  -2  537.85   22.70
   4  -4  -2  544.55   22.90
   4  -4  -2  533.65   22.20
  -4  -4   2  537.35   22.70
  -4  -4   2  496.75   21.00
   4  -4  -2  552.54   22.90
  -4   4   1   21.10    3.70
  -4   4   1   37.50    4.70
   4   4  -1   26.00    3.70
  -4   4   1   21.50    4.00
  -4  -4   1   28.20    4.60
   4  -4  -1   37.30    4.50
   4  -4  -1   32.20    3.40
  -4  -4   1   16.80    3.30
  -4   4   0  961.70   38.40
  -4   4   0  984.20   38.70
   4   4   0  918.81   37.90
  -4   4   0  945.31   38.50
   4   4   0  932.21   37.40
  -4   4   0  977.20   37.40
   4  -4   0  968.40   38.50
   4  -4   0 1022.70   38.80
  -4  -4   0  979.80   38.90
   4  -4   0  987.30   37.50
   4  -4   0  956.30   38.40
  -4  -4   0  947.81   36.60
  -4  -4   0  814.62   36.70
   4   4   1  112.49    5.80
  -4   4  -1  116.69    7.40
  -4   4  -1  114.29    7.50
   4   4   1  114.89    5.50
   4   4   1  114.69    5.40
  -4   4  -1  135.89    5.80
  -4   4  -1  110.39    6.40
   4  -4   1  108.39    5.70
   4  -4   1  118.99    7.10
   4  -4   1  113.19    7.10
  -4  -4  -1  106.79    7.40
   4  -4   1  112.39    7.30
  -4  -4  -1  122.79    5.50
   4   4   2    5.20    2.00
   4   4   2    6.40    2.00
  -4   4  -2    8.10    1.80
   4   4   2    5.00    1.60
  -4   4  -2    8.00    2.50
  -4   4  -2    6.50    3.10
  -4   4  -2   11.30    3.30
   4  -4   2    9.40    3.20
  -4  -4  -2    4.50    3.00
  -4  -4  -2    6.50    2.20
   4  -4   2    4.40    3.20
   4  -4   2    7.20    2.80
  -4  -4  -2    6.80    1.50
  -4  -4  -2    7.50    2.10
  -4   4  -3  167.88    9.10
   4   4   3  141.39    7.70
   4   4   3  136.29    7.70
  -4   4  -3  145.59    8.80
  -4   4  -3  162.08    7.10
  -4  -4  -3  126.39    7.70
   4  -4   3  156.08    9.00
  -4  -4  -3  134.59    7.90
   4  -4   3  140.19    8.30
   4  -4   3  135.79    8.70
  -4  -4  -3  133.79    6.90
  -4   4  -4  298.27   14.40
  -4   4  -4  282.47   12.40
   4   4   4  293.67   13.70
  -4   4  -4  281.37   14.30
   4   4   4  282.37   13.50
   4  -4   4  298.27   14.40
  -4  -4  -4  274.27   13.60
   4  -4   4  276.97   14.20
  -4  -4  -4  274.07   12.60
  -4  -4  -4  284.77   13.70
   4  -4   4  276.97   13.50
  -4   4  -5   15.10    5.00
   4   4   5   -1.40    4.00
   4   4   5   -0.30    4.60
  -4  -4  -5   -0.60    4.80
  -4  -4  -5    6.00    3.40
   4  -4   5   11.80    5.00
   4  -4   5    5.10    4.60
  -4  -4  -5    2.70    4.30
   4   4   6   62.39    8.90
  -4   4  -6   84.79    9.90
   4   4   6   61.69    9.10
  -4   4  -6   68.89    8.60
   4  -4   6   58.99    9.50
   4  -4   6   56.29    7.80
  -4  -4  -6   70.39    8.30
  -4  -4  -6   56.99    7.40
   4   4   7   25.10    8.10
   4   4   7   16.40    7.20
  -4   4  -7   23.90    8.00
  -4   4  -7    5.30    7.90
   4  -4   7   16.90    7.70
  -4  -4  -7   12.90    6.10
  -4  -4  -7   13.50    8.40
  -4  -4  -7   12.20    7.90
   4  -4   7   16.00    7.90
   4   5  -7   53.19    7.70
  -4   5   7   54.79    9.00
  -4   5   7   39.30    7.80
   4   5  -7   52.29    6.60
  -4   5   7   49.90    9.20
   4  -5  -7   39.30    8.30
   4  -5  -7   45.20    9.00
  -4  -5   7   36.30    6.80
   4  -5  -7   47.40    8.40
  -4  -5   7   50.59    7.10
  -4  -5   7   38.40    6.60
   4   5  -6   34.50    4.90
  -4   5   6   32.80    6.90
  -4   5   6   34.70    6.70
   4   5  -6   41.80    5.70
   4  -5  -6   42.70    7.30
  -4  -5   6   39.30    5.60
  -4  -5   6   46.20    6.60
   4  -5  -6   39.40    6.70
   4  -5  -6   33.70    6.60
  -4  -5   6   43.40    6.10
   4   5  -5   50.89    5.20
  -4   5   5   52.49    7.40
  -4   5   5   53.69    7.90
   4   5  -5   54.59    4.80
  -4  -5   5   40.60    5.50
   4  -5  -5   50.39    7.20
   4  -5  -5   60.79    7.50
  -4  -5   5   48.00    7.00
  -4  -5   5   50.89    5.60
  -4  -5   5   45.80    5.30
   4  -5  -5   40.70    5.70
   4  -5  -5   51.49    7.60
  -4   5   4  304.07   14.90
   4   5  -4  316.87   13.00
   4   5  -4  311.77   13.20
  -4   5   4  312.27   15.10
  -4   5   4  322.97   14.90
  -4  -5   4  309.67   13.40
  -4  -5   4  306.27   13.10
   4  -5  -4  277.47   14.60
  -4  -5   4  295.87   13.20
   4  -5  -4  288.97   15.00
   4  -5  -4  313.07   14.90
   4  -5  -4  266.47   14.80
  -4  -5   4  297.87   14.70
  -4   5   3   25.40    4.40
   4   5  -3   22.80    3.40
   4   5  -3   22.20    2.40
  -4   5   3   24.40    4.00
   4  -5  -3   30.40    4.40
  -4  -5   3   23.90    3.90
   4  -5  -3   26.60    4.80
  -4  -5   3   28.60    2.60
   4  -5  -3   25.60    4.50
  -4  -5   3   17.80    2.60
   4  -5  -3   23.30    3.80
  -4   5   2  105.09    6.90
  -4   5   2   96.89    7.00
   4   5  -2   87.39    5.90
  -4   5   2  106.89    7.40
  -4  -5   2   94.19    6.60
   4  -5  -2   95.69    6.20
   4  -5  -2   94.49    7.10
   4  -5  -2  100.99    7.00
   4  -5  -2  111.29    7.50
   4   5  -1  389.46   15.80
  -4   5   1  367.56   16.60
  -4   5   1  393.36   15.80
  -4   5   1  356.26   16.80
   4   5  -1  375.46   15.60
  -4   5   1  393.46   16.50
   4  -5  -1  318.07   16.70
   4  -5  -1  375.46   15.70
   4  -5  -1  336.47   16.40
   4  -5  -1  377.06   16.40
  -4  -5   1  355.66   16.90
  -4  -5   1  370.06   16.60
  -4   5   0   59.69    4.20
   4   5   0   44.00    4.00
  -4   5   0   53.69    5.70
  -4   5   0   51.49    5.30
  -4   5   0   51.39    5.60
   4  -5   0   48.10    5.40
   4  -5   0   56.19    4.20
   4  -5   0   59.99    5.90
  -4  -5   0   47.20    5.80
   4  -5   0   48.40    5.00
  -4   5  -1   21.50    2.60
  -4   5  -1   23.80    4.10
   4   5   1   22.20    2.80
  -4   5  -1   23.80    3.50
   4   5   1   18.30    2.20
  -4   5  -1   20.80    3.40
  -4   5  -1   24.90    4.00
   4   5   1   22.50    2.30
   4  -5   1   19.70    3.90
   4  -5   1   26.50    3.70
  -4  -5  -1   17.90    3.60
  -4  -5  -1   17.90    2.10
   4  -5   1   20.10    2.60
  -4  -5  -1   22.90    2.40
   4  -5   1   19.10    3.70
  -4   5  -2  296.77   14.60
   4   5   2  303.97   12.80
  -4   5  -2  303.97   13.10
   4   5   2  308.57   12.90
   4   5   2  297.17   12.80
  -4   5  -2  293.87   14.40
  -4   5  -2  304.47   12.90
   4  -5   2  299.27   14.30
  -4  -5  -2  315.77   13.00
  -4  -5  -2  314.27   12.70
   4  -5   2  302.67   13.90
   4  -5   2  282.67   14.30
  -4  -5  -2  302.97   14.40
  -4  -5  -2  296.07   12.90
  -4   5  -3  100.69    7.60
   4   5   3  100.19    6.30
  -4   5  -3  102.99    7.60
   4   5   3   95.09    6.20
  -4   5  -3  115.69    6.00
  -4  -5  -3   93.09    6.50
   4  -5   3   91.99    6.90
  -4  -5  -3   96.19    5.80
  -4  -5  -3   93.69    6.30
   4  -5   3   96.09    7.40
   4  -5   3  103.99    7.80
   4   5   4    2.30    3.40
   4   5   4    4.90    3.80
  -4   5  -4   18.30    5.00
   4  -5   4    8.30    4.60
   4  -5   4   11.20    4.30
  -4  -5  -4    7.60    3.50
   4  -5   4   13.60    3.50
  -4  -5  -4    0.50    2.80
  -4  -5  -4    5.30    3.80
   4   5   5  115.09    9.10
  -4   5  -5  115.59    9.80
   4   5   5  115.79    8.70
  -4   5  -5  113.79    9.90
  -4   5  -5  115.19    7.50
   4  -5   5  110.99    8.10
  -4  -5  -5   89.59    9.10
  -4  -5  -5  128.09    8.90
  -4  -5  -5  112.49    8.00
   4  -5   5  124.89    9.70
   4  -5   5  114.39   10.00
  -4   5  -6   42.30    7.00
   4   5   6   39.90    6.50
   4   5   6   32.20    6.90
  -4   5  -6   26.30    7.00
  -4  -5  -6   34.00    6.40
   4  -5   6   40.20    7.30
  -4  -5  -6   24.10    6.90
   4  -5   6   39.40    7.20
  -4  -5  -6   39.80    5.80
  -4   5  -7   -1.30    7.90
   4   5   7    6.60    7.50
   4   5   7  -12.50    7.40
  -4   5  -7   20.60    7.70
   4  -5   7    5.10    7.80
   4  -5   7    5.10    7.40
  -4  -5  -7    4.10    7.50
  -4  -5  -7   -1.00    6.00
  -4  -5  -7    5.20    6.90
   4   6  -7   -5.80    4.60
  -4   6   7   -2.60    8.10
   4   6  -7   12.00    4.90
  -4   6   7   -1.40    8.00
  -4   6   7   -3.50    7.20
   4  -6  -7   10.80    7.40
   4  -6  -7    2.20    7.70
  -4  -6   7    4.80    5.20
   4  -6  -7   -3.70    7.40
  -4  -6   7    4.10    5.80
  -4  -6   7    8.60    4.40
  -4  -6   7   -0.80    4.50
  -4   6   6   51.49    7.90
   4   6  -6   58.99    6.30
  -4   6   6   70.29    9.90
  -4   6   6   79.29   10.30
   4   6  -6   53.29    6.70
  -4  -6   6   61.99    8.10
   4  -6  -6   60.89    8.00
   4  -6  -6   55.09    8.10
  -4  -6   6   61.69    7.00
   4  -6  -6   69.59    9.40
   4   6  -5   75.99    5.50
   4   6  -5   79.69    5.80
  -4   6   5   76.09    8.60
  -4  -6   5   73.89    5.70
   4  -6  -5   69.69    8.20
  -4  -6   5   70.19    6.10
   4  -6  -5   73.19    8.60
   4  -6  -5   68.19    8.40
  -4  -6   5   71.69    6.10
   4  -6  -5   56.79    8.10
  -4  -6   5   62.39    7.70
   4   6  -4   54.69    4.30
  -4   6   4   51.99    7.40
   4   6  -4   54.49    4.20
  -4   6   4   56.89    7.10
   4  -6  -4   63.19    7.60
   4  -6  -4   60.99    7.20
   4  -6  -4   65.49    7.40
   4  -6  -4   54.69    7.10
  -4  -6   4   55.59    4.50
  -4  -6   4   40.70    5.50
  -4  -6   4   46.90    5.50
  -4   6   3  412.06   18.30
   4   6  -3  391.56   16.50
   4   6  -3  387.16   15.80
  -4   6   3  412.96   18.00
   4  -6  -3  388.96   17.60
   4  -6  -3  397.96   18.20
   4  -6  -3  409.26   18.20
   4  -6  -3  421.16   18.60
  -4  -6   3  368.06   17.90
  -4  -6   3  383.06   15.90
  -4  -6   3  374.76   15.80
   4   6  -2  148.99    8.20
  -4   6   2  159.38    9.60
  -4   6   2  164.98    9.30
   4   6  -2  167.48    8.70
  -4   6   2  170.08    9.00
  -4   6   2  175.38   10.10
   4  -6  -2  165.08   10.00
  -4  -6   2  164.28    9.40
   4  -6  -2  165.88    8.80
   4  -6  -2  160.98    9.60
   4  -6  -2  175.28    9.80
   4   6  -1   -1.90    1.80
   4   6  -1    1.30    1.90
  -4   6   1    0.70    3.40
  -4   6   1   -3.40    3.40
  -4   6   1   -1.40    2.20
  -4   6   1   -1.90    2.60
   4  -6  -1   -6.90    3.60
  -4  -6   1   -0.70    2.60
   4  -6  -1    0.60    2.60
   4  -6  -1    0.70    2.20
   4  -6  -1   -3.70    3.00
  -4  -6   1   -1.80    3.50
  -4   6   0  497.05   21.40
  -4   6   0  472.95   20.70
  -4   6   0  484.35   20.00
  -4   6   0  492.65   21.30
   4   6   0  463.55   20.00
   4  -6   0  487.65   21.20
   4  -6   0  484.15   20.80
   4  -6   0  482.85   21.40
   4  -6   0  487.55   20.10
  -4  -6   0  475.65   21.30
   4   6   1  421.36   17.50
  -4   6  -1  443.16   20.00
  -4   6  -1  453.65   19.90
  -4   6  -1  453.65   18.40
   4   6   1  466.35   18.80
  -4   6  -1  475.75   18.10
  -4   6  -1  434.46   19.20
   4   6   1  447.86   17.60
   4  -6   1  454.85   19.20
  -4  -6  -1  432.46   17.60
  -4  -6  -1  403.96   19.60
   4  -6   1  441.06   19.80
   4  -6   1  435.76   19.80
   4  -6   1  428.26   18.50
   4   6   2   21.80    3.20
  -4   6  -2   22.30    4.60
   4   6   2   22.20    2.80
  -4   6  -2   27.80    3.80
  -4   6  -2   31.60    4.10
   4   6   2   29.50    3.80
  -4   6  -2   27.40    4.90
  -4  -6  -2   26.60    3.00
  -4  -6  -2   26.40    4.60
  -4  -6  -2   23.70    3.10
   4  -6   2   26.20    3.80
  -4  -6  -2   24.10    3.00
   4  -6   2   28.80    4.80
   4  -6   2   27.50    4.60
  -4   6  -3  220.58   11.80
   4   6   3  215.48   10.10
   4   6   3  200.68   10.00
  -4   6  -3  192.68   11.80
   4   6   3  199.18    9.70
  -4   6  -3  217.18   10.10
  -4  -6  -3  215.28   11.60
   4  -6   3  206.88   11.70
  -4  -6  -3  202.08   10.20
  -4  -6  -3  204.38   10.20
  -4  -6  -3  207.58    9.90
   4  -6   3  212.28   11.70
   4  -6   3  198.48   10.80
   4   6   4   56.99    6.20
  -4   6  -4   63.39    7.60
  -4   6  -4   69.69    5.80
   4   6   4   63.99    6.30
  -4   6  -4   52.19    7.90
   4  -6   4   57.79    6.30
  -4  -6  -4   55.09    6.10
   4  -6   4   69.79    8.20
  -4  -6  -4   62.49    6.60
  -4  -6  -4   64.09    6.60
   4  -6   4   63.79    7.70
  -4   6  -5    9.20    3.30
   4   6   5    1.00    3.80
   4   6   5   -4.20    4.40
  -4   6  -5    4.10    4.70
  -4   6  -5   -1.60    5.10
  -4  -6  -5   -1.90    4.50
  -4  -6  -5    4.90    3.80
   4  -6   5    3.60    5.30
   4  -6   5   -3.70    4.80
   4  -6   5    3.10    3.80
   4   6   6   78.19    9.70
   4   6   6   78.99    8.70
  -4   6  -6   64.19   10.40
  -4   6  -6   54.09    8.40
  -4   6  -6   81.79    7.70
   4  -6   6   79.09   10.80
   4  -6   6   78.79   10.70
  -4  -6  -6   68.29    9.00
  -4  -6  -6   66.39    9.40
   4  -6   6   80.09    7.90
  -4  -6  -6   68.09    8.70
   4   6   7   44.00    8.40
  -4   6  -7   36.30    6.20
   4   6   7   29.30    8.30
  -4   6  -7   41.80    9.70
  -4   6  -7   27.40    8.50
   4  -6   7   30.00    9.00
  -4  -6  -7   28.40    7.60
  -4  -6  -7   39.20    8.60
  -4  -6  -7   48.20    8.10
   4  -6   7   57.39    9.50
   4  -6   7   42.00    6.40
   4   7  -7   39.30    5.80
  -4   7   7   34.60    9.60
  -4   7   7   27.20    9.50
   4   7  -7   37.30    6.20
  -4   7   7   40.90    8.60
   4  -7  -7   25.20    8.70
  -4  -7   7   30.30    6.70
   4  -7  -7   32.60    8.80
  -4  -7   7   40.50    7.30
   4  -7  -7   47.60    9.60
  -4   7   6    4.70    6.60
   4   7  -6   -0.30    3.50
  -4   7   6   -5.40    5.60
   4   7  -6    4.10    3.40
  -4   7   6    9.10    7.70
   4  -7  -6    3.00    6.30
   4  -7  -6    1.40    6.80
  -4  -7   6    5.50    4.70
  -4  -7   6   -2.80    4.00
   4  -7  -6    6.70    6.70
  -4   7   5   17.90    6.50
   4   7  -5   17.40    3.20
  -4   7   5   11.20    6.10
   4   7  -5   12.70    3.20
  -4  -7   5    9.60    3.50
  -4  -7   5    5.00    4.10
   4  -7  -5   19.00    5.30
   4  -7  -5    6.40    5.60
   4  -7  -5   10.30    5.70
   4  -7  -5   12.00    5.90
  -4  -7   5   10.90    3.40
   4   7  -4  117.89    6.20
  -4   7   4  121.89    9.90
  -4   7   4  107.49    9.80
   4   7  -4  126.79    6.50
   4   7  -4  125.89    6.40
   4  -7  -4  112.59    8.90
   4  -7  -4  134.89    9.80
   4  -7  -4  125.39    9.80
  -4  -7   4  110.99    9.00
   4  -7  -4  126.19    9.40
  -4  -7   4  120.49    6.60
   4   7  -3   13.40    2.40
  -4   7   3   17.50    5.20
   4   7  -3   15.30    1.80
  -4   7   3   14.90    4.00
  -4  -7   3   16.70    2.10
   4  -7  -3   12.90    4.00
   4  -7  -3    8.10    3.60
   4  -7  -3   11.40    4.80
   4  -7  -3    7.60    4.60
  -4  -7   3   14.10    1.90
  -4  -7   3   16.80    4.40
   4   7  -2  142.99    8.30
  -4   7   2  169.58   10.10
  -4   7   2  174.38   10.50
  -4   7   2  169.98    9.50
  -4   7   2  167.38    9.30
   4   7  -2  174.88    8.90
   4  -7  -2  172.98   10.20
   4  -7  -2  167.28   10.60
   4  -7  -2  162.08    9.20
   4  -7  -2  169.28    9.90
  -4  -7   2  157.28    9.60
  -4   7   1   79.59    6.10
   4   7  -1   77.89    5.50
  -4   7   1   63.89    6.90
   4   7  -1   88.49    5.40
  -4   7   1   70.39    6.30
  -4   7   1   69.59    7.40
  -4  -7   1   74.69    6.80
   4  -7  -1   62.19    7.70
  -4  -7   1   76.99    7.20
   4  -7  -1   81.59    6.50
   4  -7  -1   68.49    6.80
   4  -7  -1   86.69    6.00
   4   7   0  156.18    8.30
  -4   7   0  166.58    9.70
  -4   7   0  162.88    9.80
  -4   7   0  160.58    8.30
  -4   7   0  146.89    8.70
   4  -7   0  161.68   10.00
   4  -7   0  150.28    9.50
   4  -7   0  152.98    8.90
   4  -7   0  165.68    8.50
  -4  -7   0  147.99    9.60
  -4   7  -1   63.99    5.90
  -4   7  -1   60.79    5.20
   4   7   1   60.99    3.40
  -4   7  -1   62.99    7.00
   4   7   1   65.29    5.60
  -4   7  -1   62.49    6.80
   4   7   1   59.29    3.50
   4  -7   1   60.69    5.30
   4  -7   1   55.79    5.70
   4  -7   1   61.69    6.60
  -4  -7  -1   53.69    6.30
  -4  -7  -1   55.39    3.60
   4  -7   1   58.29    6.60
  -4  -7  -1   56.99    3.50
  -4   7  -2  522.75   21.10
   4   7   2  478.75   20.40
   4   7   2  542.95   21.10
  -4   7  -2  466.65   20.30
  -4   7  -2  483.05   22.60
  -4   7  -2  469.65   22.40
   4   7   2  538.15   20.50
   4  -7   2  466.55   22.40
   4  -7   2  518.75   21.70
  -4  -7  -2  497.35   22.10
  -4  -7  -2  518.75   20.70
  -4  -7  -2  520.05   20.90
   4  -7   2  497.75   22.40
  -4   7  -3   64.49    7.80
  -4   7  -3   74.79    5.50
   4   7   3   68.29    5.50
   4   7   3   64.89    5.30
  -4   7  -3   74.29    6.10
  -4   7  -3   71.79    8.10
   4   7   3   63.99    5.40
   4  -7   3   75.39    6.50
  -4  -7  -3   66.79    5.80
   4  -7   3   65.59    7.50
  -4  -7  -3   70.39    5.70
  -4  -7  -3   81.49    7.30
   4  -7   3   68.59    8.10
  -4  -7  -3   75.49    5.90
   4   7   4   99.09    7.50
  -4   7  -4   87.49    9.50
  -4   7  -4  114.49    7.30
  -4   7  -4  101.59    9.20
   4   7   4   97.99    7.40
   4  -7   4   97.69    7.40
   4  -7   4   92.39    9.40
  -4  -7  -4   90.19    7.90
  -4  -7  -4   87.19    7.40
  -4  -7  -4  103.39    7.50
   4  -7   4   97.59    9.40
  -4   7  -5   70.49    7.10
   4   7   5   83.49    8.30
   4   7   5   80.59    7.50
  -4   7  -5   62.89    9.20
  -4   7  -5   84.99   10.20
   4  -7   5   65.49    7.00
   4  -7   5   62.99    9.40
  -4  -7  -5   64.49    7.80
  -4  -7  -5   67.19    7.90
   4  -7   5   77.29    9.70
  -4   7  -6   19.60    6.80
  -4   7  -6    9.70    7.10
   4   7   6    6.10    6.10
  -4   7  -6   23.40    4.80
   4   7   6   19.20    5.70
  -4  -7  -6   10.40    5.60
  -4  -7  -6   12.50    6.50
   4  -7   6   12.60    4.80
  -4  -7  -6    1.20    6.80
   4  -7   6   11.20    6.70
   4  -7   6   18.40    7.20
  -4   7  -7   14.50    8.70
   4   7   7   12.50    8.20
   4   7   7    9.00    6.90
  -4   7  -7    8.70    5.50
  -4   7  -7    9.80    9.40
   4  -7   7   -8.00    8.10
   4  -7   7    5.40    8.20
  -4  -7  -7    1.60    7.40
  -4  -7  -7   18.10   10.10
   4  -7   7    9.00    5.70
  -4   8   7    1.70    8.90
   4   8  -7   -4.90    5.00
   4   8  -7    0.90    4.40
  -4  -8   7    4.20    5.40
   4  -8  -7   -8.80    9.00
  -4  -8   7   -6.30    6.00
  -4  -8   7   -0.30    5.60
   4  -8  -7   -6.60    9.10
   4   8  -6   11.70    3.70
  -4   8   6   19.60    8.00
   4   8  -6    8.00    3.90
  -4   8   6   21.10    8.40
  -4   8   6   16.10    6.60
   4  -8  -6   12.00    7.20
  -4  -8   6   14.00    6.40
   4  -8  -6   15.40    7.80
  -4  -8   6   17.00    5.40
   4  -8  -6    7.00    6.90
  -4   8   5  104.29   10.90
   4   8  -5  103.09    6.60
  -4   8   5  115.49   11.30
   4   8  -5  107.29    6.90
  -4  -8   5  112.99    7.40
  -4  -8   5   86.09    7.20
   4  -8  -5  116.19   11.10
  -4  -8   5   98.09    9.20
   4  -8  -5  133.39   11.20
   4  -8  -5   96.49   10.10
   4  -8  -5  107.69   10.10
   4   8  -4   24.60    3.00
   4   8  -4   21.30    3.00
  -4   8   4   34.10    6.80
  -4   8   4   14.20    6.10
   4   8  -4   23.70    2.90
  -4  -8   4   28.40    5.70
   4  -8  -4   26.30    6.10
   4  -8  -4   32.30    6.10
  -4  -8   4   24.90    3.10
   4  -8  -4   32.20    5.70
   4  -8  -4   17.00    5.00
   4   8  -3  210.08   10.90
  -4   8   3  218.18   12.30
  -4   8   3  197.88   11.10
   4   8  -3  182.08    7.90
   4   8  -3  190.08    8.60
   4  -8  -3  184.18   11.00
  -4  -8   3  167.38    8.30
  -4  -8   3  182.68   11.50
   4  -8  -3  196.68   12.40
   4  -8  -3  189.38   11.50
  -4  -8   3  193.78    8.30
   4  -8  -3  200.98   12.10
  -4   8   2  214.08   12.30
  -4   8   2  197.68   11.90
   4   8  -2  203.98   10.60
  -4   8   2  205.08   11.10
  -4   8   2  197.88   10.90
   4  -8  -2  217.28   11.90
   4  -8  -2  205.78   11.40
   4  -8  -2  202.38   12.40
   4  -8  -2  203.28   10.80
  -4  -8   2  188.68   11.40
   4   8  -1   21.10    3.40
  -4   8   1   22.90    3.80
   4   8  -1   25.90    3.20
  -4   8   1   27.20    5.10
  -4   8   1   15.60    4.90
  -4   8   1   26.10    4.20
  -4  -8   1   15.70    4.60
  -4  -8   1   25.80    4.80
   4  -8  -1   25.80    3.80
   4  -8  -1   16.30    3.80
   4  -8  -1   23.70    5.70
   4  -8  -1   22.90    5.00
  -4   8   0   59.89    5.80
  -4   8   0   69.39    7.60
  -4   8   0   71.49    7.40
  -4   8   0   62.29    6.00
   4   8   0   72.99    6.00
   4  -8   0   70.59    7.70
  -4  -8   0   66.09    7.00
   4  -8   0   72.09    7.30
   4  -8   0   72.89    6.30
   4  -8   0   73.19    6.10
  -4   8  -1  270.57   13.50
   4   8   1  268.47   11.70
  -4   8  -1  279.97   14.50
   4   8   1  294.07   11.60
  -4   8  -1  283.37   13.10
   4   8   1  293.37   13.60
  -4   8  -1  296.67   15.00
   4  -8   1  278.17   13.50
  -4  -8  -1  271.87   14.10
  -4  -8  -1  291.47   13.00
   4  -8   1  297.77   14.60
  -4  -8  -1  272.17   11.80
  -4  -8  -1  277.27   11.70
   4  -8   1  282.77   14.50
   4  -8   1  284.47   13.30
  -4   8  -2    4.30    4.40
   4   8   2    3.40    2.20
  -4   8  -2    3.80    4.80
  -4   8  -2    7.20    2.30
   4   8   2    3.70    2.20
  -4   8  -2    2.90    2.70
   4   8   2    1.80    2.80
  -4  -8  -2    2.10    3.80
  -4  -8  -2   -0.90    2.60
   4  -8   2   -1.30    4.50
  -4  -8  -2    2.30    2.40
   4  -8   2    3.20    2.00
   4  -8   2    0.60    3.00
  -4  -8  -2    0.90    2.80
   4  -8   2   -4.50    4.20
  -4   8  -3  185.98   13.30
   4   8   3  226.28   11.10
  -4   8  -3  231.28   14.00
  -4   8  -3  249.48   11.80
  -4   8  -3  241.08   10.70
   4   8   3  247.08   11.30
   4   8   3  241.08   11.40
   4  -8   3  225.08   13.50
   4  -8   3  223.08   13.30
  -4  -8  -3  241.38   11.40
  -4  -8  -3  231.58   13.00
  -4  -8  -3  250.67   11.70
   4  -8   3  232.78   11.90
   4   8   4   57.39    6.10
  -4   8  -4   56.29    6.50
   4   8   4   39.00    5.90
   4   8   4   52.29    6.40
  -4   8  -4   59.59    7.70
  -4   8  -4   48.80    7.40
   4  -8   4   37.00    6.90
  -4  -8  -4   53.99    6.80
  -4  -8  -4   45.70    6.50
   4  -8   4   49.70    6.30
   4  -8   4   45.00    7.00
  -4   8  -5    8.30    7.00
   4   8   5    5.40    4.90
  -4   8  -5   -1.30    5.80
  -4   8  -5    3.90    3.80
   4   8   5   -0.70    4.40
   4  -8   5   -5.70    5.60
  -4  -8  -5    3.20    5.70
   4  -8   5    0.70    5.80
  -4  -8  -5   -9.20    4.30
   4  -8   5    0.90    4.00
  -4  -8  -5    2.00    4.90
   4   8   6    4.00    6.90
  -4   8  -6    4.90    7.80
  -4   8  -6   17.50    7.00
   4   8   6   12.80    5.70
  -4   8  -6   11.50    5.00
   4  -8   6    5.60    7.50
  -4  -8  -6    3.40    6.10
  -4  -8  -6    6.50    7.50
   4  -8   6   -4.20    7.20
  -4  -8  -6   18.40    6.70
   4  -8   6   13.70    4.80
   4   9  -6   11.50    4.20
   4   9  -6    9.60    3.40
  -4   9   6   14.90    8.10
  -4   9   6    6.20    7.20
  -4   9   6    6.70    8.50
   4  -9  -6   -0.40    8.40
   4  -9  -6    3.80    8.50
  -4  -9   6   -0.20    4.30
  -4  -9   6    7.70    4.90
   4  -9  -6   17.60    7.40
  -4  -9   6    9.90    4.90
  -4   9   5   30.70    7.90
   4   9  -5   23.10    3.60
  -4   9   5   28.60    7.80
   4   9  -5   28.10    4.10
  -4   9   5   17.00    5.70
   4  -9  -5   29.70    7.70
  -4  -9   5   24.80    6.00
  -4  -9   5   28.40    4.20
   4  -9  -5   15.10    5.80
   4  -9  -5   12.00    5.90
   4  -9  -5   30.70    7.90
   4   9  -4  407.46   19.10
  -4   9   4  408.96   20.40
   4   9  -4  381.56   16.40
  -4   9   4  444.16   20.80
   4   9  -4  358.76   16.70
  -4   9   4  403.56   19.40
   4  -9  -4  378.96   19.50
   4  -9  -4  425.86   19.80
   4  -9  -4  441.36   20.70
  -4  -9   4  403.46   16.80
  -4  -9   4  342.07   19.20
   4  -9  -4  424.36   20.10
  -4   9   3   37.70    6.60
   4   9  -3   42.50    5.00
  -4   9   3   28.50    5.40
   4   9  -3   29.40    3.00
  -4   9   3   33.70    5.40
   4   9  -3   27.50    2.30
   4  -9  -3   47.60    7.20
  -4  -9   3   30.50    3.00
   4  -9  -3   29.80    5.50
  -4  -9   3   30.90    3.10
   4  -9  -3   39.20    7.50
   4  -9  -3   37.70    5.30
  -4  -9   3   27.50    5.50
  -4   9   2  212.18   12.60
  -4   9   2  208.68   11.20
   4   9  -2  205.38   10.80
   4   9  -2  161.48    9.30
  -4   9   2  193.98   12.40
  -4   9   2  208.88   11.20
   4  -9  -2  203.48   12.10
   4  -9  -2  192.28   11.40
  -4  -9   2  188.08   11.90
   4  -9  -2  189.38   12.70
   4  -9  -2  198.38   11.10
  -4   9   1  193.68   11.90
  -4   9   1  166.18   10.20
  -4   9   1  184.88   10.20
   4   9  -1  183.58    9.10
   4   9  -1  188.18   10.20
  -4   9   1  181.88   11.60
  -4  -9   1  198.68   11.00
   4  -9  -1  182.18   10.20
   4  -9  -1  191.08   12.00
   4  -9  -1  184.38   11.30
   4  -9  -1  174.48   10.60
  -4   9   0   72.19    8.10
  -4   9   0   57.99    7.60
  -4   9   0   53.69    6.20
  -4   9   0   69.89    6.30
   4   9   0   60.49    6.30
   4  -9   0   66.39    7.60
  -4  -9   0   67.29    3.20
   4  -9   0   71.79    8.30
   4  -9   0   66.99    6.40
  -4  -9   0   62.19    7.10
  -4  -9   0   63.49    3.30
   4  -9   0   64.09    6.60
  -4   9  -1   40.20    6.80
   4   9   1   32.90    3.50
   4   9   1   35.70    4.70
  -4   9  -1   34.40    4.70
  -4   9  -1   31.00    4.20
  -4   9  -1   35.10    5.80
   4   9   1   32.90    2.90
  -4  -9  -1   34.50    4.40
  -4  -9  -1   30.60    5.50
  -4  -9  -1   25.20    3.50
  -4  -9  -1   29.90    3.20
   4  -9   1   38.20    6.10
   4  -9   1   32.30    5.70
   4  -9   1   31.70    4.40
   4  -9   1   35.10    4.50
  -4   9  -2  301.27   16.80
   4   9   2  354.66   15.60
   4   9   2  348.67   14.20
  -4   9  -2  339.57   15.30
   4   9   2  321.27   14.20
  -4   9  -2  336.07   17.50
   4  -9   2  330.57   17.00
   4  -9   2  333.97   13.70
   4  -9   2  330.67   15.30
  -4  -9  -2  331.47   14.40
  -4  -9  -2  319.97   16.10
  -4  -9  -2  331.07   15.10
   4  -9   2  292.97   16.60
  -4  -9  -2  334.87   14.30
   4   9   3    5.00    3.30
   4   9   3    1.70    2.80
  -4   9  -3    4.40    4.90
  -4   9  -3    5.80    3.40
  -4   9  -3    6.70    2.80
  -4   9  -3    4.70    5.50
   4   9   3    2.90    3.40
   4  -9   3   11.90    5.50
   4  -9   3   -0.30    3.30
  -4  -9  -3    3.90    3.50
  -4  -9  -3    3.10    3.40
  -4  -9  -3   -2.10    3.30
  -4  -9  -3    5.30    4.80
   4  -9   3    7.50    5.80
  -4   9  -4   42.80    7.20
  -4   9  -4   40.30    7.60
   4   9   4   44.50    6.60
   4   9   4   46.00    6.40
  -4   9  -4   49.90    5.40
   4   9   4   39.60    6.40
  -4  -9  -4   41.60    5.80
   4  -9   4   50.69    6.20
   4  -9   4   43.30    7.30
  -4  -9  -4   47.80    6.70
   4  -9   4   42.60    7.40
  -4  -9  -4   60.09    8.50
  -4   9  -5   24.70    5.10
  -4   9  -5   15.60    6.60
   4   9   5   31.00    6.10
   4   9   5   29.10    6.00
  -4   9  -5   26.80    7.80
   4  -9   5   32.20    5.00
   4  -9   5   25.90    7.30
   4  -9   5   33.70    7.90
  -4  -9  -5   32.80    6.00
  -4  -9  -5   21.30    5.80
  -4   9  -6   38.20    8.60
  -4   9  -6   35.90    9.70
   4   9   6   20.90    6.50
  -4   9  -6   25.40    5.50
   4   9   6   25.00    7.30
  -4  -9  -6    5.90    6.90
   4  -9   6   28.10    8.80
  -4  -9  -6   41.20    7.60
   4  -9   6   21.30    8.10
   4  -9   6   32.70    5.70
   4  10  -6    0.10    5.90
  -4  10   6   16.50    9.00
   4  10  -6   -1.20    4.20
  -4  10   6   -4.50    7.30
   4  10  -6    2.20    3.20
  -4  10   6   -2.40    8.90
   4 -10  -6    6.90    8.80
  -4 -10   6   -1.30    4.50
  -4 -10   6    1.50    5.50
   4 -10  -6   14.60    9.10
   4 -10  -6   -0.10    8.20
  -4 -10   6   -1.10    4.90
   4  10  -5   93.89    6.70
  -4  10   5   96.09   11.20
  -4  10   5   98.29   12.90
   4  10  -5  103.09    7.20
   4  10  -5   97.59   10.40
  -4  10   5   79.09   12.30
  -4 -10   5   82.99    7.20
  -4 -10   5   87.79    9.40
   4 -10  -5   97.49   13.00
   4 -10  -5  116.79   12.10
   4 -10  -5   88.49   11.50
  -4  10   4    3.00    6.80
   4  10  -4    0.90    4.00
  -4  10   4   -6.20    6.50
   4  10  -4    1.20    1.90
   4  10  -4    1.00    2.50
  -4  10   4   -1.90    4.90
  -4 -10   4    2.10    2.50
   4 -10  -4   -7.30    7.00
   4 -10  -4   -0.40    5.30
   4 -10  -4    2.00    6.50
   4 -10  -4   -1.50    5.20
  -4 -10   4    1.60    2.50
  -4 -10   4   -1.40    4.40
   4  10  -3  389.56   17.90
  -4  10   3  334.87   16.10
  -4  10   3  363.86   18.30
  -4  10   3  393.96   19.40
  -4  10   3  397.56   18.30
  -4 -10   3  357.36   18.70
   4 -10  -3  405.36   20.20
  -4 -10   3  382.56   15.40
   4 -10  -3  377.46   18.40
   4 -10  -3  389.26   18.60
   4 -10  -3  391.96   19.70
  -4 -10   3  339.37   15.30
  -4  10   2    5.20    5.90
   4  10  -2    3.20    2.50
  -4  10   2    3.90    3.70
   4  10  -2    3.50    3.40
  -4  10   2    2.60    5.60
  -4  10   2    5.30    4.20
  -4 -10   2    1.60    4.80
  -4 -10   2    7.10    1.40
   4 -10  -2    8.90    4.40
   4 -10  -2   11.20    4.10
   4 -10  -2    6.90    5.20
  -4 -10   2    5.60    1.20
   4 -10  -2    1.50    5.70
  -4  10   1    0.30    4.90
  -4  10   1   -1.90    3.50
   4  10  -1    2.90    2.50
  -4  10   1   -0.90    3.70
  -4  10   1   -2.20    5.00
   4  10  -1    1.50    3.20
  -4 -10   1   -3.30    3.50
  -4 -10   1   -0.30    4.00
   4 -10  -1    5.50    6.00
   4 -10  -1   -0.20    3.40
   4 -10  -1   -0.40    3.70
   4 -10  -1    6.70    5.20
  -4  10   0    7.50    3.80
   4  10   0   11.10    3.80
  -4  10   0    5.90    5.50
  -4  10   0    9.40    5.30
  -4  10   0    8.10    3.50
   4 -10   0   18.00    5.30
  -4 -10   0    9.20    1.70
   4 -10   0    9.50    3.60
  -4 -10   0    6.80    4.20
   4 -10   0    6.90    4.80
  -4 -10   0    8.60    1.70
   4 -10   0    2.50    3.90
  -4  10  -1  287.17   15.20
  -4  10  -1  265.97   13.50
   4  10   1  275.97   11.60
  -4  10  -1  285.07   15.60
   4  10   1  278.27   14.20
  -4  10  -1  274.17   13.60
   4  10   1  254.67   11.90
   4 -10   1  285.77   14.00
   4 -10   1  274.17   13.50
   4 -10   1  290.97   15.30
  -4 -10  -1  247.78   14.10
  -4 -10  -1  274.47   12.20
  -4 -10  -1  286.57   13.60
  -4 -10  -1  263.17   11.90
   4 -10   1  295.67   15.40
   4  10   2   27.10    4.70
   4  10   2   31.60    4.10
   4  10   2   27.60    4.20
  -4  10  -2   27.80    6.80
  -4  10  -2   30.20    6.40
  -4  10  -2   30.50    4.70
  -4 -10  -2   25.00    3.70
   4 -10   2   31.60    6.00
  -4 -10  -2   32.30    5.80
   4 -10   2   25.30    3.60
  -4 -10  -2   29.80    3.80
  -4 -10  -2   26.40    4.50
   4 -10   2   27.80    6.30
   4 -10   2   22.20    4.10
  -4  10  -3  224.88   12.10
  -4  10  -3  208.68   13.90
   4  10   3  209.48   11.90
   4  10   3  208.08   10.60
   4  10   3  222.18   10.90
  -4  10  -3  207.08   14.60
  -4 -10  -3  206.18   12.70
  -4 -10  -3  228.68   11.20
   4 -10   3  207.48   11.20
   4 -10   3  228.68   10.20
  -4 -10  -3  209.48   10.90
  -4 -10  -3  204.98   11.80
   4 -10   3  201.98   14.20
   4 -10   3  207.48   13.90
   4  10   4   13.60    4.40
   4  10   4    9.00    4.30
  -4  10  -4    5.40    4.50
   4  10   4    7.00    4.10
  -4  10  -4    4.10    7.40
  -4  10  -4   10.10    6.30
   4 -10   4   13.30    3.60
  -4 -10  -4    9.00    4.60
   4 -10   4    4.80    3.80
  -4 -10  -4    6.40    4.60
   4 -10   4    9.30    6.40
   4 -10   4   17.40    6.90
  -4 -10  -4   10.60    6.10
  -4  10  -5    0.00    6.80
   4  10   5    6.90    5.10
   4  10   5   13.20    6.20
  -4  10  -5    9.20    4.90
  -4  10  -5    6.90    8.30
  -4 -10  -5    0.30    5.90
  -4 -10  -5   -6.10    6.00
   4 -10   5    8.50    7.30
   4 -10   5    5.90    7.50
   4 -10   5    6.10    4.40
  -4 -10  -5    4.00    5.40
  -4  10  -6    2.10    7.50
   4  10   6   11.10    7.90
  -4  10  -6    4.10    8.70
  -4  10  -6   -2.00    5.60
   4  10   6   -3.70    6.20
  -4 -10  -6   -3.60    7.10
   4 -10   6    3.20    5.10
   4 -10   6    3.60    7.90
   4 -10   6  -10.70    9.00
  -4 -10  -6    7.90    9.00
  -4  11   5   -3.30    6.30
  -4  11   5    4.70    8.70
   4  11  -5    3.10    3.20
   4  11  -5    5.40    5.50
  -4  11   5    3.30    8.70
   4  11  -5    1.20    3.50
  -4 -11   5    3.30    5.40
   4 -11  -5   -2.70    8.40
   4 -11  -5    8.60    8.40
   4 -11  -5   -2.20    7.10
   4  11  -4  195.98    9.30
  -4  11   4  224.08   14.00
  -4  11   4  209.38   15.50
   4  11  -4  226.28   13.30
   4  11  -4  208.88    9.60
  -4  11   4  236.08   16.10
   4 -11  -4  191.38   13.70
  -4 -11   4  193.28   13.20
   4 -11  -4  222.18   14.20
  -4 -11   4  203.88   10.10
   4 -11  -4  224.08   16.20
   4 -11  -4  209.18   15.20
  -4  11   3    1.40    4.90
  -4  11   3   10.90    4.70
   4  11  -3    0.80    3.80
  -4  11   3    0.60    6.30
   4 -11  -3   -0.50    4.60
  -4 -11   3    2.50    4.40
   4 -11  -3   -1.10    4.60
  -4 -11   3   -0.90    1.80
   4 -11  -3    6.20    7.20
  -4 -11   3   -2.90    2.00
   4 -11  -3   -0.10    7.30
  -4  11   2   89.79    9.00
  -4  11   2   98.39   11.20
  -4  11   2   75.09   10.20
   4  11  -2   83.09    5.50
   4  11  -2   90.09    8.40
  -4  11   2  104.39    8.60
  -4 -11   2   78.89    9.00
   4 -11  -2   87.69    8.80
   4 -11  -2   95.49    9.20
   4 -11  -2   82.99   11.10
  -4 -11   2   90.19    4.40
  -4 -11   2   73.89    4.30
   4 -11  -2   92.79   10.30
  -4  11   1    9.80    5.90
  -4  11   1    4.20    3.80
  -4  11   1   -6.30    5.40
   4  11  -1    0.90    2.90
   4  11  -1    8.60    4.10
  -4  11   1    1.20    3.90
  -4 -11   1    3.00    1.50
  -4 -11   1   -0.20    4.00
   4 -11  -1   -3.00    5.80
   4 -11  -1    1.90    4.10
   4 -11  -1    4.10    5.50
  -4 -11   1    3.80    1.70
   4 -11  -1   -5.30    3.70
   4  11   0   62.59    8.30
   4  11   0   83.49    3.90
  -4  11   0   79.79    7.90
  -4  11   0   78.69    7.30
   4  11   0   84.49    3.90
  -4  11   0  104.99    9.90
  -4  11   0   96.39   10.00
   4 -11   0   82.99    9.60
  -4 -11   0   86.39    4.70
   4 -11   0   88.49    9.40
  -4 -11   0   77.49    4.50
   4 -11   0   83.29    7.70
   4 -11   0   69.79    7.80
  -4 -11   0   93.59    8.20
   4  11   1   -0.30    4.00
   4  11   1    1.00    2.10
  -4  11  -1    2.80    3.70
  -4  11  -1    7.30    5.60
  -4  11  -1   -7.20    3.50
  -4  11  -1   -3.40    5.50
   4  11   1    4.00    2.60
  -4 -11  -1    0.50    3.40
   4 -11   1   -0.20    4.00
   4 -11   1   -3.90    5.40
   4 -11   1    0.90    5.40
   4 -11   1    6.70    3.50
  -4 -11  -1   -2.00    2.80
  -4 -11  -1   -3.00    4.20
  -4  11  -2  297.77   16.00
  -4  11  -2  366.06   18.50
   4  11   2  336.47   14.30
  -4  11  -2  338.07   17.70
   4  11   2  316.07   16.50
   4  11   2  312.77   14.50
   4 -11   2  309.77   13.80
   4 -11   2  331.77   15.50
   4 -11   2  346.57   18.00
  -4 -11  -2  333.17   16.00
  -4 -11  -2  338.67   14.80
  -4 -11  -2  297.27   16.50
  -4 -11  -2  319.07   14.60
   4 -11   2  339.37   18.20
   4  11   3    4.30    3.30
  -4  11  -3    5.70    5.80
   4  11   3    0.80    3.30
   4  11   3    4.10    4.40
  -4  11  -3   -4.40    4.00
  -4  11  -3   -8.90    6.80
   4 -11   3    2.50    6.60
  -4 -11  -3    4.90    4.00
  -4 -11  -3    3.00    4.40
   4 -11   3    2.10    6.70
  -4 -11  -3    0.70    3.60
   4 -11   3    1.60    3.60
   4 -11   3    5.20    2.80
  -4 -11  -3   -4.30    5.00
  -4  11  -4   28.40    5.70
   4  11   4   18.90    5.40
   4  11   4   34.20    5.50
  -4  11  -4   22.20    8.70
   4  11   4   35.00    5.40
  -4  11  -4   35.20    8.20
   4 -11   4   22.50    7.60
   4 -11   4   35.80    4.50
  -4 -11  -4   26.70    6.00
  -4 -11  -4   26.20    5.50
  -4 -11  -4   29.90    7.30
   4 -11   4   22.20    7.60
   4 -11   4   30.20    4.80
  -4 -11  -4   26.20    6.20
   4  11   5    9.60    6.10
   4  11   5    0.20    5.40
  -4  11  -5   -3.20    8.20
  -4  11  -5    6.00    5.50
  -4  11  -5    8.30    7.90
   4 -11   5   13.20    4.60
   4 -11   5   -1.20    7.60
  -4 -11  -5    2.80    6.60
   4 -11   5    8.10    4.70
   4 -11   5   10.50    9.80
  -4 -11  -5    8.30    7.00
  -4 -11  -5   18.80    6.50
   4  12  -5   57.09    6.30
   4  12  -5   67.39    8.70
  -4  12   5   55.59   11.70
  -4  12   5   38.50    7.40
  -4  12   5   75.39   13.10
   4  12  -5   58.99    5.60
  -4 -12   5   61.39    8.60
   4 -12  -5   59.59   11.10
   4 -12  -5   60.79    9.90
   4 -12  -5   50.79   11.20
  -4  12   4    3.20    8.90
  -4  12   4   -2.10    8.70
   4  12  -4   -0.60    2.20
   4  12  -4    2.00    2.70
   4  12  -4    1.60    5.40
  -4  12   4    9.10    6.10
   4 -12  -4    2.20    9.20
  -4 -12   4    2.40    3.20
   4 -12  -4   -1.80    8.40
   4 -12  -4   -3.90    6.40
  -4 -12   4    4.20    3.00
  -4 -12   4    2.30    4.80
  -4  12   3  178.58   12.10
  -4  12   3  149.69   12.30
   4  12  -3  160.78   11.80
  -4  12   3  170.08   14.20
   4 -12  -3  164.88   15.20
  -4 -12   3  149.49   11.90
   4 -12  -3  176.48   12.80
   4 -12  -3  188.58   14.50
   4 -12  -3  174.38   12.80
  -4 -12   3  178.88    8.20
  -4  12   2   11.80    4.90
  -4  12   2    4.20    6.50
   4  12  -2   -2.40    3.90
  -4  12   2   13.30    6.50
   4  12  -2    2.10    2.10
  -4  12   2    0.00    4.90
  -4 -12   2    0.30    1.90
  -4 -12   2    0.10    1.70
   4 -12  -2    2.00    7.00
  -4 -12   2    3.00    5.00
   4 -12  -2    2.30    4.70
   4 -12  -2    2.20    4.70
   4 -12  -2    7.70    7.00
  -4  12   1    0.90    6.90
  -4  12   1   -0.80    5.80
   4  12  -1    3.00    2.80
   4  12  -1   -4.20    3.90
  -4  12   1   -4.80    4.00
  -4 -12   1   -0.40    1.60
   4 -12  -1   -6.30    5.90
  -4 -12   1   -2.00    1.80
   4 -12  -1    3.70    4.70
   4 -12  -1   -0.20    4.20
   4 -12  -1   -4.20    6.40
  -4  12   0   10.40    6.20
  -4  12   0   -0.30    4.10
   4  12   0   -0.70    1.80
  -4  12   0   -3.70    3.50
   4  12   0    0.80    1.50
  -4  12   0    5.60    6.00
   4  12   0   -1.20    4.10
  -4 -12   0    1.30    4.60
  -4 -12   0    2.10    1.90
   4 -12   0    7.50    6.40
   4 -12   0    0.00    5.80
   4 -12   0    1.10    4.00
   4 -12   0   -4.20    4.10
  -4 -12   0   -0.30    2.20
   4  12   1  306.37   13.30
   4  12   1  322.07   16.50
  -4  12  -1  324.97   17.20
  -4  12  -1  330.57   17.90
   4  12   1  313.97   13.70
  -4  12  -1  299.57   15.20
  -4  12  -1  297.07   15.80
   4 -12   1  302.17   15.30
   4 -12   1  320.57   17.50
   4 -12   1  327.87   17.60
   4 -12   1  332.77   16.40
  -4 -12  -1  286.17   14.20
  -4 -12  -1  309.87   16.20
   4  12   2   -0.30    3.20
  -4  12  -2   -2.80    4.00
  -4  12  -2    1.40    6.10
   4  12   2   -2.10    3.00
   4  12   2   -7.30    4.40
  -4  12  -2    0.80    6.90
  -4 -12  -2   -5.00    4.70
   4 -12   2   -1.30    6.10
  -4 -12  -2    3.00    5.00
   4 -12   2   13.80    6.40
   4 -12   2    1.00    3.60
  -4 -12  -2    0.30    3.80
  -4 -12  -2    2.20    3.40
  -4  12  -3  139.49   13.00
  -4  12  -3  118.69   13.90
   4  12   3  129.59   10.80
  -4  12  -3  129.79   10.60
   4  12   3  143.59    8.60
   4  12   3  117.89    8.30
   4 -12   3  131.39    7.50
  -4 -12  -3  116.89   11.20
   4 -12   3  145.69   12.50
   4 -12   3  133.69    8.90
   4 -12   3  136.89   14.20
  -4  12  -4    0.50    8.40
   4  12   4    5.80    4.80
   4  12   4    0.10    4.60
  -4  12  -4   -4.90    7.00
   4  12   4    4.10    5.40
  -4  12  -4    0.30    5.00
   4 -12   4    4.40    3.30
  -4 -12  -4   -3.60    5.00
  -4 -12  -4    7.90    5.80
   4 -12   4    9.00    7.80
  -4 -12  -4    5.90    6.30
   4 -12   4    0.20    4.00
   4 -12   4    0.60    8.40
   4  12   5    6.80    6.10
  -4  12  -5  -21.70    9.60
   4  12   5   -3.10    6.00
  -4  12  -5    8.10    7.90
  -4 -12  -5   -0.20    6.60
   4 -12   5   -2.20    4.90
   4 -12   5    3.30   12.40
   4 -12   5   10.50    8.70
  -4 -12  -5   12.00    7.40
  -4  13   4  112.99   15.50
  -4  13   4  145.79   15.80
   4  13  -4  119.19    6.60
  -4  13   4  122.99   12.80
  -4  13   4   91.09   13.10
   4  13  -4  114.39    6.20
   4  13  -4  115.89   11.50
   4 -13  -4  132.19   16.40
   4 -13  -4  105.79   13.60
  -4 -13   4  118.39   11.30
   4 -13  -4  146.59   16.10
   4  13  -3    0.40    5.40
  -4  13   3    4.30    5.60
  -4  13   3   -1.10    8.40
  -4  13   3    4.90    6.00
   4 -13  -3    3.10    8.50
   4 -13  -3    7.50    9.00
  -4 -13   3   -0.10    2.30
   4 -13  -3   10.90    6.60
   4 -13  -3    2.70    6.20
  -4 -13   3   -0.40    5.30
  -4 -13   3    4.60    2.70
  -4  13   2   94.09    9.80
   4  13  -2   96.59    9.90
  -4  13   2   95.09   10.60
  -4  13   2  114.89   12.60
  -4  13   2   86.49   12.50
   4 -13  -2   98.19   10.40
   4 -13  -2   96.49   12.70
  -4 -13   2  105.39    9.90
   4 -13  -2  106.69   10.30
  -4 -13   2   98.09    5.70
   4 -13  -2   91.49   12.60
  -4  13   1   58.69    8.60
   4  13  -1   33.90    5.20
  -4  13   1   30.80    7.40
   4  13  -1   25.90    5.30
  -4 -13   1   38.40    3.90
   4 -13  -1   48.80    8.60
   4 -13  -1   26.60    5.70
   4 -13  -1   36.30    7.80
   4 -13  -1   62.69    9.10
   4  13   0   46.50    6.30
   4  13   0   46.30    3.80
  -4  13   0   47.40    6.00
  -4  13   0   46.70    6.50
  -4  13   0   50.39    8.30
  -4  13   0   39.80    8.20
   4  13   0   37.80    3.40
   4 -13   0   41.00    6.40
  -4 -13   0   55.19    7.60
   4 -13   0   71.79    9.40
   4 -13   0   57.09    6.50
   4 -13   0   40.50    8.10
  -4 -13   0   35.80    4.50
  -4  13  -1   20.50    4.80
   4  13   1   31.30    4.90
  -4  13  -1   34.20    8.40
   4  13   1   30.70    6.20
  -4  13  -1   26.60    7.20
   4  13   1   24.90    3.30
  -4  13  -1    7.90    4.80
  -4 -13  -1   17.50    5.30
   4 -13   1   25.20    7.30
   4 -13   1   16.60    5.70
   4 -13   1   22.50    5.00
   4 -13   1   24.10    7.30
  -4  13  -2  233.28   15.30
   4  13   2  204.88   11.40
  -4  13  -2  218.58   13.40
  -4  13  -2  255.07   16.70
   4  13   2  216.68   11.00
   4  13   2  207.48   14.00
   4 -13   2  205.48   15.70
  -4 -13  -2  204.88   13.60
   4 -13   2  243.68   15.60
   4 -13   2  229.98   12.10
   4  13   3   -7.00    4.00
   4  13   3   -3.20    5.50
  -4  13  -3    9.80    7.30
  -4  13  -3    2.70    5.00
   4  13   3    3.90    4.10
  -4  13  -3    6.50    8.70
   4 -13   3   12.80    9.00
   4 -13   3    7.30    4.30
  -4 -13  -3    2.60    4.20
   4 -13   3   16.60    7.20
  -4 -13  -3   -4.10    6.50
  -4 -13  -3    9.10    5.10
  -4 -13  -3   -5.20    7.30
   4 -13   3    3.70    3.40
  -4  13  -4   13.20    9.60
  -4  13  -4   25.00    9.30
   4  13   4   26.30    6.00
   4  13   4   36.80    5.60
   4  13   4   25.30    6.80
  -4  13  -4   24.90    6.30
   4 -13   4   24.20    4.60
   4 -13   4   29.40    8.90
  -4 -13  -4   35.80    7.80
   4 -13   4   14.90    9.30
   4 -13   4   21.50    5.30
  -4 -13  -4   14.90    6.80
  -4 -13  -4   28.10    7.20
  -4  14   3  139.89   16.10
   4  14  -3  118.09   12.00
  -4  14   3  105.79   11.90
  -4  14   3  116.49   12.80
   4 -14  -3  127.39   15.70
   4 -14  -3  146.29   16.00
   4 -14  -3  118.89   13.70
  -4 -14   3  116.69   11.50
  -4  14   2   19.40    8.50
  -4  14   2   14.60    6.80
  -4  14   2   12.40    5.60
   4  14  -2    4.00    5.50
  -4  14   2   14.80    8.00
   4 -14  -2   10.40    6.00
   4 -14  -2   19.20    6.60
   4 -14  -2   43.40   10.00
   4 -14  -2   28.70    9.70
  -4 -14   2    7.00    5.50
  -4  14   1   -1.80    5.40
   4  14  -1    1.30    2.70
  -4  14   1   11.30    7.60
  -4  14   1    0.20    4.90
   4  14  -1    2.50    5.20
   4  14  -1   -0.60    3.10
  -4  14   1  -10.20    7.50
   4 -14  -1   -0.10    7.30
  -4 -14   1    3.30    2.70
   4 -14  -1   -7.10    5.00
   4 -14  -1    3.00    5.50
  -4 -14   1    0.50    2.50
   4 -14  -1    0.00    8.30
  -4  14   0   26.50    7.40
   4  14   0    9.40    5.70
  -4  14   0   27.70    5.70
   4  14   0   22.00    2.90
  -4  14   0   44.00    9.20
   4  14   0   19.20    2.70
  -4 -14   0   23.00    5.70
   4 -14   0   26.60    5.70
   4 -14   0   11.90    7.60
   4 -14   0   24.70    6.20
  -4 -14   0   17.10    3.50
  -4  14  -1   79.19    8.70
  -4  14  -1   96.39   12.90
  -4  14  -1   82.89   10.10
   4  14   1   90.99    6.90
   4  14   1   94.29    6.50
   4  14   1   97.49   11.40
  -4  14  -1   97.49   12.10
  -4 -14  -1   76.39    7.90
  -4 -14  -1   89.49    9.30
   4 -14   1  107.69   11.70
   4 -14   1   94.89    8.90
   4 -14   1   96.09   12.70
   4 -14   1  112.29   12.30
  -4  14  -2    3.00    6.70
   4  14   2    2.10    3.50
   4  14   2    0.00    4.40
   4  14   2   -5.20    5.80
  -4  14  -2    2.40    5.50
  -4  14  -2    8.00    8.50
   4 -14   2   -6.40    7.80
  -4 -14  -2    1.90    6.00
   4 -14   2    4.20    4.70
   4 -14   2   11.60    8.10
  -4 -14  -2   -0.20    4.20
  -4 -14  -2   -7.20    6.60
  -4 -14  -2   -1.10    6.10
  -4  14  -3   89.29   11.40
   4  14   3   87.19    8.40
  -4  14  -3  100.79   13.50
  -4  14  -3   92.49   13.00
   4  14   3   79.89   12.00
   4  14   3   83.69    7.70
   4 -14   3   89.69   12.90
  -4 -14  -3   96.89   10.40
   4 -14   3   93.79    6.90
  -4 -14  -3   92.49   11.10
  -4 -14  -3   84.29    9.80
   4 -14   3  111.79   12.90
   4 -14   3  106.39    8.50
   4  15  -1   77.59    4.70
  -4  15   1  114.99   14.00
   4  15  -1   84.29   12.20
   4  15  -1   90.69    6.90
  -4  15   1  108.59   11.70
   4  15  -1   82.79    5.90
  -4  15   1  124.09   14.20
   4  15  -1   84.29    4.80
   4 -15  -1  115.79   11.20
   4 -15  -1  123.39   12.40
  -4  15   0   29.30    6.10
   4  15   0   17.70    4.40
  -4  15   0   14.40    6.40
   4  15   0   23.90    3.20
  -4  15   0   27.40    9.30
  -4  15   0    9.00    7.70
   4  15   0    9.60    6.80
   4  15   0   29.70    4.40
   4 -15   0   28.00   10.00
   4 -15   0   10.30    8.70
   4 -15   0   18.00    5.90
   4 -15   0   19.80    7.10
  -4  15  -1   46.40    8.90
  -4  15  -1   36.20   10.20
   4  15   1   24.90    7.30
   4  15   1   31.00    4.10
   4  15   1   23.30    5.40
  -4  15  -1   35.90    6.20
   4  15   1   31.70    4.50
  -4  15  -1   15.50    6.30
   4 -15   1   25.30    8.00
  -4 -15  -1   27.10    7.40
   4 -15   1   35.50    9.70
   4 -15   1   35.50    6.30
  -5   0   7   -4.30    8.80
   5   0  -7  -12.50    5.70
  -5   0   7  -11.10    6.00
   5   0  -7   -9.80    5.60
  -5   0   7    1.20    6.70
   5   0  -6    7.00    4.80
   5   0  -6    4.10    4.60
   5   0  -6    6.50    4.40
  -5   0   6   10.20    6.40
  -5   0   6    5.10    5.30
  -5   0   6   10.20    5.50
   5   0  -4  308.47   13.90
   5   0  -4  304.77   14.60
   5   0  -4  295.77   13.60
  -5   0   4  307.17   14.70
  -5   0   4  272.87   13.70
  -5   0   4  305.07   13.90
  -5   0   4  309.57   14.00
  -5   0   3  115.79    7.90
   5   0  -2  119.89    6.80
   5   0  -2  140.79    8.20
  -5   0   2  126.49    7.00
  -5   0   2  140.49    8.30
   5   0  -2  139.19    6.80
  -5   0   2  137.59    7.20
   5   0  -1   -1.20    1.80
  -5   0   1    0.60    2.60
  -5   0   1   -2.60    2.00
  -5   0   1   -1.30    1.90
  -5   0   1    0.30    2.10
   5   0  -1   -2.00    1.70
   5   0  -1    0.30    2.30
  -5   0   0  166.78    9.10
   5   0   0  167.38    8.20
  -5   0   0  168.48    8.10
  -5   0   0  156.98    8.30
   5   0   0  158.18    9.00
   5   0   0  162.28    7.80
   5   0   1  109.59    7.60
  -5   0  -1  136.99    7.80
   5   0   2  804.82   32.80
   5   0   2  823.32   32.80
  -5   0  -2  773.92   33.10
   5   0   2  800.52   33.30
  -5   0  -2  842.92   32.90
  -5   0  -2  814.52   32.90
   5   0   4   60.09    6.80
  -5   0  -4   63.99    7.30
  -5   0  -4   64.39    3.80
   5   0   4   58.99    6.90
  -5   0  -4   64.49    6.90
   5   0   5   -1.20    4.60
   5   0   5   -5.30    3.70
  -5   0  -5   -4.70    2.40
  -5   0  -5   -4.20    4.60
   5   0   6   39.90    7.50
  -5   0  -6   41.00    7.70
   5   0   6   55.89    8.90
   5   0   7    5.70    7.40
  -5   0  -7    1.50    7.90
   5   0   7   -6.70    8.80
  -5   0  -7   17.70    9.10
  -5   0  -7    4.10    5.20
   5   1  -7    3.90    5.80
  -5   1   7   -8.00    6.60
   5   1  -7    5.10    6.00
  -5   1   7    0.90    6.40
  -5   1   7   -4.10    6.80
   5  -1  -7    2.90    6.40
  -5  -1   7    6.20    6.50
  -5  -1   7    0.90    6.40
   5  -1  -7   -2.50    7.30
   5  -1  -7   -8.90    5.80
  -5   1   6   -7.50    4.50
  -5   1   6   -1.90    5.90
  -5   1   6   -6.70    5.10
   5   1  -6   -5.40    4.40
   5   1  -6   -7.30    3.90
   5   1  -6    8.10    4.40
  -5  -1   6    2.90    4.00
  -5  -1   6   -6.50    4.50
   5  -1  -6   -3.50    4.30
  -5  -1   6    5.00    5.00
   5  -1  -6   -0.10    4.80
   5  -1  -6   -9.50    4.40
   5   1  -5  354.16   16.20
  -5   1   5  342.87   16.50
  -5   1   5  345.07   16.90
  -5   1   5  356.56   16.60
   5   1  -5  350.56   15.70
   5   1  -5  363.16   16.60
  -5  -1   5  336.07   16.70
   5  -1  -5  343.27   16.00
  -5  -1   5  344.17   16.50
   5  -1  -5  367.26   17.00
  -5  -1   5  342.27   16.00
  -5  -1   5  343.57   16.20
   5  -1  -5  349.27   16.50
  -5   1   3  554.94   23.70
  -5   1   3  560.74   22.70
  -5   1   3  558.94   23.10
   5   1  -3  535.75   23.50
   5   1  -3  543.75   22.50
   5   1  -3  579.94   22.60
  -5   1   3  556.24   23.00
   5  -1  -3  535.95   22.90
  -5  -1   3  529.65   22.60
   5  -1  -3  541.35   23.70
  -5  -1   3  548.55   23.00
   5  -1  -3  559.04   23.00
  -5  -1   3  564.74   23.60
  -5  -1   3  541.15   22.60
  -5   1   2   26.90    3.60
   5   1  -2   37.80    4.80
   5   1  -2   22.40    3.00
  -5   1   2   26.70    3.70
  -5   1   2   31.60    4.30
  -5  -1   2   17.40    3.60
  -5  -1   2   28.30    4.00
   5  -1  -2   23.70    3.60
  -5  -1   2   37.60    3.70
   5  -1  -2   34.60    5.00
  -5   1   1    0.30    2.40
   5   1  -1    1.20    1.60
   5   1  -1    0.40    1.50
   5   1  -1    0.50    2.30
  -5   1   1   -2.30    2.70
  -5   1   1   -1.20    2.40
  -5  -1   1   -2.90    1.90
   5  -1  -1    1.10    2.00
  -5  -1   1    1.30    2.90
  -5  -1   1    0.10    2.10
   5  -1  -1   -3.10    2.40
  -5  -1   1    0.70    1.90
   5  -1  -1   -0.10    1.50
   5  -1  -1    1.30    2.20
   5   1   0   66.39    5.30
  -5   1   0   65.29    5.30
  -5   1   0   57.09    5.50
   5   1   0   52.09    3.80
   5   1   0   56.49    4.20
  -5   1   0   66.39    5.10
   5  -1   0   46.50    5.10
  -5  -1   0   53.79    5.70
  -5  -1   0   59.09    4.60
   5  -1   0   69.29    5.10
  -5  -1   0   59.89    4.20
   5  -1   0   51.79    4.40
   5  -1   0   57.89    5.60
  -5   1  -1  527.15   23.20
   5   1   1  573.34   23.60
  -5   1  -1  598.94   23.30
  -5   1  -1  522.65   23.40
   5   1   1  537.55   22.80
   5   1   1  590.74   22.70
  -5  -1  -1  547.55   22.80
  -5  -1  -1  609.54   22.80
  -5  -1  -1  517.25   23.60
   5  -1   1  530.65   23.20
   5  -1   1  574.24   23.10
   5  -1   1  575.94   23.80
   5  -1   1  526.55   23.00
  -5   1  -2  198.68   10.10
  -5   1  -2  203.28   10.00
  -5   1  -2  171.28    9.70
  -5   1  -3  341.17   17.70
   5   1   3  408.66   17.60
  -5   1  -3  406.96   17.90
  -5   1  -3  426.16   18.10
   5   1   3  407.46   17.60
  -5  -1  -3  397.96   17.60
  -5  -1  -3  418.16   18.30
   5  -1   3  414.36   18.00
   5  -1   3  392.66   17.80
   5  -1   3  388.36   18.10
  -5  -1  -3  403.36   17.80
  -5   1  -4   48.30    3.30
  -5   1  -4   41.20    6.50
  -5   1  -4   48.90    7.10
   5   1   4   26.80    4.70
   5   1   4   32.60    5.00
  -5  -1  -4   34.50    3.20
  -5  -1  -4   36.30    5.40
   5  -1   4   37.10    5.50
  -5  -1  -4   37.20    5.20
   5  -1   4   41.80    5.60
  -5   1  -5   -3.20    4.60
   5   1   5   -7.60    4.00
  -5   1  -5   -0.70    2.80
   5   1   5   -6.10    4.40
   5  -1   5    4.60    5.00
   5  -1   5    4.90    4.50
  -5  -1  -5    0.80    2.50
  -5  -1  -5   -3.30    4.50
   5   1   6    2.10    6.10
  -5   1  -6    5.90    8.90
  -5   1  -6    2.20    6.00
   5   1   6    3.20    5.40
  -5   1  -6   -4.80    3.60
  -5  -1  -6   -1.50    3.40
   5  -1   6    3.10    6.60
  -5  -1  -6   -0.60    6.30
   5  -1   6    5.30    6.00
   5   1   7   81.39   12.50
  -5   1  -7   62.49   11.00
   5   1   7   55.89    9.20
  -5   1  -7   48.00    9.10
   5  -1   7   48.70    9.80
  -5  -1  -7   61.69    9.60
  -5  -1  -7   65.19    9.40
   5  -1   7   42.60    8.30
  -5   2   7   17.20    8.00
  -5   2   7    6.70    8.00
   5   2  -7   13.30    5.90
   5   2  -7   15.50    5.90
  -5   2   7   15.20    7.00
  -5  -2   7    9.30    6.00
   5  -2  -7    4.00    6.90
  -5  -2   7    9.70    6.60
  -5  -2   7    4.30    6.30
   5  -2  -7    9.80    6.80
  -5  -2   7   12.80    5.20
   5  -2  -7    6.90    6.30
   5   2  -6   17.20    4.80
  -5   2   6   21.20    6.50
   5   2  -6   18.20    4.70
  -5   2   6   27.20    5.80
   5   2  -6   20.00    5.10
   5  -2  -6   27.90    6.50
  -5  -2   6   26.50    5.40
  -5  -2   6   17.50    5.00
  -5  -2   6   19.10    5.40
   5  -2  -6   19.90    5.80
   5  -2  -6   17.10    5.40
   5  -2  -6   15.20    5.50
  -5   2   5    6.90    4.80
  -5   2   5   10.80    4.70
   5   2  -5    1.10    3.00
   5   2  -5    4.40    3.40
   5   2  -5   -1.00    3.70
  -5  -2   5    7.50    3.50
  -5  -2   5   13.50    4.00
  -5  -2   5    0.40    4.00
   5  -2  -5    7.10    3.90
  -5  -2   5    0.50    3.90
   5  -2  -5    7.50    3.90
   5  -2  -5    2.30    4.50
   5   2  -4  322.37   13.60
  -5   2   4  305.87   13.70
   5   2  -4  303.87   14.20
  -5   2   4  317.37   14.50
   5   2  -4  292.07   13.20
  -5   2   4  304.97   14.40
  -5   2   4  295.97   14.90
  -5  -2   4  309.37   14.50
  -5  -2   4  297.97   13.60
   5  -2  -4  308.87   14.60
   5  -2  -4  285.17   14.20
  -5  -2   4  282.67   13.40
  -5  -2   4  304.17   14.30
   5  -2  -4  264.27   14.10
   5  -2  -4  330.47   15.10
   5   2  -3   30.20    3.70
   5   2  -3   49.20    5.30
   5   2  -3   38.50    3.70
  -5  -2   3   36.40    4.90
   5  -2  -3   29.90    4.00
   5  -2  -3   46.40    4.90
  -5   2   2  174.88    9.00
  -5   2   2  179.68    9.10
   5   2  -2  177.18    9.40
   5   2  -2  178.28    7.70
   5   2  -2  148.99    7.80
  -5   2   2  167.78    9.60
  -5   2   2  177.78    8.00
  -5  -2   2  177.18    9.30
   5  -2  -2  170.58    9.50
   5  -2  -2  160.98    8.70
   5  -2  -2  180.08    8.90
   5  -2  -2  163.58    8.40
  -5  -2   2  166.18    8.80
  -5  -2   2  153.88    7.80
   5   2  -1    5.30    1.50
   5   2  -1    3.30    2.60
  -5   2   1    6.90    3.20
  -5   2   1    3.50    2.90
  -5   2   1    1.90    2.80
   5   2  -1    4.80    1.50
   5  -2  -1    2.80    2.80
  -5  -2   1    3.40    3.70
  -5  -2   1    6.20    2.50
  -5  -2   1    6.60    1.80
   5  -2  -1    6.80    2.60
   5  -2  -1    2.80    2.90
  -5  -2   1    0.90    2.00
   5  -2  -1    5.50    1.80
  -5   2   0  212.28   11.20
  -5   2   0  239.18   11.20
  -5   2   0  228.38   11.00
   5   2   0  232.78   11.00
  -5   2   0  242.78   11.10
   5   2   0  202.98    9.30
   5   2   0  217.78    9.70
  -5  -2   0  238.48    9.70
   5  -2   0  225.78   10.70
   5  -2   0  214.78   11.20
   5  -2   0  231.38   11.00
   5  -2   0  218.58   10.00
   5  -2   0  201.08    9.30
  -5  -2   0  242.08   11.70
  -5   2  -2  358.16   15.90
  -5   2  -2  347.37   15.90
   5   2   2  363.36   15.10
  -5   2  -2  323.57   15.50
   5   2   2  359.06   15.00
  -5  -2  -2  359.16   15.10
   5  -2   2  332.07   16.00
   5  -2   2  336.57   15.80
   5  -2   2  359.06   15.70
  -5  -2  -2  363.06   15.10
  -5  -2  -2  323.67   16.00
  -5  -2  -3   47.90    6.30
  -5   2  -4   21.80    3.20
   5   2   4   12.30    4.00
  -5   2  -4   23.80    5.00
   5   2   4   19.00    4.30
   5  -2   4   21.70    4.50
  -5  -2  -4   16.80    2.30
  -5  -2  -4   12.20    4.10
   5  -2   4   13.60    4.70
  -5  -2  -4   11.00    4.20
  -5   2  -5   25.30    5.50
   5   2   5   23.50    5.10
   5   2   5   23.50    5.80
  -5  -2  -5   20.90    5.60
   5  -2   5   14.00    4.90
   5  -2   5   23.20    5.80
  -5  -2  -5   15.40    3.30
   5   2   6   50.79    7.50
  -5   2  -6   42.80    7.50
  -5   2  -6   44.40    8.40
   5   2   6   61.29    9.60
  -5  -2  -6   58.19    8.40
   5  -2   6   44.20    7.60
   5  -2   6   34.20    6.80
  -5  -2  -6   43.00    7.20
  -5   2  -7   14.20    8.40
   5   2   7   -8.60    7.30
   5   2   7   22.30    8.30
  -5   2  -7   11.30    7.90
  -5   2  -7   -7.60    5.00
   5  -2   7    2.00    8.80
  -5  -2  -7    2.50    8.70
   5  -2   7    8.20    7.60
  -5  -2  -7   -7.10    5.00
  -5  -2  -7   14.70    7.90
   5   3  -7    9.00    5.50
  -5   3   7   23.90    8.30
  -5   3   7   13.80    7.20
  -5   3   7   -6.10    7.00
   5   3  -7   14.10    6.10
   5  -3  -7   13.50    6.90
   5  -3  -7   -0.10    6.50
  -5  -3   7   12.30    6.30
  -5  -3   7   13.80    6.40
  -5  -3   7    9.20    6.20
  -5  -3   7   12.90    5.50
   5  -3  -7   10.50    7.10
   5   3  -6   30.30    4.90
   5   3  -6   33.00    4.80
  -5   3   6   42.10    7.20
   5   3  -6   27.40    5.30
  -5   3   6   28.40    6.60
  -5   3   6   34.00    7.20
   5  -3  -6   28.30    5.90
  -5  -3   6   36.20    6.00
   5  -3  -6   19.50    5.50
   5  -3  -6   21.90    6.00
  -5  -3   6   26.80    5.40
  -5  -3   6   23.00    5.40
   5  -3  -6   26.70    6.10
  -5   3   5   53.09    7.70
  -5   3   5   45.10    6.10
   5   3  -5   61.79    5.30
   5   3  -5   60.29    6.10
   5   3  -5   61.99    6.30
  -5  -3   5   69.09    7.00
  -5  -3   5   67.79    6.20
   5  -3  -5   43.30    6.90
   5  -3  -5   58.89    7.40
  -5  -3   5   64.59    6.40
   5  -3  -5   52.19    7.90
   5  -3  -5   59.09    7.80
  -5  -3   5   49.20    7.30
  -5   3   4   24.00    4.50
   5   3  -4   39.50    5.20
  -5   3   4   18.90    4.60
   5   3  -4   28.90    4.30
  -5   3   4   16.40    4.60
   5   3  -4   23.50    3.70
   5  -3  -4   14.40    3.90
   5  -3  -4   24.20    4.80
  -5  -3   4   29.70    4.70
  -5   3   3  349.27   14.60
   5   3  -3  361.86   14.20
   5   3  -3  332.67   15.60
  -5   3   3  322.17   16.00
  -5   3   3  308.67   15.60
   5   3  -3  323.17   14.20
  -5  -3   3  351.16   15.60
   5  -3  -3  343.47   16.30
  -5  -3   3  334.27   14.20
  -5  -3   3  334.57   15.60
   5  -3  -3  357.76   15.70
   5  -3  -3  343.37   15.40
   5  -3  -3  362.06   15.70
   5   3  -2   31.50    2.60
  -5   3   2   44.80    5.50
  -5   3   2   37.90    3.50
   5   3  -2   29.60    2.60
  -5   3   2   41.00    5.60
  -5   3   2   35.70    5.20
   5   3  -2   37.30    4.90
   5  -3  -2   43.60    5.60
  -5  -3   2   34.10    2.80
  -5  -3   2   29.20    3.00
   5  -3  -2   39.90    5.10
  -5  -3   2   31.10    4.00
   5  -3  -2   31.40    4.20
   5   3  -1   19.70    1.60
  -5   3   1   12.40    3.60
   5   3  -1   29.70    4.50
   5   3  -1   20.70    1.60
  -5   3   1   17.50    3.60
  -5   3   1   18.50    3.90
   5  -3  -1   22.60    3.60
   5  -3  -1   16.40    2.40
  -5  -3   1   12.60    3.90
  -5  -3   1   24.20    2.20
  -5  -3   1   22.40    3.50
   5  -3  -1   16.00    3.30
   5  -3  -1   17.60    3.70
  -5   3   0  138.69    8.00
   5   3   0  111.09    5.30
   5   3   0  127.19    7.30
  -5   3   0  123.59    7.20
  -5   3   0  131.69    7.80
   5   3   0  114.39    5.40
   5   3   0  109.09    5.80
  -5   3   0  132.49    8.00
  -5  -3   0  112.19    8.20
  -5  -3   0   99.99    5.60
   5  -3   0  136.59    7.90
   5  -3   0  139.89    7.40
  -5  -3   0  112.19    5.50
   5  -3   0  127.39    8.00
   5  -3   0  116.79    5.80
   5   3   1  679.93   26.90
   5   3   1  633.94   25.70
   5   3   1  679.83   25.70
  -5   3  -1  666.93   27.10
  -5   3  -1  643.44   26.50
  -5   3  -1  607.84   26.90
   5  -3   1  661.13   27.20
  -5  -3  -1  599.54   27.10
  -5  -3  -1  692.73   25.70
   5  -3   1  640.54   27.00
   5  -3   1  673.43   26.90
  -5  -3  -1  542.25   26.20
   5  -3   1  636.34   25.70
   5   3   2    2.50    2.10
   5   3   2    6.60    2.20
  -5  -3  -2    6.70    2.70
  -5  -3  -2   10.80    3.80
  -5   3  -3  260.47   12.00
   5   3   3  242.18   11.50
  -5   3  -3  235.48   10.00
  -5   3  -3  234.08   12.40
  -5   3  -3  242.78   12.50
   5   3   3  247.38   11.40
  -5  -3  -3  240.28   11.70
   5  -3   3  234.58   12.50
   5  -3   3  242.68   12.60
  -5  -3  -3  223.68    9.80
  -5  -3  -3  236.68   11.50
   5  -3   3  231.98   12.30
  -5  -3  -3  242.28   12.70
   5   3   4   28.50    4.70
  -5   3  -4   20.30    2.60
   5   3   4   24.10    4.30
  -5   3  -4   17.90    4.70
  -5  -3  -4   20.40    4.10
  -5  -3  -4   19.50    4.60
   5  -3   4   22.40    5.20
  -5  -3  -4   16.60    2.50
   5  -3   4   18.50    5.10
   5  -3   4   17.50    4.20
  -5   3  -5   10.80    5.40
   5   3   5    4.20    4.50
   5   3   5    3.80    4.40
  -5   3  -5   15.40    2.90
   5  -3   5    8.50    5.00
  -5  -3  -5   10.20    3.10
  -5  -3  -5    8.00    4.90
   5  -3   5    4.80    5.00
   5   3   6   16.20    6.10
   5   3   6   14.10    6.50
  -5   3  -6   25.30    6.50
  -5   3  -6    9.10    7.40
   5  -3   6   30.00    7.10
  -5  -3  -6   10.00    7.10
  -5  -3  -6   30.50    6.90
   5  -3   6   20.40    7.00
   5   3   7   32.50    8.10
   5   3   7   35.10    9.00
  -5   3  -7   53.69    9.60
  -5   3  -7   38.00    9.20
   5  -3   7   39.30    9.10
  -5  -3  -7   56.49    9.20
  -5  -3  -7   47.20    9.70
   5  -3   7   57.29    9.50
  -5   4   7   18.00    7.60
  -5   4   7    9.60    8.30
   5   4  -7   22.90    5.50
   5   4  -7   16.90    5.90
  -5   4   7    1.90    7.70
  -5  -4   7   19.00    6.10
  -5  -4   7    5.60    6.20
   5  -4  -7   16.30    7.40
  -5  -4   7    0.70    5.60
   5  -4  -7   10.90    7.00
   5  -4  -7   17.80    7.20
  -5  -4   7   10.60    5.40
   5   4  -6   52.19    6.70
  -5   4   6   63.99    8.30
   5   4  -6   50.79    6.10
  -5   4   6   46.30    7.80
  -5   4   6   61.39    9.60
   5   4  -6   53.69    6.70
   5  -4  -6   60.89    8.10
   5  -4  -6   51.09    6.80
  -5  -4   6   52.59    7.80
   5  -4  -6   49.10    7.30
  -5  -4   6   65.99    7.30
  -5  -4   6   51.49    7.60
   5  -4  -6   46.40    7.00
   5   4  -5   83.49    6.30
   5   4  -5   84.49    5.90
   5   4  -5   81.79    6.90
  -5   4   5   94.19    8.80
   5  -4  -5   93.69    8.50
  -5  -4   5   96.39    6.70
  -5  -4   5   91.39    6.80
  -5  -4   5   78.89    7.40
   5  -4  -5   80.39    8.50
  -5  -4   5   78.99    8.00
   5  -4  -5   78.19    8.50
   5  -4  -5   87.39    8.40
  -5   4   4  559.04   23.40
   5   4  -4  540.65   22.10
  -5   4   4  534.65   23.10
   5   4  -4  540.75   21.30
   5   4  -4  493.55   21.10
  -5   4   4  510.25   23.20
   5  -4  -4  527.15   23.00
  -5  -4   4  491.55   21.20
  -5  -4   4  523.55   23.00
  -5  -4   4  525.25   22.30
  -5  -4   4  495.45   21.90
   5  -4  -4  543.85   23.40
   5  -4  -4  498.65   22.90
   5  -4  -4  506.15   22.70
  -5   4   3   28.30    3.80
  -5   4   3   31.40    4.80
   5   4  -3   26.00    3.70
  -5   4   3   18.60    4.40
   5   4  -3   18.40    2.80
   5   4  -3   21.30    2.60
  -5  -4   3   21.70    3.00
   5  -4  -3   28.90    4.70
   5  -4  -3   24.70    3.80
   5  -4  -3   21.70    4.80
  -5  -4   3   18.20    3.80
  -5  -4   3   25.40    3.10
   5  -4  -3   23.30    4.50
  -5   4   2   81.29    4.50
  -5   4   2   77.79    7.10
  -5   4   2   88.19    7.00
  -5   4   2   71.89    6.70
   5   4  -2   78.29    6.30
  -5  -4   2   77.19    3.80
   5  -4  -2   88.29    5.80
   5  -4  -2   73.89    6.40
  -5  -4   2   83.79    6.50
   5  -4  -2   74.59    7.00
  -5  -4   2   82.29    3.70
   5  -4  -2   87.39    7.20
  -5   4   1  320.97   15.60
   5   4  -1  347.07   15.20
  -5   4   1  359.56   15.70
  -5   4   1  310.47   15.90
   5   4  -1  342.37   14.40
  -5  -4   1  325.57   15.40
   5  -4  -1  355.06   15.90
   5  -4  -1  340.57   14.40
   5  -4  -1  338.17   15.60
   5  -4  -1  321.57   15.90
  -5  -4   1  359.16   16.50
  -5   4   0  227.38   11.80
  -5   4   0  220.68   11.80
   5   4   0  219.98   10.00
  -5   4   0  237.48   11.90
   5   4   0  237.38   11.10
   5  -4   0  242.38   12.00
   5  -4   0  233.08   10.00
  -5  -4   0  236.58    9.20
   5  -4   0  226.28   11.40
   5  -4   0  214.48   11.70
  -5  -4   0  225.88   12.20
  -5  -4   0  208.88    9.20
   5   4   1   67.69    4.20
   5   4   1   70.99    4.20
   5   4   1   72.89    4.20
  -5  -4  -1   75.29    4.50
   5  -4   1   95.89    6.90
   5  -4   1   76.99    6.80
  -5  -4  -1   54.49    6.70
   5  -4   1   86.39    4.70
  -5   4  -2  493.65   22.00
   5   4   2  520.25   20.50
  -5   4  -2  429.36   21.60
   5   4   2  528.55   20.50
  -5   4  -2  452.85   20.90
  -5   4  -2  496.65   19.80
  -5  -4  -2  488.15   21.90
  -5  -4  -2  510.25   20.50
  -5  -4  -2  531.25   20.70
   5  -4   2  517.55   21.90
   5  -4   2  484.65   21.90
   5  -4   2  509.45   21.90
   5   4   3   27.30    4.30
   5   4   3   31.90    4.50
   5  -4   3   31.80    4.70
  -5  -4  -3   24.10    4.00
  -5  -4  -3   25.10    4.90
  -5  -4  -3   32.00    4.70
  -5  -4  -3   26.30    3.10
   5  -4   3   27.30    4.90
   5   4   4   51.09    6.20
   5   4   4   49.99    6.00
  -5   4  -4   55.29    7.40
  -5   4  -4   55.19    4.70
  -5  -4  -4   47.90    6.10
   5  -4   4   36.80    5.30
  -5  -4  -4   47.90    6.80
  -5  -4  -4   40.00    4.40
   5  -4   4   47.20    7.30
   5  -4   4   48.40    7.20
   5   4   5   58.39    7.00
  -5   4  -5   69.99    5.60
  -5   4  -5   53.29    7.10
  -5   4  -5   54.59    7.80
   5   4   5   50.39    7.10
  -5  -4  -5   63.59    7.70
   5  -4   5   62.19    9.30
   5  -4   5   56.79    7.70
   5  -4   5   62.49    8.70
  -5  -4  -5   52.99    5.90
  -5   4  -6   45.60    8.70
   5   4   6   40.50    6.80
  -5   4  -6   51.39    7.80
   5   4   6   43.40    7.30
  -5   4  -6   61.49    6.50
   5  -4   6   44.40    7.70
   5  -4   6   47.90    7.90
  -5  -4  -6   50.09    7.30
  -5  -4  -6   43.70    7.90
   5  -4   6   44.10    6.50
   5   4   7   11.30    8.50
  -5   4  -7   12.80    8.00
   5   4   7  -10.30    7.10
  -5   4  -7   12.00    9.20
  -5  -4  -7    9.40    8.10
  -5  -4  -7   16.80    9.50
   5  -4   7    3.80    8.00
   5  -4   7   16.30    8.70
  -5  -4  -7    7.60    6.00
  -5   5   7    6.00    8.10
  -5   5   7   12.30    7.80
  -5   5   7   -2.70    8.00
   5   5  -7   -1.20    5.00
  -5  -5   7    1.00    5.30
  -5  -5   7    0.40    5.90
  -5  -5   7    1.70    5.20
   5  -5  -7   -0.10    7.30
   5  -5  -7   -4.30    7.40
  -5  -5   7   -9.60    5.30
   5  -5  -7    7.50    8.00
  -5   5   6   55.19    8.10
  -5   5   6   55.59    7.80
  -5   5   6   57.79    8.50
   5   5  -6   52.49    6.60
   5  -5  -6   55.29    7.90
  -5  -5   6   56.69    7.20
   5  -5  -6   48.70    7.60
   5  -5  -6   58.09    8.00
   5  -5  -6   64.49    8.40
  -5   5   5   88.89    9.50
  -5   5   5   60.19   10.50
   5   5  -5   94.79    6.70
   5   5  -5   81.99    5.90
   5   5  -5   90.89    6.30
  -5  -5   5   85.19    6.50
  -5  -5   5   88.69    8.40
   5  -5  -5   89.09    9.30
  -5  -5   5   87.79    6.90
   5  -5  -5   89.39    9.00
   5  -5  -5   92.89    9.10
  -5  -5   5   86.69    7.40
   5  -5  -5   86.89    9.10
   5   5  -4    2.20    2.10
  -5   5   4   17.20    5.40
   5   5  -4    5.50    2.80
   5   5  -4    1.70    2.00
  -5   5   4    4.30    4.80
   5  -5  -4   -0.70    4.30
   5  -5  -4    6.10    4.10
   5  -5  -4    3.10    4.20
   5  -5  -4    7.50    4.30
  -5  -5   4    2.00    4.00
  -5  -5   4    3.40    2.40
  -5   5   3  135.29    9.30
  -5   5   3  132.79    9.20
   5   5  -3  137.09    7.80
  -5   5   3  131.79    6.70
   5  -5  -3  140.39    8.40
  -5  -5   3  124.99    6.00
   5  -5  -3  127.79    9.40
   5  -5  -3  142.59    9.20
   5  -5  -3  136.39    9.50
  -5  -5   3  124.09    5.90
  -5  -5   3  119.49    8.70
  -5   5   2  388.26   17.40
  -5   5   2  353.46   16.80
  -5   5   2  362.26   16.80
   5   5  -2  345.67   16.10
  -5  -5   2  345.97   16.60
   5  -5  -2  358.56   15.80
   5  -5  -2  361.66   17.00
   5  -5  -2  343.67   16.70
   5  -5  -2  366.76   17.20
   5   5  -1    4.90    2.70
   5   5  -1    1.40    2.10
  -5   5   1   -1.50    3.90
  -5   5   1    1.30    3.50
  -5   5   1    3.40    3.30
  -5  -5   1    0.10    2.90
   5  -5  -1    3.50    3.10
   5  -5  -1    3.30    2.20
   5  -5  -1    5.10    4.30
  -5  -5   1    1.90    3.90
   5  -5  -1    5.40    3.60
  -5   5   0  198.78   10.80
  -5   5   0  194.08   10.50
  -5   5   0  199.48    8.90
   5   5   0  184.38    9.60
  -5   5   0  189.58   10.70
   5   5   0  179.38    8.90
   5  -5   0  188.68   10.40
  -5  -5   0  177.88   10.90
   5  -5   0  183.18    8.80
   5  -5   0  205.88   11.00
   5  -5   0  174.48   10.30
   5   5   1  221.28    9.90
   5   5   1  219.28    9.30
  -5   5  -1  218.98   11.90
  -5   5  -1  211.38   10.50
  -5   5  -1  232.58   12.00
   5   5   1  210.78    9.10
  -5   5  -1  234.48    9.80
  -5  -5  -1  216.48    9.30
   5  -5   1  216.68   11.70
   5  -5   1  226.18   11.70
   5  -5   1  222.98   11.60
  -5  -5  -1  231.18    9.40
  -5  -5  -1  196.38   11.80
   5   5   2    0.40    2.30
  -5   5  -2    4.30    3.90
  -5   5  -2    4.00    2.90
   5   5   2   -1.20    1.90
  -5   5  -2   -5.60    3.80
   5   5   2    1.90    1.80
   5  -5   2   -4.60    3.50
   5  -5   2   -1.10    3.90
  -5  -5  -2   -0.30    2.40
  -5  -5  -2   -0.60    2.40
   5  -5   2   -3.40    3.30
  -5  -5  -2   -2.80    3.30
   5   5   3   70.19    5.80
  -5   5  -3   77.39    6.40
   5   5   3   80.89    5.80
  -5   5  -3   78.39    5.30
  -5   5  -3   85.29    8.10
  -5   5  -3   85.59    8.10
  -5  -5  -3   73.09    7.90
   5  -5   3   79.19    8.00
   5  -5   3   70.09    7.40
  -5  -5  -3   78.89    4.90
  -5  -5  -3   81.89    5.80
   5  -5   3   74.89    7.30
  -5  -5  -3   70.49    6.30
  -5   5  -4  101.09    6.50
   5   5   4   92.09    7.40
  -5   5  -4  108.49    9.20
   5   5   4   88.49    7.50
  -5   5  -4  103.89    9.90
  -5  -5  -4   92.69    7.50
  -5  -5  -4   95.89    8.20
   5  -5   4   84.09    9.10
   5  -5   4  103.39    9.20
   5  -5   4   80.89    8.10
  -5  -5  -4   94.89    6.20
  -5  -5  -4  103.29    9.00
   5   5   5    6.10    4.50
  -5   5  -5   11.00    3.10
  -5   5  -5    8.00    5.50
  -5   5  -5    5.20    5.90
   5   5   5    6.80    5.20
   5  -5   5    7.50    5.90
  -5  -5  -5    5.40    3.60
  -5  -5  -5   -1.80    4.60
   5  -5   5    0.30    5.70
   5  -5   5   12.40    4.70
  -5   5  -6   19.60    6.50
  -5   5  -6    9.80    8.30
   5   5   6   20.40    7.30
  -5   5  -6   22.10    4.30
   5   5   6    8.60    5.60
   5  -5   6   14.40    5.30
  -5  -5  -6    2.70    4.30
   5  -5   6   19.90    7.50
   5  -5   6    8.70    6.80
  -5  -5  -6    8.50    6.30
  -5  -5  -6   16.80    7.70
  -5   5  -7    3.30    8.50
  -5   5  -7   22.70   11.30
   5   5   7   31.10    9.20
   5   5   7   21.50    7.60
  -5  -5  -7    8.90    8.50
   5  -5   7   26.00    9.00
   5  -5   7    7.80    6.40
   5  -5   7   24.60   10.00
   5   6  -7   33.40    6.30
   5  -6  -7   37.80    9.50
   5  -6  -7   50.39    9.60
   5  -6  -7   34.80    9.30
  -5  -6   7   66.19    9.80
  -5  -6   7   48.10    7.60
  -5   6   6   18.40    7.40
  -5   6   6   12.90    7.50
  -5   6   6   22.60    7.00
   5   6  -6   22.70    4.30
   5  -6  -6   13.40    5.70
   5  -6  -6   27.60    8.10
   5  -6  -6   22.50    7.00
  -5  -6   6   18.70    5.40
   5  -6  -6   25.20    7.40
   5   6  -5   29.00    3.90
  -5   6   5   28.90    7.10
   5   6  -5   26.50    3.90
  -5   6   5   24.50    6.20
   5   6  -5   28.70    3.80
   5  -6  -5   34.20    6.20
   5  -6  -5   29.30    6.50
  -5  -6   5   30.40    6.00
   5  -6  -5   23.60    5.70
   5  -6  -5   21.50    6.40
  -5  -6   5   24.40    3.80
   5   6  -4  126.29    7.40
   5   6  -4  124.09    6.10
   5   6  -4  119.59    5.90
  -5   6   4  123.99   10.20
   5  -6  -4  116.09    9.70
   5  -6  -4  127.99    9.60
  -5  -6   4  127.89    6.40
   5  -6  -4  133.09    9.90
  -5  -6   4  117.89    6.30
   5  -6  -4  119.79    9.20
  -5  -6   4  118.69    9.40
   5   6  -3   31.50    4.00
  -5   6   3   28.80    3.50
   5  -6  -3   25.80    5.70
  -5  -6   3   20.20    4.60
  -5  -6   3   28.40    2.20
  -5  -6   3   28.40    2.10
   5  -6  -3   30.70    4.40
   5  -6  -3   28.60    5.60
   5  -6  -3   39.70    5.80
   5   6  -2  125.69    7.90
  -5   6   2  141.49   10.00
  -5   6   2  131.09    9.40
   5   6  -2  147.69    7.90
  -5   6   2  149.79    9.10
   5  -6  -2  119.59    9.20
   5  -6  -2  108.99    9.80
   5  -6  -2  134.39    8.00
   5  -6  -2  123.29    9.20
  -5  -6   2  125.69    9.10
   5   6  -1  406.16   17.30
  -5   6   1  376.66   17.90
  -5   6   1  381.86   18.60
  -5   6   1  412.06   17.00
  -5   6   1  376.56   18.20
   5   6  -1  390.56   16.80
  -5  -6   1  386.96   18.70
   5  -6  -1  393.26   18.20
   5  -6  -1  414.26   18.20
  -5  -6   1  381.06   18.10
   5  -6  -1  382.76   16.90
   5  -6  -1  401.56   18.90
  -5   6   0   39.80    6.00
  -5   6   0   36.10    5.40
  -5   6   0   39.00    5.60
   5   6   0   29.80    4.60
   5   6   0   32.00    4.30
  -5   6   0   33.70    4.40
   5  -6   0   32.50    4.30
   5  -6   0   32.30    4.60
   5  -6   0   35.20    5.60
  -5  -6   0   32.80    6.00
   5  -6   0   33.90    5.50
   5   6   1   52.09    2.80
   5   6   1   52.79    3.00
  -5   6  -1   59.89    5.00
  -5   6  -1   57.89    4.70
  -5   6  -1   42.30    6.90
   5   6   1   54.59    4.90
  -5   6  -1   56.89    7.10
   5  -6   1   48.80    6.60
   5  -6   1   48.40    4.60
  -5  -6  -1   39.40    5.80
  -5  -6  -1   51.39    3.10
   5  -6   1   44.50    6.50
   5  -6   1   53.89    6.80
  -5   6  -2  276.17   14.70
  -5   6  -2  264.67   12.70
   5   6   2  287.27   12.20
   5   6   2  296.07   12.20
  -5   6  -2  285.67   14.90
  -5   6  -2  295.37   12.50
   5   6   2  277.97   12.20
  -5  -6  -2  267.87   12.60
   5  -6   2  285.57   14.50
  -5  -6  -2  260.27   14.20
  -5  -6  -2  297.27   12.40
   5  -6   2  263.07   14.60
   5  -6   2  294.27   14.10
  -5   6  -3  119.99    9.90
   5   6   3  119.29    7.10
   5   6   3  119.19    7.20
  -5   6  -3  127.59    7.10
  -5   6  -3  124.59    9.70
  -5   6  -3  117.59    7.40
  -5  -6  -3  106.09    7.50
  -5  -6  -3  117.39    9.30
   5  -6   3  110.69    9.50
   5  -6   3  117.79    8.80
   5  -6   3  109.39    9.30
  -5  -6  -3  118.39    6.60
  -5  -6  -3  114.09    7.20
  -5   6  -4   53.49    8.30
   5   6   4   38.00    5.20
  -5   6  -4   46.30    5.70
  -5   6  -4   49.70    7.30
  -5   6  -4   58.29    6.10
   5   6   4   45.50    6.10
  -5  -6  -4   40.50    5.50
  -5  -6  -4   43.40    5.40
  -5  -6  -4   26.00    4.90
   5  -6   4   37.50    5.50
   5  -6   4   37.20    7.10
  -5  -6  -4   40.60    6.50
   5  -6   4   38.60    6.40
   5   6   5   78.59    8.30
   5   6   5   89.39    8.10
  -5   6  -5   83.79   10.60
  -5   6  -5   70.69    9.50
  -5   6  -5   72.29    6.90
   5  -6   5   65.29   10.00
   5  -6   5   73.19    9.90
  -5  -6  -5   79.19    9.50
  -5  -6  -5   68.59    8.30
  -5  -6  -5   61.29    7.10
   5  -6   5   62.89    8.10
   5   6   6    9.60    6.60
  -5   6  -6    5.40    6.60
   5   6   6    7.30    5.80
  -5   6  -6    4.00    8.80
  -5   6  -6    3.20    4.40
  -5  -6  -6    1.30    7.20
   5  -6   6    5.80    7.40
   5  -6   6    8.30    7.90
  -5  -6  -6    1.90    4.80
   5  -6   6   -0.30    5.20
  -5  -6  -6   -4.80    6.60
  -5   7   6   70.29   10.30
   5   7  -6   64.29    6.60
  -5   7   6   77.39    9.60
  -5   7   6   46.30    9.40
   5  -7  -6   55.09    9.30
   5  -7  -6   77.99    9.00
   5  -7  -6   74.19   11.10
   5  -7  -6   65.19   10.30
  -5  -7   6   58.79    8.80
   5   7  -5   59.99    5.40
  -5   7   5   60.39    8.50
  -5   7   5   82.99    9.80
  -5   7   5   73.59   11.10
   5   7  -5   62.69    5.10
   5  -7  -5   72.29    9.60
  -5  -7   5   54.49    5.60
   5  -7  -5   75.39   10.20
   5  -7  -5   56.39    7.60
   5  -7  -5   61.69    9.10
  -5  -7   5   51.49    7.10
  -5   7   4    1.00    6.10
   5   7  -4    4.10    2.60
   5   7  -4   -1.10    1.70
   5   7  -4    3.60    1.50
   5  -7  -4   -0.80    4.40
  -5  -7   4   -0.40    2.00
  -5  -7   4    4.30    2.00
  -5  -7   4   -2.20    3.70
   5  -7  -4   -1.10    5.50
   5  -7  -4    1.00    5.10
   5  -7  -4   -3.20    3.80
   5   7  -3   65.19    5.60
   5   7  -3   75.49    6.80
   5  -7  -3   53.99    7.80
   5  -7  -3   59.69    8.80
  -5  -7   3   65.09    7.80
   5  -7  -3   60.79    7.00
   5  -7  -3   64.09    8.40
  -5   7   2   57.59    7.80
   5   7  -2   69.99    6.00
  -5   7   2   73.69    7.50
   5   7  -2   56.39    6.00
  -5   7   2   70.69    8.80
   5  -7  -2   63.89    7.80
   5  -7  -2   69.49    7.70
   5  -7  -2   71.19    6.30
  -5  -7   2   55.99    7.60
   5  -7  -2   53.19    8.40
   5   7  -1   -3.00    2.60
  -5   7   1   -3.30    4.50
  -5   7   1    1.40    4.90
   5   7  -1   -2.30    2.40
  -5   7   1    0.00    2.80
  -5   7   1    3.30    3.60
  -5  -7   1   -4.10    3.40
   5  -7  -1   -1.20    3.60
   5  -7  -1   -1.30    2.70
   5  -7  -1    2.30    4.10
   5  -7  -1   -1.90    4.80
  -5  -7   1    2.50    4.10
  -5   7   0  217.28   12.20
  -5   7   0  233.58   11.10
   5   7   0  226.38   11.20
   5   7   0  222.28   11.40
  -5   7   0  258.97   13.20
  -5   7   0  235.98   13.00
   5  -7   0  208.78   13.00
   5  -7   0  239.88   12.70
   5  -7   0  244.58   11.20
   5  -7   0  240.28   12.50
  -5  -7   0  245.28   13.00
  -5   7  -1   39.10    5.10
  -5   7  -1   34.30    5.80
  -5   7  -1   31.30    5.80
  -5   7  -1   36.10    3.80
   5   7   1   30.40    3.80
  -5  -7  -1   29.00    2.50
   5  -7   1   35.50    4.00
  -5  -7  -1   29.90    2.60
   5  -7   1   28.00    5.50
   5  -7   1   26.00    4.50
  -5  -7  -1   30.80    5.60
   5  -7   1   31.20    5.60
   5   7   2    3.70    2.20
  -5   7  -2    7.20    2.90
   5   7   2    1.80    2.40
  -5   7  -2    6.90    4.70
   5   7   2    1.90    2.50
  -5   7  -2   -0.70    4.80
  -5   7  -2    5.50    3.00
   5  -7   2    2.40    4.60
   5  -7   2   -3.50    4.30
  -5  -7  -2    1.60    4.30
   5  -7   2    0.30    3.70
   5   7   3   55.19    5.00
  -5   7  -3   54.89    7.60
  -5   7  -3   46.80    5.50
  -5   7  -3   47.40    5.30
  -5   7  -3   50.99    7.50
   5   7   3   52.29    5.10
   5   7   3   45.50    4.90
  -5  -7  -3   44.70    5.80
   5  -7   3   48.50    6.10
  -5  -7  -3   45.90    6.50
  -5  -7  -3   50.49    5.20
   5  -7   3   57.49    7.10
   5  -7   3   54.59    8.40
  -5  -7  -3   40.40    5.40
   5   7   4  169.28    9.60
  -5   7  -4  159.38   12.30
  -5   7  -4  158.18   12.60
  -5   7  -4  174.38    9.60
   5   7   4  165.38    9.50
  -5   7  -4  168.58    9.50
   5  -7   4  171.78   12.50
   5  -7   4  161.98   12.50
   5  -7   4  146.29   10.40
  -5  -7  -4  144.19   11.80
  -5  -7  -4  163.28    9.80
  -5  -7  -4  171.78    9.30
  -5   7  -5   12.50    7.20
   5   7   5    3.00    5.30
   5   7   5    3.50    4.80
  -5   7  -5    5.30    3.90
  -5   7  -5   10.70    6.40
   5  -7   5    7.00    4.70
   5  -7   5   -4.70    5.90
  -5  -7  -5    3.80    4.10
  -5  -7  -5   -4.40    5.70
  -5  -7  -5   11.00    5.20
   5  -7   5    1.30    6.50
  -5   7  -6   47.40    8.40
  -5   7  -6   47.70    6.00
  -5   7  -6   59.79   10.90
   5   7   6   58.79    8.80
   5   7   6   68.19    9.90
  -5  -7  -6   33.50    8.20
  -5  -7  -6   43.20    7.90
   5  -7   6   72.99   10.70
   5  -7   6   44.10    6.50
   5  -7   6   46.10    8.80
   5   8  -6    0.50    3.60
  -5   8   6   -5.80    8.10
  -5   8   6    0.90    6.70
  -5   8   6    8.40    8.20
   5  -8  -6   -8.60    8.30
   5  -8  -6    1.80    6.60
   5  -8  -6   -1.40    7.30
   5  -8  -6   -3.30    8.70
  -5  -8   6   -2.70    5.10
  -5  -8   6   -4.50    4.30
  -5  -8   6   -1.70    4.90
  -5   8   5   43.00    7.90
  -5   8   5   29.00    8.10
   5   8  -5   37.60    4.70
  -5   8   5   41.80    8.30
  -5  -8   5   25.30    5.50
   5  -8  -5   39.60    7.30
   5  -8  -5   43.20    8.00
   5  -8  -5   42.40    8.40
   5  -8  -5   33.50    7.20
  -5  -8   5   37.30    5.20
   5   8  -4   25.20    3.90
  -5   8   4   30.10    7.90
  -5  -8   4   20.50    3.10
   5  -8  -4   38.20    7.60
   5  -8  -4   23.90    5.60
  -5  -8   4   22.30    5.10
   5  -8  -4   23.10    5.60
   5  -8  -4   36.70    7.70
  -5   8   3   69.09    8.50
   5   8  -3   72.99    7.50
   5   8  -3   80.49    5.90
  -5   8   3   68.79    8.60
   5  -8  -3   79.49    8.90
  -5  -8   3   73.39    8.50
   5  -8  -3   76.69    9.30
   5  -8  -3   61.69    7.70
   5  -8  -3   77.39    9.00
   5   8  -2   -4.60    3.00
   5   8  -2    2.50    3.10
  -5   8   2   -2.30    5.10
  -5   8   2   -4.90    3.50
  -5   8   2   -4.60    5.50
  -5   8   2   -1.70    3.90
   5  -8  -2   -3.50    5.30
   5  -8  -2   -0.80    4.80
   5  -8  -2   -0.60    3.40
  -5  -8   2   -1.20    4.70
   5  -8  -2   -2.90    4.20
  -5   8   1  224.68   12.80
  -5   8   1  247.38   13.90
  -5   8   1  222.58   13.40
   5   8  -1  239.48   11.80
  -5   8   1  238.68   11.90
   5   8  -1  267.37   11.80
   5  -8  -1  255.87   13.60
   5  -8  -1  231.58   13.00
  -5  -8   1  227.58   13.50
   5  -8  -1  241.78   14.20
  -5  -8   1  232.28   13.30
   5  -8  -1  228.08   11.90
   5   8   0  129.49    7.90
  -5   8   0  124.09    9.00
  -5   8   0  138.39    7.90
  -5   8   0  133.49   10.20
  -5   8   0  133.39   10.10
   5   8   0  122.09    8.00
   5  -8   0  127.59    7.90
  -5  -8   0  110.99    9.40
   5  -8   0  129.99   10.00
   5  -8   0  121.89    9.60
   5  -8   0  137.49    9.10
  -5   8  -1   83.19    8.50
  -5   8  -1   77.39    6.10
  -5   8  -1   67.19    7.40
  -5   8  -1   77.99    8.90
   5   8   1   83.89    6.70
  -5  -8  -1   58.79    7.90
   5  -8   1   83.49    8.50
   5  -8   1   61.79    6.30
  -5  -8  -1   75.19    4.00
  -5  -8  -1   74.09    3.80
   5  -8   1   80.29    7.40
   5  -8   1   73.79    8.10
   5   8   2   63.69    5.70
  -5   8  -2   52.79    8.30
  -5   8  -2   52.89    5.80
   5   8   2   54.39    4.20
   5   8   2   49.50    4.40
  -5   8  -2   61.29    4.90
  -5   8  -2   63.99    8.00
   5  -8   2   50.69    6.80
  -5  -8  -2   44.10    6.20
   5  -8   2   50.79    8.10
  -5  -8  -2   51.59    4.50
   5  -8   2   55.49    7.40
   5   8   3   42.00    5.30
  -5   8  -3   34.80    7.60
  -5   8  -3   32.10    6.80
  -5   8  -3   45.80    4.70
   5   8   3   31.70    4.80
  -5   8  -3   44.20    4.80
   5   8   3   37.10    5.10
   5  -8   3   41.20    7.20
  -5  -8  -3   36.70    4.50
   5  -8   3   41.30    7.30
   5  -8   3   37.50    5.20
  -5  -8  -3   40.20    5.30
  -5  -8  -3   41.80    6.50
   5   8   4    7.20    3.90
  -5   8  -4    5.70    3.70
  -5   8  -4    4.70    3.80
   5   8   4   -0.10    4.00
  -5   8  -4   -3.10    6.60
  -5   8  -4   -5.20    5.50
   5  -8   4    2.40    4.60
   5  -8   4    7.70    6.40
   5  -8   4    4.10    6.10
  -5  -8  -4    0.40    5.80
  -5  -8  -4    3.60    3.80
  -5  -8  -4    7.60    3.90
   5   8   5  111.79    9.80
  -5   8  -5  105.69   11.80
   5   8   5  103.19    9.30
  -5   8  -5   96.69    8.70
  -5   8  -5  113.59   13.70
  -5  -8  -5  103.99    9.40
  -5  -8  -5  105.29   11.00
   5  -8   5   96.19    9.10
   5  -8   5   92.49   11.70
   5  -8   5  105.79   12.40
  -5  -8  -5   86.09   10.50
   5   8   6    9.30    6.60
   5   8   6    6.90    6.80
  -5   8  -6   10.90    7.90
  -5   8  -6   15.80    9.20
  -5   8  -6    4.40    5.40
  -5  -8  -6   -3.30    6.50
  -5  -8  -6   -6.00    5.80
   5  -8   6    3.80    8.60
   5  -8   6   13.10    5.80
  -5  -8  -6   12.80    8.30
   5  -8   6   -2.60    8.70
   5   9  -6   63.69    6.90
  -5   9   6   95.49   14.30
  -5  -9   6   58.79    8.60
  -5  -9   6   61.89    7.50
   5  -9  -6   53.89   10.50
   5  -9  -6   51.89    8.70
   5  -9  -6   81.49   11.50
   5   9  -5   17.30    5.90
  -5   9   5   21.90    8.80
  -5   9   5    1.40    8.50
   5   9  -5   14.00    3.00
  -5   9   5   14.00    7.10
  -5  -9   5    9.70    4.80
   5  -9  -5   13.30    6.60
   5  -9  -5    6.20    7.60
   5  -9  -5   17.20    7.10
   5  -9  -5   16.60    8.30
  -5  -9   5   13.40    3.40
  -5   9   4   -5.80    5.00
   5   9  -4   -5.80    4.20
   5   9  -4   -1.90    2.00
  -5   9   4    1.00    7.70
   5  -9  -4   -5.70    4.90
  -5  -9   4   -2.10    1.80
   5  -9  -4    3.40    7.10
   5  -9  -4   -0.60    7.30
  -5  -9   4   -4.80    4.40
   5  -9  -4   -7.80    4.90
  -5  -9   4    2.30    1.90
   5   9  -3   50.19    6.80
  -5   9   3   33.70    5.80
   5   9  -3   47.80    4.70
  -5   9   3   39.20    7.50
  -5  -9   3   30.70    5.70
   5  -9  -3   43.20    6.40
   5  -9  -3   43.90    7.80
   5  -9  -3   36.80    5.50
   5  -9  -3   52.79    7.60
  -5   9   2  365.76   18.90
   5   9  -2  341.97   16.30
  -5   9   2  386.06   17.90
  -5   9   2  345.47   19.10
   5   9  -2  390.96   17.10
  -5   9   2  355.66   17.20
   5  -9  -2  362.46   17.10
   5  -9  -2  368.56   18.10
   5  -9  -2  370.86   18.60
  -5  -9   2  348.57   18.30
   5  -9  -2  332.17   19.00
  -5   9   1   -2.20    5.40
  -5   9   1   -1.50    3.50
   5   9  -1    0.70    3.00
  -5   9   1    0.00    4.00
   5   9  -1    2.90    2.90
  -5   9   1   -0.10    5.70
   5  -9  -1   -1.30    3.20
   5  -9  -1    3.80    5.70
   5  -9  -1    9.20    5.30
  -5  -9   1    4.60    5.10
  -5  -9   1    2.70    4.00
   5  -9  -1    0.30    4.00
  -5   9   0  352.06   17.40
   5   9   0  357.96   17.10
  -5   9   0  375.76   16.80
  -5   9   0  381.46   18.90
  -5   9   0  390.76   19.00
   5  -9   0  372.46   17.70
   5  -9   0  379.46   16.90
   5  -9   0  354.16   18.30
  -5  -9   0  354.56   18.30
   5  -9   0  387.26   18.70
   5   9   1  122.89    8.40
  -5   9  -1  127.19   10.80
  -5   9  -1  119.89    7.80
  -5   9  -1  118.49    8.90
  -5   9  -1  120.59   10.40
   5  -9   1  110.99   10.00
  -5  -9  -1  110.09    5.60
   5  -9   1  107.49    8.10
  -5  -9  -1  106.09    9.60
  -5  -9  -1  120.89    5.30
   5  -9   1  107.99   10.10
   5  -9   1  101.89    8.70
  -5   9  -2   -8.40    5.50
  -5   9  -2  -11.40    5.50
  -5   9  -2   -3.20    3.20
   5   9   2   -1.90    2.20
   5   9   2   -1.20    2.20
   5   9   2    2.90    3.30
  -5  -9  -2    1.10    2.60
  -5  -9  -2   -4.70    4.80
   5  -9   2   -5.70    5.00
   5  -9   2   -5.30    3.60
   5  -9   2   -0.80    4.90
  -5   9  -3   27.70    4.60
  -5   9  -3   26.00    7.50
   5   9   3   28.40    4.00
   5   9   3   23.10    3.60
  -5   9  -3   24.90    6.90
   5   9   3   22.30    4.10
  -5   9  -3   28.30    3.90
  -5  -9  -3   24.10    4.20
  -5  -9  -3   15.90    4.10
  -5  -9  -3   28.10    4.20
   5  -9   3   18.10    6.20
   5  -9   3   22.00    5.10
   5  -9   3   25.80    6.70
  -5  -9  -3   24.90    6.20
  -5   9  -4  107.79   12.10
   5   9   4  109.09    8.10
  -5   9  -4  110.09    7.50
   5   9   4  107.19    8.30
  -5   9  -4  110.79    9.00
  -5   9  -4   96.29   12.50
   5  -9   4  127.69    9.00
   5  -9   4  113.59   12.30
  -5  -9  -4  113.39    8.70
  -5  -9  -4   99.19   11.00
   5  -9   4  110.39   11.90
  -5  -9  -4  114.29    9.00
   5   9   5    6.40    5.30
  -5   9  -5    2.40    4.90
  -5   9  -5  -13.40    8.40
   5   9   5    0.70    5.50
  -5   9  -5    2.80    4.30
  -5   9  -5   -2.50    7.20
   5  -9   5   11.20    5.10
   5  -9   5   -6.10    7.90
  -5  -9  -5    0.30    4.80
   5  -9   5    2.50    7.90
  -5  -9  -5    2.00    6.50
  -5  -9  -5    8.60    5.50
   5  10  -5   41.70    4.00
  -5  10   5   42.80    7.90
  -5  10   5   52.89   10.70
  -5  10   5   41.10   11.00
   5  10  -5   58.09    7.70
   5 -10  -5   32.10    7.80
   5 -10  -5   48.20    8.60
  -5 -10   5   41.50    7.20
   5 -10  -5   45.40   10.20
   5 -10  -5   53.09   10.20
  -5  10   4   10.70    5.80
   5  10  -4   11.90    5.10
  -5  10   4    7.70    8.70
   5  10  -4    7.80    2.10
   5 -10  -4    7.60    5.70
   5 -10  -4   -0.90    5.60
  -5 -10   4    5.20    5.40
   5 -10  -4    8.60    8.40
   5 -10  -4   11.80    8.20
  -5  10   3   46.40    8.50
   5  10  -3   45.60    4.30
  -5  10   3   34.40    5.70
   5  10  -3   42.60    5.50
   5 -10  -3   65.69    8.00
   5 -10  -3   48.40    8.00
   5 -10  -3   37.00    6.00
   5 -10  -3   54.29    8.90
  -5 -10   3   29.40    6.00
   5  10  -2   -1.10    3.10
  -5  10   2   -3.70    6.60
  -5  10   2    1.90    4.30
   5  10  -2    2.50    3.70
  -5  10   2   -2.30    4.60
  -5  10   2    2.30    6.20
   5 -10  -2    2.10    4.70
   5 -10  -2   -0.10    5.90
  -5 -10   2   -4.20    4.30
   5 -10  -2   -3.00    6.50
   5 -10  -2    5.10    4.10
   5  10  -1  470.75   19.90
  -5  10   1  452.75   22.30
  -5  10   1  441.66   21.10
  -5  10   1  485.95   22.60
  -5  10   1  408.86   20.50
   5  10  -1  458.15   20.70
   5 -10  -1  438.86   21.30
   5 -10  -1  443.26   20.50
  -5 -10   1  475.35   21.80
   5 -10  -1  489.35   23.00
   5 -10  -1  479.45   22.30
  -5  10   0   -3.10    6.20
  -5  10   0   -0.50    6.10
  -5  10   0    3.60    4.30
   5  10   0   -1.40    3.90
  -5  10   0    2.90    3.70
  -5 -10   0    1.00    5.10
   5 -10   0   -2.60    5.40
   5 -10   0    5.30    3.60
   5 -10   0    2.80    6.00
   5 -10   0    6.90    4.40
   5  10   1   67.69    8.00
  -5  10  -1   70.29   10.20
  -5  10  -1   64.79    9.40
  -5  10  -1   73.39    7.00
  -5  10  -1   69.09    7.50
   5 -10   1   61.39    9.50
   5 -10   1   67.29    8.30
  -5 -10  -1   55.29    3.60
   5 -10   1   69.69    7.50
   5 -10   1   67.89    7.40
  -5 -10  -1   67.99    8.20
  -5 -10  -1   57.39    4.20
   5  10   2    0.70    2.50
  -5  10  -2   -2.70    3.80
  -5  10  -2    4.50    6.50
  -5  10  -2   -5.90    6.00
   5  10   2    5.80    4.00
   5  10   2    0.80    2.40
  -5 -10  -2   -2.80    2.70
  -5 -10  -2    1.20    5.30
  -5 -10  -2    3.70    3.00
   5 -10   2    3.40    5.70
   5 -10   2    5.00    4.30
   5 -10   2    0.20    6.20
   5  10   3   68.19    6.10
  -5  10  -3   55.49    8.90
  -5  10  -3   79.09    9.60
   5  10   3   71.09    7.60
  -5  10  -3   70.79    7.90
   5  10   3   57.39    5.80
  -5 -10  -3   59.89    6.80
  -5 -10  -3   58.79    7.60
   5 -10   3   64.09    7.50
   5 -10   3   70.19    5.00
  -5 -10  -3   55.09    8.30
   5 -10   3   70.09    9.50
   5 -10   3   80.09   11.50
  -5  10  -4   10.60    7.10
   5  10   4    0.20    4.20
   5  10   4    8.70    4.00
  -5  10  -4    4.70    4.20
   5  10   4    3.50    4.40
  -5  10  -4    7.30    4.60
  -5  10  -4    5.10    8.30
  -5 -10  -4    5.70    4.30
  -5 -10  -4    9.20    5.30
   5 -10   4    3.50    4.60
  -5 -10  -4    7.40    5.00
  -5 -10  -4    7.50    6.10
   5 -10   4    6.70    7.20
   5 -10   4    3.40    7.30
  -5  10  -5   94.39   10.30
  -5  10  -5  113.39    8.10
  -5  10  -5   85.99   12.80
  -5  10  -5  103.79   13.70
   5  10   5   88.69    9.60
   5  10   5  112.49   10.50
  -5 -10  -5  100.59   11.70
   5 -10   5  110.69   13.80
   5 -10   5  107.99    9.80
   5 -10   5   70.39   11.20
   5  11  -5    1.70    5.80
   5 -11  -5   14.20    7.50
  -5  11   4  -12.60    9.00
  -5  11   4   -3.90    6.30
   5  11  -4   -4.10    5.10
   5 -11  -4   -9.50    6.50
   5 -11  -4  -12.20    8.70
   5 -11  -4  -12.80    8.90
  -5 -11   4   -0.50    5.50
   5 -11  -4   -8.20    5.60
  -5  11   3    3.50    5.10
   5  11  -3   -2.30    4.30
  -5  11   3   -6.60    7.60
  -5  11   3   -8.80    4.90
   5  11  -3   -0.30    2.10
   5 -11  -3   -4.00    7.80
  -5 -11   3  -10.80    4.60
   5 -11  -3   -8.80    7.10
   5 -11  -3    2.80    6.00
   5 -11  -3    2.70    5.60
  -5  11   2  203.38   12.20
  -5  11   2  211.98   15.20
   5  11  -2  182.78   10.00
   5  11  -2  189.48   11.80
  -5  11   2  175.48   14.30
  -5  11   2  189.98   12.70
   5 -11  -2  199.98   13.20
   5 -11  -2  184.08   12.20
   5 -11  -2  209.48   14.30
   5 -11  -2  204.78   15.00
  -5 -11   2  176.28   12.90
  -5  11   1   -4.50    6.80
  -5  11   1    6.60    4.70
   5  11  -1    7.80    3.30
   5  11  -1    2.50    3.90
  -5  11   1   -1.90    6.50
  -5  11   1   -0.50    4.30
   5 -11  -1   -2.00    4.10
   5 -11  -1    0.50    6.10
   5 -11  -1    0.20    6.70
   5 -11  -1   -3.40    4.30
  -5  11   0  166.68   13.30
   5  11   0  157.68   11.20
  -5  11   0  161.18   13.00
  -5  11   0  162.58   11.10
  -5  11   0  171.88   10.80
   5 -11   0  181.38   11.30
   5 -11   0  159.18   12.40
   5 -11   0  156.98   10.60
  -5 -11   0  175.98   12.00
   5 -11   0  169.78   13.00
  -5  11  -1   -1.50    6.50
   5  11   1    7.00    4.80
  -5  11  -1    1.40    4.20
  -5  11  -1    2.20    4.20
  -5  11  -1    0.90    5.80
   5 -11   1    2.10    6.20
   5 -11   1   -4.40    4.00
   5 -11   1   -4.00    5.70
  -5 -11  -1    8.70    5.30
  -5 -11  -1   -2.20    1.60
  -5 -11  -1   -0.20    2.10
   5 -11   1    3.70    4.50
  -5  11  -2   -1.00    6.50
   5  11   2    1.60    2.80
   5  11   2    0.70    2.60
  -5  11  -2    3.00    4.30
  -5  11  -2    5.50    7.00
   5  11   2    1.70    4.50
  -5 -11  -2   -6.30    5.90
   5 -11   2    3.90    6.90
   5 -11   2    6.30    7.00
   5 -11   2   -4.00    4.10
  -5 -11  -2    3.00    3.20
  -5 -11  -2   -0.20    2.80
   5  11   3    0.00    3.50
   5  11   3    6.30    4.70
  -5  11  -3   -0.20    8.00
  -5  11  -3   10.00    7.30
  -5  11  -3    4.10    4.50
   5  11   3    3.30    3.30
  -5 -11  -3    3.60    4.90
   5 -11   3    4.60    2.90
   5 -11   3    5.00    6.90
   5 -11   3   -0.10    4.60
   5 -11   3    8.10    7.80
  -5 -11  -3    3.30    3.80
  -5 -11  -3    8.90    6.30
  -5 -11  -3    2.60    4.60
  -5  11  -4  102.09   10.20
   5  11   4  101.79    8.70
  -5  11  -4  119.29   13.90
  -5  11  -4  108.69   13.40
   5  11   4   93.39    9.40
   5  11   4   84.59    8.30
   5 -11   4   86.39   13.70
  -5 -11  -4  127.99   11.40
  -5 -11  -4  110.89   10.60
   5 -11   4  108.39    9.10
   5 -11   4  126.09    7.00
  -5 -11  -4   84.19    9.80
   5 -11   4  110.19   14.10
   5  12  -4    7.10    6.00
  -5  12   4   14.40    6.90
  -5  12   4    4.00    9.90
   5 -12  -4   -8.50    9.30
   5 -12  -4   12.60   10.30
   5 -12  -4    1.90    7.60
  -5 -12   4    1.20    5.90
   5 -12  -4    4.30    6.80
  -5  12   3   32.50    7.20
   5  12  -3   29.60    6.00
  -5  12   3   31.30    7.10
  -5  12   3   24.10    9.40
   5 -12  -3   34.00   10.10
   5 -12  -3   24.10    6.70
   5 -12  -3   22.80    9.10
   5 -12  -3   18.50    6.80
  -5 -12   3   14.30    5.70
  -5  12   2   -0.60    7.50
  -5  12   2   -0.50    5.20
  -5  12   2   -1.60    5.10
   5  12  -2    1.60    3.10
   5  12  -2    5.20    4.60
  -5  12   2   -3.30    7.60
   5 -12  -2    7.40    5.70
   5 -12  -2    0.20    5.20
   5 -12  -2   -0.80    8.20
   5 -12  -2    8.50    8.70
  -5 -12   2   -0.30    4.60
  -5  12   1  187.98   12.40
  -5  12   1  209.68   15.00
  -5  12   1  183.28   12.90
   5  12  -1  203.18   10.80
   5  12  -1  200.38   12.60
  -5  12   1  204.58   14.70
   5 -12  -1  209.48   13.10
   5 -12  -1  199.38   15.40
   5 -12  -1  219.58   14.90
   5 -12  -1  201.58   12.60
  -5  12   0    2.00    7.40
  -5  12   0   -8.00    7.50
   5  12   0   -7.60    4.60
  -5  12   0    1.80    4.60
  -5  12   0   -8.90    4.20
   5 -12   0   -8.00    6.40
   5 -12   0  -12.10    6.80
  -5 -12   0   -0.40    5.60
   5 -12   0   -1.70    4.60
   5 -12   0   -1.30    4.60
  -5  12  -1   32.90    8.20
  -5  12  -1   15.50    4.90
  -5  12  -1   27.80    7.40
  -5  12  -1   28.10    5.30
   5  12   1   33.50    6.40
   5 -12   1   28.50    7.40
  -5 -12  -1   22.30    6.90
   5 -12   1   33.20    5.80
  -5 -12  -1   25.60    3.70
   5 -12   1   30.30    8.00
   5 -12   1   30.90    5.50
   5  12   2   -3.20    2.60
   5  12   2    6.90    5.00
  -5  12  -2   -4.00    6.60
   5  12   2    1.80    3.10
  -5  12  -2   -2.60    4.50
  -5  12  -2  -13.40    7.00
  -5 -12  -2   -3.10    2.80
   5 -12   2    0.10    4.40
   5 -12   2   -6.30    7.50
  -5 -12  -2    8.70    6.20
   5 -12   2   -0.70    7.50
  -5 -12  -2    4.20    3.90
   5  12   3   75.59    9.50
  -5  12  -3   85.49   12.10
  -5  12  -3   65.79   10.70
   5  12   3   80.89    6.80
   5  12   3   52.19    7.10
  -5  12  -3   93.39    9.30
   5 -12   3   90.09    8.50
   5 -12   3   76.49    5.60
   5 -12   3   76.89   11.00
   5 -12   3   73.09   10.20
  -5 -12  -3   63.59    9.10
  -5 -12  -3   57.79    7.60
  -5  12  -4    2.00   10.30
  -5  12  -4    9.10    8.60
   5  12   4    7.50    5.30
   5  12   4    7.50    4.20
   5  12   4    4.00    4.70
  -5  12  -4    1.10    5.50
   5 -12   4    6.30    8.50
   5 -12   4   16.40    9.50
  -5 -12  -4    3.40    6.60
  -5 -12  -4    1.00    4.80
   5 -12   4    4.30    3.40
  -5 -12  -4    0.70    6.20
   5 -12   4   -6.90    5.10
   5  13  -3   19.90    6.20
  -5  13   3   28.10   10.10
  -5  13   3   19.40    7.20
  -5  13   3   24.70    6.90
  -5 -13   3   22.60    5.90
   5 -13  -3   12.40   11.20
   5 -13  -3    7.00    6.80
   5 -13  -3   22.60    8.30
   5 -13  -3   34.70   11.10
  -5  13   2  138.09   15.10
   5  13  -2  122.99   11.30
   5  13  -2  125.39    7.40
  -5  13   2  111.09   11.80
  -5  13   2  117.89   11.50
  -5  13   2  114.69   15.00
   5 -13  -2  115.29   11.30
   5 -13  -2  110.29   14.90
   5 -13  -2  125.19   12.20
   5 -13  -2  130.79   14.80
  -5 -13   2  111.99   11.20
   5  13  -1   11.30    5.50
  -5  13   1   -0.90    7.90
  -5  13   1   -0.80    8.20
  -5  13   1   -1.70    5.40
  -5  13   1    6.80    5.60
   5  13  -1   11.90    4.00
   5 -13  -1    6.70    5.60
   5 -13  -1   21.60    8.40
   5 -13  -1   12.70    5.60
   5 -13  -1    7.10    8.90
  -5  13   0  165.58   11.70
  -5  13   0  152.98   14.60
   5  13   0  149.49   12.60
  -5  13   0  175.58   14.50
  -5  13   0  158.48   11.60
  -5 -13   0  171.98   13.00
   5 -13   0  148.19   13.90
   5 -13   0  149.69   11.80
   5 -13   0  164.68   14.80
   5 -13   0  157.98   11.60
  -5  13  -1   17.20    5.40
  -5  13  -1   12.90    8.00
   5  13   1   13.00    5.90
  -5  13  -1   31.00    9.10
  -5  13  -1   12.10    5.30
   5 -13   1   20.00    8.20
   5 -13   1   13.70    5.80
  -5 -13  -1    9.10    6.30
  -5 -13  -1    6.80    2.70
   5 -13   1   16.00    7.60
   5 -13   1   14.60    5.40
  -5  13  -2   -4.10    5.00
   5  13   2   -6.30    5.60
   5  13   2   -3.30    3.30
  -5  13  -2   -0.90    7.30
  -5  13  -2  -10.30    8.40
   5 -13   2   -6.90    8.00
  -5 -13  -2    3.60    6.60
  -5 -13  -2    0.60    4.30
  -5 -13  -2    3.10    3.10
   5 -13   2   -3.80    5.00
   5 -13   2   -4.90    7.90
   5  13   3   25.40    6.40
   5  13   3   17.10    4.90
  -5  13  -3   12.90    9.70
  -5  13  -3    8.70    5.70
   5  13   3   18.20    4.00
  -5  13  -3    9.50   10.40
  -5 -13  -3   30.50    5.70
   5 -13   3   14.20    5.60
  -5 -13  -3   16.40    7.90
  -5 -13  -3    2.10    5.40
  -5 -13  -3   17.70    7.50
   5 -13   3   13.30    9.00
   5 -13   3   16.40    9.00
   5  14  -1  164.38   13.80
  -5  14   1  162.78   13.10
   5  14  -1  161.58   10.10
  -5  14   1  173.58   16.60
  -5  14   1  167.88   13.10
  -5  14   1  165.88   16.20
   5 -14  -1  169.38   13.30
   5 -14  -1  160.98   15.50
   5 -14  -1  144.19   15.40
   5 -14  -1  163.08   13.30
  -5  14   0    8.30    8.10
   5  14   0    3.00    6.20
  -5  14   0   -5.10    5.60
  -5  14   0  -10.60    9.50
  -5  14   0   -3.50    5.80
   5 -14   0    5.90    7.90
   5 -14   0   -4.80    8.80
   5 -14   0    3.20    5.80
  -5 -14   0    0.50    6.00
   5 -14   0   -5.60    5.60
   5  14   1   24.40    7.10
  -5  14  -1   12.10    9.10
  -5  14  -1   15.40    9.40
  -5  14  -1   16.00    6.30
  -5  14  -1   25.40    6.30
  -5 -14  -1   24.50    7.10
   5 -14   1   30.60    6.40
   5 -14   1   27.50    9.50
   5 -14   1   33.70    9.10
   6   0  -7    4.00    6.10
   6   0  -7   -3.40    8.10
  -6   0   7   11.20    7.80
  -6   0   7   -1.70    5.10
   6   0  -6  108.39   10.20
   6   0  -6  100.09    9.30
  -6   0   6   95.99   12.90
  -6   0   6   77.39    9.70
  -6   0   6   83.39    9.10
  -6   0   6   74.39   10.00
   6   0  -6   85.59    8.50
  -6   0   5   -1.10    4.30
   6   0  -5   -4.30    4.30
  -6   0   5   -5.10    4.00
   6   0  -5   -8.00    3.70
   6   0  -5   -3.80    3.80
  -6   0   5   -2.10    4.70
   6   0  -4   -3.50    3.50
  -6   0   4   -3.30    4.10
   6   0  -4   -2.90    2.90
  -6   0   4   -2.10    3.80
  -6   0   4   -1.40    3.10
  -6   0   4   -0.20    3.80
   6   0  -4   -4.30    3.90
  -6   0   3    3.90    3.20
   6   0  -3    7.30    3.00
   6   0  -3    0.10    2.90
  -6   0   3    4.50    2.90
  -6   0   3    5.90    3.30
   6   0  -3    4.30    3.70
  -6   0   3    9.00    4.00
   6   0  -2  274.77   12.50
   6   0  -2  291.27   14.10
  -6   0   2  288.37   14.20
  -6   0   2  266.87   12.80
   6   0  -2  284.47   12.60
  -6   0   2  271.87   12.90
   6   0  -2  272.77   12.60
   6   0  -1    8.60    1.90
  -6   0   0  240.68   11.90
   6   0   0  254.47   11.80
   6   0   0  246.58   12.80
   6   0   0  253.07   11.40
  -6   0   0  257.37   12.80
  -6   0   0  244.68   11.70
   6   0   1   -1.70    2.20
  -6   0  -1   -3.20    2.80
   6   0   1   -2.80    3.00
  -6   0  -1    2.20    3.00
  -6   0  -1   -6.00    3.10
   6   0   1   -0.90    2.70
  -6   0  -2    9.20    3.40
   6   0   2    5.50    3.80
   6   0   2    1.50    3.20
   6   0   2    2.30    2.90
  -6   0  -2    0.50    3.60
  -6   0  -2    4.40    3.40
   6   0   3   12.50    3.90
  -6   0  -3   14.40    3.90
  -6   0  -3    9.40    3.90
   6   0   3   11.30    4.00
   6   0   3   14.50    3.80
  -6   0  -3    4.10    4.00
   6   0   4  270.97   14.20
  -6   0  -4  271.07   14.40
  -6   0  -4  263.07   14.10
   6   0   4  272.67   14.00
  -6   0  -5   16.30    6.60
   6   0   5   25.10    5.50
  -6   0  -5   19.80    5.60
  -6   0  -6   75.59   11.10
   6   0   6   43.60    8.40
   6   0   6   58.79    8.40
  -6   0  -6   57.79    9.90
  -6   1   7   84.39    9.70
  -6  -1   7   70.49    9.40
   6  -1  -7   83.79   12.40
   6   1  -6    3.60    5.00
  -6   1   6   -3.50    6.30
  -6   1   6    4.50    5.80
   6   1  -6    5.50    5.10
  -6   1   6   -7.20    6.20
   6   1  -6   -4.20    4.10
  -6   1   6    1.20    4.90
   6  -1  -6   -2.90    5.30
  -6  -1   6    6.60    5.40
   6  -1  -6   -3.30    5.40
  -6  -1   6    0.30    5.40
  -6  -1   6   -1.00    4.50
   6  -1  -6   -7.90    4.90
   6  -1  -6    0.20    5.80
   6   1  -5   22.00    5.10
   6   1  -5   15.30    4.50
   6   1  -5   17.90    4.20
  -6   1   5   18.00    4.60
  -6   1   5   24.40    5.40
  -6  -1   5   15.70    4.90
   6  -1  -5   15.70    4.90
   6  -1  -5   13.20    5.30
   6  -1  -5   20.20    4.90
  -6  -1   5   23.00    5.60
   6  -1  -5   24.10    5.00
  -6  -1   5   13.70    4.80
  -6   1   4   -6.20    3.50
   6   1  -4   -0.70    2.80
  -6   1   4   -2.30    4.40
   6   1  -4   -5.90    3.70
   6   1  -4   -4.10    3.00
  -6   1   4   -6.40    3.90
  -6   1   4    1.40    3.00
  -6  -1   4   -1.70    4.00
  -6  -1   4    2.30    3.20
  -6  -1   4    0.50    3.40
  -6  -1   4   -3.10    3.40
   6  -1  -4   -4.60    3.30
   6  -1  -4   -6.20    3.60
   6  -1  -4    0.10    3.50
  -6   1   3  283.37   14.90
  -6   1   3  300.97   13.90
   6   1  -3  258.17   13.00
  -6   1   3  289.47   13.30
   6   1  -3  298.07   13.10
  -6   1   3  291.17   13.90
   6   1  -3  273.17   14.60
   6  -1  -3  326.47   13.80
   6  -1  -3  300.47   15.00
  -6  -1   3  290.77   13.20
  -6  -1   3  274.97   13.30
  -6  -1   3  297.67   13.70
   6  -1  -3  298.27   13.60
  -6  -1   3  308.17   14.80
   6  -1  -3  281.17   13.60
   6   1  -2    7.90    3.70
   6   1  -2    5.00    2.20
   6   1  -2    1.50    2.20
  -6   1   2    3.90    3.40
  -6   1   2   12.40    4.00
  -6   1   2   -0.90    2.60
  -6  -1   2    4.30    2.70
   6  -1  -2   12.20    3.80
  -6  -1   2    1.10    3.10
   6  -1  -2   -0.50    2.40
   6  -1  -2    5.40    2.80
  -6  -1   2    5.70    3.80
   6  -1  -2    5.70    2.90
   6   1  -1  655.73   26.40
  -6   1   1  668.43   27.20
  -6   1   1  666.43   28.10
  -6   1   1  630.14   27.20
   6   1  -1  688.73   28.00
   6   1  -1  658.23   26.40
   6  -1  -1  669.53   27.20
   6  -1  -1  669.73   27.00
   6  -1  -1  648.74   26.10
  -6  -1   1  650.33   26.60
  -6  -1   1  623.44   26.50
   6  -1  -1  650.43   28.10
   6   1   0    7.20    2.60
  -6   1   0    9.00    3.70
   6   1   0   11.50    3.50
   6  -1   0   10.20    3.30
  -6  -1   0    7.80    2.90
  -6  -1   0   10.90    3.90
  -6   1  -1   58.19    6.00
  -6   1  -1   49.70    5.90
   6   1   1   56.59    5.10
   6   1   1   55.59    6.70
  -6   1  -1   48.10    6.00
   6   1   1   60.69    4.60
  -6  -1  -1   61.69    5.20
   6  -1   1   62.69    7.00
   6  -1   1   58.79    5.60
  -6  -1  -1   48.40    5.30
  -6  -1  -1   45.80    6.30
   6  -1   1   57.79    5.20
  -6   1  -2    9.60    3.80
   6   1   2   11.70    4.20
   6   1   2    7.50    2.90
  -6   1  -2    8.90    3.70
  -6   1  -2    9.20    3.80
   6   1   2    8.30    3.10
   6  -1   2   10.70    3.80
  -6  -1  -2    7.40    3.10
   6  -1   2    9.40    4.10
  -6  -1  -2    3.70    3.10
  -6  -1  -2   16.10    4.30
   6  -1   2    9.20    3.40
  -6   1  -3  126.19    9.00
   6   1   3  114.39    9.30
  -6   1  -3  125.59    8.80
   6   1   3  125.29    8.10
  -6   1  -3  122.89    8.60
   6   1   3  138.69    8.50
   6  -1   3  123.59    9.20
  -6  -1  -3  125.69    8.20
   6  -1   3  127.99    8.70
  -6  -1  -3  113.19    8.80
  -6  -1  -3  116.99    8.60
   6  -1   3  115.49    8.50
  -6   1  -4   52.39    7.50
  -6   1  -4   58.79    7.60
   6  -1   4   50.59    7.70
   6  -1   4   64.69    7.60
  -6   1  -5  150.18   13.40
   6   1   5  136.19   10.40
  -6   1  -5  164.58   11.40
   6   1   5  146.99   11.40
   6  -1   5  146.19   11.00
  -6  -1  -5  152.78   12.10
   6  -1   5  156.38   11.90
  -6  -1  -5  163.98   11.20
  -6   1  -6   26.30    7.00
   6   1   6   11.60    7.20
   6   1   6    4.40    6.00
  -6   1  -6   11.50    8.40
  -6  -1  -6    4.90    6.90
   6  -1   6    3.40    7.10
  -6  -1  -6   22.50    8.90
   6  -1   6   11.20    6.90
  -6  -1  -6    4.40    3.20
  -6   2   6   92.19    9.50
   6   2  -6   98.49    8.00
  -6   2   6  127.59   10.60
   6   2  -6  104.09    9.90
  -6   2   6  102.59   11.40
   6   2  -6  103.09    9.00
  -6   2   6   92.79   11.70
   6  -2  -6   90.79    9.90
  -6  -2   6  106.09    9.70
   6  -2  -6   91.29   10.10
   6  -2  -6   95.19   10.60
   6  -2  -6   93.49   10.50
  -6  -2   6   96.39    9.30
  -6   2   5   15.10    5.50
   6   2  -5   14.10    3.60
   6   2  -5   14.80    4.60
   6   2  -5   18.10    4.40
  -6   2   5   20.10    4.50
  -6   2   5   18.00    6.00
  -6  -2   5    6.10    5.00
  -6  -2   5   13.10    4.50
   6  -2  -5   12.10    4.80
  -6  -2   5    8.80    4.70
   6  -2  -5   16.30    5.30
   6  -2  -5   20.80    5.40
   6  -2  -5   24.60    5.70
  -6  -2   5   18.80    4.60
  -6   2   4    2.30    3.10
   6   2  -4    4.60    3.90
  -6   2   4   -4.10    4.20
   6   2  -4   -1.50    2.60
  -6   2   4   -5.30    4.00
  -6  -2   4   -1.80    3.60
  -6  -2   4    1.30    3.30
   6  -2  -4   -6.10    3.50
  -6  -2   4    1.60    4.30
  -6  -2   4   -3.40    3.10
   6  -2  -4   -3.50    3.70
   6  -2  -4   -2.80    4.40
   6  -2  -4   -5.60    3.50
  -6   2   3    2.70    3.80
   6   2  -3   -3.20    3.60
   6   2  -3   -0.30    2.70
  -6   2   3   -2.20    2.60
   6   2  -3    2.10    2.40
  -6   2   3    8.80    4.20
  -6  -2   3   -0.50    3.40
  -6  -2   3    1.10    3.30
  -6  -2   3   -3.90    2.50
   6  -2  -3    3.20    3.30
  -6  -2   3   -4.40    3.70
   6  -2  -3    7.00    3.60
   6  -2  -3    4.30    3.50
   6  -2  -3    5.40    3.90
   6   2  -2  268.27   11.00
   6   2  -2  264.87   11.20
   6   2  -2  265.47   13.20
  -6   2   2  260.47   13.60
  -6   2   2  230.28   12.60
  -6   2   2  271.97   12.80
  -6   2   2  237.58   11.50
   6  -2  -2  243.48   12.40
  -6  -2   2  257.47   11.40
   6  -2  -2  225.68   13.30
  -6  -2   2  251.97   12.50
   6  -2  -2  268.37   12.50
   6  -2  -2  253.47   11.70
   6   2  -1   18.80    2.80
   6   2  -1   22.90    3.30
   6  -2  -1   21.40    4.00
  -6  -2   1   13.60    4.30
   6  -2  -1   24.90    3.40
  -6  -2   1   28.10    3.60
  -6   2   0  308.47   14.30
  -6   2   0  322.77   14.30
   6   2   0  275.47   12.00
   6   2   0  297.87   12.80
  -6   2   0  312.77   14.20
   6   2   0  299.37   14.50
   6   2   0  252.97   12.50
   6  -2   0  310.87   14.20
   6  -2   0  306.47   13.80
  -6  -2   0  295.97   12.80
   6  -2   0  310.57   14.90
   6  -2   0  281.07   13.20
  -6  -2   0  305.87   14.90
   6   2   1    0.10    2.30
  -6   2  -1    4.70    3.40
  -6   2  -1    0.40    3.20
   6   2   1   -0.50    3.60
   6   2   1   -1.90    2.00
  -6   2  -1    1.10    3.50
   6  -2   1    7.80    3.20
  -6  -2  -1    2.10    3.80
   6  -2   1    4.80    3.70
   6  -2   1    6.00    3.00
  -6  -2  -1   -2.20    2.40
  -6  -2  -1   -2.40    2.60
  -6   2  -2   10.60    4.10
  -6   2  -2    8.90    4.00
   6   2   2   14.00    3.00
   6   2   2   13.10    3.10
  -6   2  -2   11.40    3.80
   6   2   2   17.90    4.10
  -6  -2  -2   14.10    3.60
   6  -2   2    5.70    4.00
   6  -2   2   15.50    4.10
  -6  -2  -2   11.40    3.10
  -6  -2  -2   12.20    4.20
   6  -2   2    8.00    3.60
   6   2   3    5.70    3.30
   6   2   3    9.80    3.70
  -6   2  -3   18.40    5.00
  -6   2  -3   11.80    3.70
  -6   2  -3   16.60    4.60
   6  -2   3   13.00    4.20
   6  -2   3   18.80    4.50
  -6  -2  -3   10.50    4.20
  -6  -2  -3    8.10    4.50
   6  -2   3   13.30    4.10
   6   2   4  137.49    9.50
   6   2   4  130.29    9.10
  -6   2  -4  123.19   10.10
  -6   2  -4  139.09    9.80
   6  -2   4  141.79   10.30
  -6  -2  -4  129.49   10.50
   6  -2   4  142.19   10.00
  -6  -2  -4  135.19    9.40
   6  -2   4  134.99   10.20
   6   2   5    3.80    4.70
  -6   2  -5   20.50    5.90
   6   2   5    1.20    5.20
  -6  -2  -5    6.20    5.20
   6  -2   5   23.60    6.10
  -6  -2  -5   11.70    6.10
   6  -2   5   23.80    6.10
  -6  -2  -5    4.90    6.20
   6  -2   5   19.50    5.80
   6   2   6   22.60    7.40
   6   2   6   16.40    6.30
  -6   2  -6   20.00    8.60
  -6   2  -6   11.30    7.00
  -6   2  -6    8.80    3.40
   6  -2   6   22.10    8.00
  -6  -2  -6   19.90    8.50
  -6  -2  -6   15.80    7.20
   6  -2   6   20.10    6.80
  -6   3   6    5.00    5.20
  -6   3   6   12.50    6.50
  -6   3   6   13.50    7.40
   6   3  -6   10.60    3.90
   6   3  -6   19.20    5.20
  -6   3   6   -2.90    6.30
   6   3  -6   15.80    5.20
   6  -3  -6    6.70    6.10
   6  -3  -6    7.90    6.30
  -6  -3   6   -4.50    5.00
   6  -3  -6    0.90    6.50
  -6  -3   6    5.00    5.00
  -6  -3   6    5.60    5.30
   6  -3  -6   19.90    6.40
  -6  -3   6    3.10    5.80
  -6   3   5   61.09    9.20
  -6   3   5   53.79    7.40
   6   3  -5   58.59    5.70
   6   3  -5   67.89    6.50
   6   3  -5   72.09    8.00
  -6   3   5   64.59    6.90
  -6   3   5   57.49    8.80
  -6  -3   5   65.69    8.00
   6  -3  -5   76.09    8.40
   6  -3  -5   58.89    7.60
  -6  -3   5   41.00    6.70
   6  -3  -5   62.49    9.00
  -6  -3   5   66.09    6.90
   6  -3  -5   60.59    8.10
  -6  -3   5   65.19    8.30
  -6   3   4   65.99    5.60
   6   3  -4   57.09    5.40
   6   3  -4   55.99    5.10
   6   3  -4   61.69    7.10
  -6   3   4   56.79    7.70
  -6  -3   4   54.49    7.70
   6  -3  -4   65.89    8.00
   6  -3  -4   56.79    7.00
  -6  -3   4   58.39    5.50
   6  -3  -4   57.69    7.00
  -6  -3   4   63.89    6.50
  -6  -3   4   61.29    7.60
   6  -3  -4   55.69    7.00
  -6   3   3    5.60    4.40
  -6   3   3    7.70    2.80
  -6   3   3    4.90    4.30
   6   3  -3    7.70    2.40
   6   3  -3   13.60    4.10
   6   3  -3    7.80    2.30
  -6  -3   3    7.00    2.80
  -6  -3   3    9.30    4.10
  -6  -3   3    6.80    2.60
   6  -3  -3    5.00    3.80
   6  -3  -3    7.60    3.50
   6  -3  -3   10.90    4.20
  -6  -3   3    0.80    3.50
   6  -3  -3    3.70    3.70
  -6   3   2   46.90    6.90
  -6   3   2   47.80    7.20
   6   3  -2   39.90    3.10
  -6   3   2   34.20    5.00
   6   3  -2   42.60    3.00
   6   3  -2   54.09    6.50
  -6  -3   2   44.80    3.80
   6  -3  -2   46.50    6.30
  -6  -3   2   43.50    5.40
   6  -3  -2   62.99    7.20
   6  -3  -2   40.30    6.30
  -6  -3   2   49.70    3.50
   6  -3  -2   41.10    4.90
  -6   3   1  388.66   18.00
   6   3  -1  383.06   17.50
   6   3  -1  399.26   15.10
  -6   3   1  370.56   17.70
   6   3  -1  361.06   15.00
  -6   3   1  376.16   17.30
   6  -3  -1  397.46   17.20
   6  -3  -1  377.76   17.70
   6  -3  -1  331.67   17.60
  -6  -3   1  412.36   18.50
  -6  -3   1  382.16   15.40
   6  -3  -1  381.06   15.90
   6   3   0    4.50    3.30
   6   3   0    0.70    1.70
   6   3   0    3.10    1.70
  -6   3   0    3.60    3.60
  -6   3   0    7.00    3.20
   6   3   0    0.30    1.70
  -6   3   0    7.50    3.90
   6  -3   0    2.10    1.70
  -6  -3   0    1.90    2.10
  -6  -3   0    1.30    1.90
   6  -3   0    3.40    3.80
   6  -3   0    4.50    3.10
  -6  -3   0   -3.00    3.50
   6  -3   0   -0.50    3.60
  -6   3  -1   28.90    4.20
  -6   3  -1   26.30    5.00
   6   3   1   27.40    3.10
   6   3   1   29.70    3.30
   6   3   1   29.20    4.90
  -6   3  -1   29.20    4.80
   6  -3   1   27.40    4.40
   6  -3   1   19.20    4.40
  -6  -3  -1   29.00    5.20
   6  -3   1   30.00    4.70
  -6  -3  -1   27.90    4.10
   6  -3   1   30.90    4.00
   6   3   2   71.89    7.40
  -6   3  -2   59.39    6.20
  -6   3  -2   49.40    7.10
   6   3   2   67.79    5.20
   6   3   2   66.99    5.10
  -6   3  -2   60.69    7.30
  -6  -3  -2   70.59    5.80
  -6  -3  -2   58.99    7.30
   6  -3   2   47.80    7.20
   6  -3   2   47.70    6.40
   6  -3   2   45.70    6.80
  -6  -3  -2   63.79    5.50
  -6   3  -3  156.98    9.90
   6   3   3  169.58    9.50
   6   3   3  169.38    9.70
  -6   3  -3  186.08   11.20
  -6  -3  -3  174.88   10.00
   6  -3   3  178.98   11.10
   6  -3   3  179.28   11.00
  -6  -3  -3  175.28    9.70
  -6  -3  -3  174.58   11.10
   6  -3   3  184.88   11.10
  -6   3  -4   19.50    4.60
   6   3   4    4.40    4.10
   6   3   4    4.20    3.70
  -6   3  -4   12.80    4.90
  -6  -3  -4    8.50    5.50
   6  -3   4   12.80    5.20
  -6  -3  -4   11.70    4.00
   6  -3   4    9.10    4.90
   6  -3   4   10.20    4.90
   6   3   5  110.09    9.70
  -6   3  -5  119.89    9.60
  -6   3  -5  104.79    6.30
  -6   3  -5   88.09   10.40
  -6   3  -5  119.49   15.40
   6   3   5  110.39    9.30
   6  -3   5  114.99   10.40
  -6  -3  -5  116.29   10.90
  -6  -3  -5  108.09   10.40
   6  -3   5  121.19   10.80
   6  -3   5   99.49   11.00
  -6  -3  -5   96.79    9.80
  -6   3  -6   16.70    6.80
  -6   3  -6   -7.20    8.40
   6   3   6    8.50    6.20
   6   3   6    6.60    7.10
  -6   3  -6   -1.70    3.40
  -6  -3  -6    2.70    3.60
   6  -3   6   11.70    6.40
  -6  -3  -6    3.50    8.30
   6  -3   6    3.60    7.10
   6  -3   6   -1.10    7.40
  -6  -3  -6   -0.40    6.90
  -6   4   6   54.89    9.10
  -6   4   6   35.20    7.50
   6   4  -6   37.70    5.90
   6   4  -6   44.40    5.90
  -6   4   6   52.99    8.50
   6   4  -6   41.50    5.60
   6  -4  -6   46.20    8.30
   6  -4  -6   46.20    7.50
  -6  -4   6   46.90    7.20
   6  -4  -6   49.50    8.00
   6  -4  -6   53.89    8.10
  -6  -4   6   42.50    6.00
  -6  -4   6   51.19    7.00
  -6   4   5   18.80    6.40
   6   4  -5   21.70    3.80
  -6   4   5   27.60    4.60
   6   4  -5   17.80    3.90
  -6   4   5   23.60    6.20
   6   4  -5   24.30    4.90
  -6   4   5   33.90    7.40
   6  -4  -5   26.00    5.90
   6  -4  -5   18.00    5.60
  -6  -4   5   28.40    4.50
  -6  -4   5   24.70    5.50
  -6  -4   5   18.90    5.50
   6  -4  -5   14.20    5.40
   6  -4  -5   24.80    6.10
  -6   4   4    8.80    3.10
   6   4  -4   12.70    2.60
   6   4  -4   13.80    2.70
   6   4  -4    7.70    3.90
  -6   4   4   11.20    5.80
  -6  -4   4   15.90    4.80
   6  -4  -4    6.90    4.60
  -6  -4   4    6.90    3.70
  -6  -4   4    9.60    4.60
   6  -4  -4   17.00    4.50
   6  -4  -4   14.00    4.90
  -6  -4   4   20.20    3.30
   6  -4  -4    5.50    4.40
   6   4  -3  114.49    8.60
  -6   4   3  107.59    9.90
   6   4  -3  125.59    5.50
  -6   4   3  129.89    9.60
  -6   4   3  126.09    6.90
   6   4  -3  125.09    5.40
   6  -4  -3  120.39    9.80
   6  -4  -3  130.09    8.40
   6  -4  -3  134.99    9.30
   6  -4  -3  135.69    9.10
  -6  -4   3  115.29    9.10
  -6  -4   3  119.19    6.30
  -6  -4   3  129.89    6.20
  -6   4   2  496.15   22.90
   6   4  -2  530.25   22.70
  -6   4   2  520.35   23.30
  -6  -4   2  513.75   22.70
  -6  -4   2  497.55   20.10
   6  -4  -2  549.54   23.20
   6  -4  -2  508.25   21.60
   6  -4  -2  503.45   22.80
   6  -4  -2  532.25   23.30
  -6   4   1    1.80    4.00
   6   4  -1   -1.30    2.10
  -6   4   1   -7.10    4.10
   6   4  -1   -2.20    3.30
  -6   4   1    2.70    4.00
   6  -4  -1    0.60    2.30
   6  -4  -1   -1.10    4.40
   6  -4  -1    5.20    3.60
   6  -4  -1   -1.60    3.40
  -6  -4   1    8.40    4.50
  -6   4   0  215.18   12.00
   6   4   0  203.38    9.60
  -6   4   0  224.38   12.00
  -6   4   0  215.58   12.10
   6   4   0  220.68   11.50
   6  -4   0  216.98   11.50
   6  -4   0  237.88   12.30
  -6  -4   0  192.68    8.90
  -6  -4   0  222.38    9.00
  -6  -4   0  224.88   12.30
   6  -4   0  193.58   11.80
   6  -4   0  209.48    9.50
   6   4   1  191.28    8.60
   6   4   1  196.68    8.60
  -6   4  -1  193.48   11.20
  -6   4  -1  184.28   11.10
  -6   4  -1  200.78   10.20
   6   4   1  190.78   10.80
   6  -4   1  192.38   11.20
   6  -4   1  193.58   10.80
  -6  -4  -1  161.48    8.80
  -6  -4  -1  201.18    8.80
   6  -4   1  192.38   11.00
  -6  -4  -1  161.68   11.10
   6  -4   1  188.38    8.80
   6   4   2   33.70    4.20
   6   4   2   31.80    4.30
  -6   4  -2   45.60    9.40
  -6   4  -2   31.60    4.50
  -6   4  -2   30.30    5.30
   6  -4   2   33.90    5.10
  -6  -4  -2   36.30    4.80
  -6  -4  -2   26.30    5.70
   6  -4   2   33.60    5.60
  -6  -4  -2   38.30    5.00
   6  -4   2   40.30    5.80
  -6   4  -3   80.09    7.00
   6   4   3   62.99    6.20
  -6   4  -3   81.69    8.50
   6   4   3   67.29    5.90
  -6  -4  -3   58.69    6.10
  -6  -4  -3   52.99    7.80
   6  -4   3   68.19    7.80
   6  -4   3   74.29    8.10
  -6  -4  -3   69.39    6.80
   6  -4   3   79.49    8.40
   6   4   4  156.68    9.50
  -6   4  -4  162.78   11.40
  -6   4  -4  148.39    9.90
   6   4   4  161.88    9.70
  -6  -4  -4  149.79    9.70
   6  -4   4  131.79   11.10
   6  -4   4  161.58   11.30
  -6  -4  -4  143.69   11.80
   6  -4   4  144.19   10.60
  -6   4  -5   15.30    5.20
  -6   4  -5    4.10    7.00
  -6   4  -5    7.70    6.30
  -6   4  -5    9.10    3.00
   6   4   5    0.30    5.50
   6   4   5    5.50    4.70
   6  -4   5   12.50    6.00
  -6  -4  -5    2.30    5.40
   6  -4   5   20.10    6.60
  -6  -4  -5    0.40    2.50
  -6  -4  -5    0.10    6.20
   6  -4   5    9.90    5.60
  -6  -4  -5    4.10    5.80
  -6   4  -6   43.80    9.90
   6   4   6   27.40    6.70
   6   4   6   31.80    8.20
  -6   4  -6   26.00    7.60
  -6   4  -6   25.20    4.30
   6  -4   6   33.50    7.20
  -6  -4  -6   34.60    7.70
   6  -4   6   30.00    8.50
  -6  -4  -6   42.00    9.30
   6  -4   6   19.60    8.40
  -6   5   6   -3.20    7.70
   6   5  -6   14.60    4.00
   6   5  -6    4.70    3.30
  -6   5   6    5.00    7.60
  -6   5   6    4.70    7.80
   6   5  -6    6.70    4.40
   6  -5  -6    4.40    6.30
   6  -5  -6   14.40    7.00
  -6  -5   6   11.70    4.80
  -6  -5   6    8.00    5.10
  -6  -5   6    1.00    5.60
   6  -5  -6   -1.00    6.80
   6  -5  -6   16.70    7.10
  -6   5   5   15.10    6.40
  -6   5   5   29.30    7.50
   6   5  -5   23.90    4.70
  -6   5   5   21.60    7.00
   6   5  -5   23.40    3.70
  -6   5   5   23.10    4.40
   6   5  -5   17.00    3.30
   6  -5  -5   21.00    6.40
  -6  -5   5   19.20    5.70
   6  -5  -5   17.30    5.60
   6  -5  -5   13.40    6.10
   6  -5  -5   15.10    6.00
  -6  -5   5   23.90    4.00
   6   5  -4   97.09    5.00
   6   5  -4  102.69    8.20
  -6   5   4  100.99    6.50
   6   5  -4   90.99    5.10
  -6   5   4  103.29   10.20
  -6   5   4  104.79   10.70
  -6   5   4  115.09   10.80
  -6  -5   4   98.89    5.90
   6  -5  -4  108.09    9.50
   6  -5  -4  103.69    9.30
  -6  -5   4  102.49    9.00
   6  -5  -4   95.69    9.50
   6  -5  -4   98.09    8.60
  -6   5   3   79.19    5.20
   6   5  -3   77.39    7.50
   6  -5  -3   76.69    7.10
  -6  -5   3   78.59    8.20
   6  -5  -3   69.19    8.40
   6  -5  -3   79.79    8.40
   6  -5  -3   71.69    8.50
  -6   5   2    6.20    5.30
   6   5  -2   19.70    4.30
  -6   5   2   13.80    4.90
   6  -5  -2   13.50    4.80
   6  -5  -2   16.50    4.70
   6  -5  -2   17.60    3.50
  -6  -5   2   11.90    4.50
   6  -5  -2   14.50    5.20
  -6   5   1  144.39   10.00
  -6   5   1  148.99   10.30
   6   5  -1  159.08    8.20
   6   5  -1  152.78    9.50
  -6   5   1  170.18   10.80
   6  -5  -1  143.99    8.20
  -6  -5   1  169.88   11.20
   6  -5  -1  146.99   10.60
   6  -5  -1  168.28   10.30
   6  -5  -1  147.29    9.90
  -6   5   0  202.78   12.20
  -6   5   0  222.38   12.20
   6   5   0  202.98   11.20
  -6   5   0  215.08   12.20
   6   5   0  199.88    9.80
  -6  -5   0  222.88   12.70
   6  -5   0  208.38   12.10
   6  -5   0  217.28   12.30
   6  -5   0  220.68   11.90
   6  -5   0  207.38    9.80
  -6   5  -1   39.60    6.10
   6   5   1   32.90    2.70
   6   5   1   25.40    3.50
   6   5   1   35.80    2.90
  -6   5  -1   39.50    4.70
   6   5   1   38.70    5.30
   6  -5   1   34.70    5.40
  -6  -5  -1   32.50    6.00
   6  -5   1   36.70    5.70
   6  -5   1   29.00    5.20
  -6  -5  -1   31.60    3.60
  -6  -5  -1   26.30    3.20
  -6   5  -2  134.69   10.00
  -6   5  -2  139.39    6.50
   6   5   2  123.59    7.40
  -6   5  -2  129.59    8.30
   6   5   2  144.59    7.20
   6  -5   2  130.99   10.00
   6  -5   2  131.79    9.90
  -6  -5  -2  145.49    7.60
   6  -5   2  129.29    9.60
  -6  -5  -2  139.49    9.00
  -6  -5  -2  113.49    9.80
  -6   5  -3   57.69    6.60
  -6   5  -3   65.59    8.60
  -6   5  -3   60.59    4.30
   6   5   3   53.09    5.80
   6   5   3   53.79    5.60
  -6  -5  -3   55.39    6.00
  -6  -5  -3   52.39    6.50
   6  -5   3   53.19    6.60
   6  -5   3   56.99    8.10
  -6  -5  -3   61.39    8.20
   6  -5   3   60.59    8.00
   6   5   4   11.10    4.10
  -6   5  -4    6.10    5.60
  -6   5  -4   14.70    2.80
  -6   5  -4   15.00    4.40
   6   5   4    8.00    4.00
  -6  -5  -4    4.40    4.40
   6  -5   4   11.80    5.60
   6  -5   4   12.80    5.90
  -6  -5  -4    9.20    6.20
   6  -5   4    9.50    4.70
  -6   5  -5   42.10    7.30
   6   5   5   55.89    8.30
   6   5   5   51.29    7.00
  -6   5  -5   32.70    8.00
  -6   5  -5   50.09    6.10
  -6   5  -5   52.79    7.00
   6  -5   5   50.69    7.10
  -6  -5  -5   38.10    7.40
  -6  -5  -5   51.59    6.90
   6  -5   5   47.40    8.70
   6  -5   5   45.00    7.90
  -6  -5  -5   41.40    7.60
  -6   5  -6    6.50    8.00
   6   5   6    6.90    6.50
  -6   5  -6    7.70    8.80
   6   5   6   10.40    7.30
  -6   5  -6   17.70    4.50
   6  -5   6   11.20    8.70
  -6  -5  -6   27.40    7.30
  -6  -5  -6   14.70    8.20
   6  -5   6   28.20    8.50
   6  -5   6   10.10    6.60
  -6  -5  -6   -1.10    4.40
   6   6  -6   30.90    4.90
  -6   6   6   12.30    8.70
   6   6  -6   27.20    4.30
  -6   6   6   37.20    9.60
   6   6  -6   30.30    4.60
  -6   6   6   26.60    8.00
  -6  -6   6   30.40    5.40
   6  -6  -6   23.20    8.20
   6  -6  -6   17.70    8.00
  -6  -6   6   26.00    6.40
   6  -6  -6   38.40    8.30
   6   6  -5   82.89    5.40
  -6   6   5   80.19   11.50
   6   6  -5   78.29    5.30
  -6   6   5   92.59    7.00
  -6   6   5   97.19   12.20
  -6   6   5   90.59   10.20
   6   6  -5   95.29    7.40
  -6  -6   5   78.29    6.40
   6  -6  -5   78.89   10.30
   6  -6  -5   95.89   10.90
  -6  -6   5   70.79    8.80
   6  -6  -5   85.59    9.60
   6  -6  -5   57.29    7.90
   6   6  -4    4.40    3.80
  -6   6   4    4.10    6.50
  -6   6   4   13.20    3.30
   6  -6  -4    8.90    4.50
  -6  -6   4   10.20    2.30
   6  -6  -4    2.40    4.80
   6  -6  -4    9.90    6.00
  -6  -6   4    7.80    4.70
   6  -6  -4   14.80    6.20
   6   6  -3   87.29    7.80
   6  -6  -3   87.19    9.30
   6  -6  -3   80.79    9.20
   6  -6  -3  102.79    9.30
  -6  -6   3   81.19    8.70
   6  -6  -3   85.99    7.70
  -6   6   2  107.19   10.70
   6   6  -2  129.79    7.90
   6   6  -2  125.89    8.80
   6  -6  -2  116.89    8.10
  -6  -6   2  120.29    9.80
   6  -6  -2  134.49   10.00
   6  -6  -2  115.09   10.10
   6  -6  -2  139.69   10.00
  -6   6   1   -2.50    3.70
   6   6  -1    0.10    2.50
   6   6  -1   -2.00    3.10
  -6   6   1   -6.10    4.50
   6  -6  -1   -4.00    4.10
   6  -6  -1   -1.30    4.90
  -6  -6   1   -3.20    4.50
   6  -6  -1   -0.60    2.60
   6  -6  -1   -2.70    3.60
  -6   6   0  138.99   10.10
  -6   6   0  165.08   10.70
   6   6   0  155.28    9.40
   6   6   0  144.89    8.20
   6  -6   0  153.98    8.00
  -6  -6   0  155.18   10.80
   6  -6   0  154.98   10.30
   6  -6   0  157.58   10.50
   6  -6   0  159.48   10.30
  -6   6  -1  187.08    8.70
  -6   6  -1  196.38   11.60
   6   6   1  176.68    8.60
   6   6   1  150.98   10.30
  -6  -6  -1  165.28    7.70
  -6  -6  -1  172.78   11.20
   6  -6   1  187.78   11.40
   6  -6   1  188.48   11.40
   6  -6   1  187.78   11.40
   6   6   2    1.70    2.00
  -6   6  -2   -1.10    3.30
   6   6   2   -2.00    2.30
  -6   6  -2    4.60    4.70
  -6   6  -2   -0.40    2.30
   6   6   2    0.80    2.20
   6  -6   2    2.90    4.80
   6  -6   2   -1.70    4.60
  -6  -6  -2    1.70    4.50
  -6  -6  -2   -1.30    2.60
   6  -6   2    1.60    3.90
  -6   6  -3   82.89    5.50
  -6   6  -3   66.19    6.90
  -6   6  -3   79.29    9.50
   6   6   3   72.89    5.90
   6   6   3   70.39    6.20
   6  -6   3   73.59    9.00
  -6  -6  -3   66.39    9.30
  -6  -6  -3   68.69    6.50
   6  -6   3   87.39    9.40
  -6  -6  -3   88.59    7.10
   6  -6   3   63.89    8.60
   6   6   4   79.19    7.60
  -6   6  -4   93.89    6.40
   6   6   4   75.79    7.60
  -6   6  -4   86.39    7.60
  -6   6  -4   72.29   11.20
  -6   6  -4   93.69   10.60
   6  -6   4   92.59   11.00
  -6  -6  -4   91.09    8.10
  -6  -6  -4   90.79   10.50
   6  -6   4  106.89    9.50
   6  -6   4  101.99   10.80
  -6   6  -5    9.80    7.60
  -6   6  -5   20.50    7.10
  -6   6  -5   12.40    3.90
  -6   6  -5   23.50    5.70
   6   6   5   -0.10    5.00
   6   6   5   19.50    5.70
   6  -6   5   15.80    7.60
   6  -6   5    6.10    7.30
   6  -6   5   13.80    5.50
  -6  -6  -5   23.00    6.10
  -6  -6  -5   11.90    6.50
  -6  -6  -5    3.50    3.40
  -6  -6  -5    4.80    6.70
   6   7  -5    4.60    1.80
  -6   7   5   14.90    8.10
  -6   7   5    9.00    7.80
   6   7  -5    4.70    2.10
  -6   7   5    4.50    6.50
   6   7  -5    9.20    3.70
  -6  -7   5    2.50    3.10
   6  -7  -5    4.50    7.60
   6  -7  -5   10.00    7.30
   6  -7  -5   -6.00    6.00
  -6  -7   5    2.80    5.00
   6  -7  -5   -2.70    6.10
  -6   7   4  144.49   15.80
  -6   7   4  127.59    7.40
   6   7  -4  146.49    8.70
  -6   7   4  147.49   13.90
   6  -7  -4  138.89   12.20
   6  -7  -4  130.79   12.20
  -6  -7   4  119.89   10.50
   6  -7  -4  140.19   10.30
   6  -7  -4  138.49   11.70
   6   7  -3   32.80    5.10
   6   7  -3   33.40    5.00
   6  -7  -3   37.50    7.20
  -6  -7   3   38.70    6.70
   6  -7  -3   34.10    5.10
   6  -7  -3   28.00    7.20
   6  -7  -3   45.10    6.80
  -6   7   2   34.60    7.30
   6   7  -2   45.90    5.60
   6   7  -2   42.60    4.80
  -6   7   2   45.10    6.50
   6  -7  -2   32.10    5.60
   6  -7  -2   40.70    4.90
   6  -7  -2   43.60    6.80
   6  -7  -2   39.70    6.90
  -6  -7   2   30.00    5.50
   6   7  -1   92.29    7.90
  -6   7   1  101.99    9.10
  -6   7   1  109.39   10.00
   6   7  -1   93.09    7.20
   6  -7  -1  101.29    7.20
   6  -7  -1  102.79    9.10
   6  -7  -1  118.39   10.10
   6  -7  -1  105.69    9.30
  -6  -7   1  109.19   10.00
   6   7   0   16.50    3.40
  -6   7   0   14.00    5.70
  -6   7   0   20.20    3.60
   6   7   0   17.90    4.20
  -6   7   0    7.10    4.40
   6  -7   0   18.10    5.50
   6  -7   0   11.60    3.00
   6  -7   0   12.10    5.10
   6  -7   0   13.40    4.60
  -6  -7   0   17.30    5.90
  -6   7  -1   -1.60    2.70
  -6   7  -1    0.30    4.90
   6   7   1   -2.40    3.80
   6   7   1    0.70    2.70
   6  -7   1   -0.90    4.00
  -6  -7  -1    2.20    4.70
   6  -7   1    0.30    5.00
   6  -7   1    1.20    4.50
   6   7   2  134.19    6.70
  -6   7  -2  152.68   11.20
  -6   7  -2  131.79    7.40
  -6   7  -2  140.69    8.10
   6   7   2  124.79    6.60
   6   7   2  126.69    7.20
   6  -7   2  136.49   10.60
   6  -7   2  134.29   10.30
   6  -7   2  140.29   10.90
  -6  -7  -2  121.39   10.50
  -6  -7  -2  124.89    6.90
  -6   7  -3   -1.90    6.10
  -6   7  -3    8.10    5.80
   6   7   3    1.30    3.10
   6   7   3    4.30    3.00
  -6   7  -3    5.50    3.90
  -6   7  -3    0.50    2.80
   6  -7   3    1.20    6.10
  -6  -7  -3    4.80    5.70
   6  -7   3    6.80    4.80
  -6  -7  -3   -6.00    3.90
   6  -7   3    3.20    5.50
  -6  -7  -3    4.50    3.60
  -6   7  -4   13.50    6.60
  -6   7  -4   12.70    3.50
  -6   7  -4   12.20    4.50
   6   7   4    6.20    3.80
   6   7   4   11.40    4.20
  -6   7  -4    6.10    7.20
  -6  -7  -4    8.60    6.00
  -6  -7  -4   16.50    4.60
   6  -7   4    1.30    5.00
   6  -7   4   20.80    6.80
   6  -7   4    5.10    6.80
  -6   7  -5   18.20    5.00
   6   7   5   22.80    6.20
  -6   7  -5   19.50    4.60
  -6   7  -5   31.30    8.90
  -6   7  -5   13.20    7.40
   6   7   5    3.70    5.30
   6  -7   5   13.90    8.00
   6  -7   5    2.00    7.70
  -6  -7  -5    9.80    7.20
  -6  -7  -5    4.60    3.90
   6  -7   5   17.10    6.10
  -6  -7  -5   10.90    6.80
  -6  -7  -5   15.10    5.90
  -6   8   5  100.39   13.20
   6   8  -5   62.89    6.50
  -6   8   5   51.59    7.80
  -6   8   5   75.69   11.30
   6  -8  -5   69.49   10.40
   6  -8  -5   84.29   12.90
   6  -8  -5   72.39    9.90
   6  -8  -5   66.59   10.00
  -6  -8   5   72.79    9.30
   6   8  -4   -0.40    4.50
  -6   8   4   -2.20    6.10
   6   8  -4    1.20    3.20
  -6   8   4   -6.40    7.20
  -6  -8   4   -5.50    4.50
   6  -8  -4    4.60    6.20
   6  -8  -4   -0.50    7.50
   6  -8  -4    2.00    5.40
   6  -8  -4   -2.70    7.40
   6   8  -3  129.19    9.10
   6   8  -3  116.49    8.60
  -6   8   3  113.89   10.90
  -6  -8   3  114.49   10.30
   6  -8  -3  120.29    9.50
   6  -8  -3  137.79   10.70
   6  -8  -3  121.69   11.60
   6  -8  -3  108.49   12.10
   6   8  -2   16.00    4.70
   6   8  -2   14.80    4.00
  -6   8   2    4.50    6.70
  -6   8   2   14.70    5.50
   6  -8  -2    5.40    6.00
   6  -8  -2   13.60    4.30
  -6  -8   2   19.40    5.70
   6  -8  -2   23.10    6.90
   6  -8  -2   15.90    5.90
  -6   8   1    4.90    4.60
   6   8  -1   16.20    4.10
   6   8  -1   11.00    3.60
  -6   8   1    5.90    6.10
   6  -8  -1   13.80    4.70
   6  -8  -1   18.10    6.70
   6  -8  -1   10.90    5.30
   6  -8  -1    8.30    3.60
  -6  -8   1   10.20    5.90
  -6   8   0    5.10    4.70
  -6   8   0   14.40    3.70
  -6   8   0   12.10    5.90
   6   8   0    8.20    3.50
   6   8   0   10.70    3.90
   6  -8   0    9.80    3.30
  -6  -8   0   11.80    5.80
   6  -8   0   14.70    5.30
   6  -8   0   12.20    5.50
   6  -8   0    6.70    4.60
  -6   8  -1  128.59    8.20
   6   8   1  149.59    8.50
  -6   8  -1  135.99   11.00
   6  -8   1  148.29   11.10
  -6  -8  -1  136.69   11.00
   6  -8   1  141.59   11.10
   6  -8   1  142.49   10.50
   6   8   2   42.50    5.30
  -6   8  -2   46.60    7.70
  -6   8  -2   44.30    8.20
   6   8   2   38.20    3.60
   6   8   2   33.70    3.30
  -6   8  -2   40.50    5.40
   6  -8   2   30.00    5.50
   6  -8   2   51.09    7.30
  -6  -8  -2   36.50    7.00
   6  -8   2   50.19    7.70
  -6   8  -3   64.69    9.40
   6   8   3   60.79    5.90
  -6   8  -3   46.30    6.10
   6   8   3   52.09    5.70
  -6   8  -3   49.80    6.10
  -6   8  -3   66.69    9.10
   6   8   3   58.49    5.90
  -6  -8  -3   50.39    7.80
   6  -8   3   65.29    9.20
   6  -8   3   68.19    8.90
   6  -8   3   63.79    8.40
  -6   8  -4   28.70    4.60
  -6   8  -4   30.70    5.10
  -6   8  -4   32.30    7.50
   6   8   4   24.60    4.90
   6   8   4   23.60    4.50
  -6   8  -4   14.70    8.00
   6  -8   4   30.40    6.10
   6  -8   4   21.70    7.90
   6  -8   4   34.00    7.80
  -6  -8  -4   27.00    7.20
  -6   8  -5    4.30    7.40
  -6   8  -5    0.80    4.60
  -6   8  -5    1.30    4.60
   6   8   5   -6.30    5.40
  -6   8  -5    9.10    9.50
   6   8   5   -5.20    5.50
   6  -8   5   -3.60    5.90
  -6  -8  -5  -10.30    7.00
  -6  -8  -5   -9.30    5.30
  -6  -8  -5   -0.40    4.30
   6  -8   5   -0.20    8.50
   6  -8   5   -8.30    7.50
  -6  -8  -5   -4.30    6.50
  -6   9   5   -4.20   10.10
   6   9  -5   12.50    7.30
   6   9  -5   -1.40    3.20
   6  -9  -5   -5.50    7.30
  -6  -9   5   -5.80    5.40
   6  -9  -5    0.50    9.00
   6  -9  -5   -3.30    8.90
   6  -9  -5    2.40    7.20
   6   9  -4  135.79   10.90
  -6   9   4  122.19   12.50
   6   9  -4  110.09    7.60
  -6   9   4  135.99   14.40
   6  -9  -4  122.89   11.10
   6  -9  -4  114.49   12.60
  -6  -9   4  111.89   10.80
   6  -9  -4  119.99   14.30
   6  -9  -4  143.69   13.60
   6   9  -3   16.00    4.90
   6   9  -3    5.20    3.70
  -6   9   3   17.90    6.60
  -6   9   3   26.90    8.50
  -6  -9   3   10.80    5.70
   6  -9  -3   11.30    6.30
   6  -9  -3    4.30    7.00
   6  -9  -3    4.50    4.80
   6  -9  -3   -2.70    7.40
   6   9  -2   43.80    5.60
  -6   9   2   35.80    6.80
  -6   9   2   42.90    8.20
   6   9  -2   49.90    5.80
  -6   9   2   27.60    7.60
   6  -9  -2   31.40    5.40
   6  -9  -2   37.30    7.50
   6  -9  -2   38.40    7.20
  -6  -9   2   37.50    6.60
   6  -9  -2   40.20    7.90
  -6   9   1   35.30    6.20
  -6   9   1   47.80    8.00
   6   9  -1   44.60    5.40
  -6   9   1   51.29    7.90
   6   9  -1   47.50    5.70
  -6   9   1   49.60    5.80
   6  -9  -1   54.29    8.10
  -6  -9   1   25.80    6.90
   6  -9  -1   34.70    4.90
   6  -9  -1   48.40    6.90
   6  -9  -1   48.90    8.00
  -6   9   0  145.19   11.20
  -6   9   0  156.88    9.50
   6   9   0  157.18   10.00
  -6   9   0  143.69   12.40
   6   9   0  154.18    9.90
  -6   9   0  184.68   12.80
   6  -9   0  148.89    9.40
   6  -9   0  166.08   11.90
   6  -9   0  148.99   11.00
  -6  -9   0  144.19   12.20
   6  -9   0  172.98   11.90
  -6   9  -1    5.20    6.40
  -6   9  -1    5.40    3.60
  -6   9  -1   10.90    5.80
   6   9   1    5.10    3.70
  -6  -9  -1    7.10    5.80
   6  -9   1    9.70    4.70
   6  -9   1    4.60    5.50
   6  -9   1    5.10    5.80
   6   9   2  241.18   12.50
  -6   9  -2  263.17   16.20
   6   9   2  275.17   10.60
  -6   9  -2  280.97   16.80
  -6   9  -2  253.97   12.60
   6   9   2  245.68   10.60
   6  -9   2  265.07   15.90
  -6  -9  -2  251.37   11.30
   6  -9   2  297.07   16.20
  -6  -9  -2  219.98   15.20
   6  -9   2  251.87   14.30
   6   9   3   48.10    5.80
   6   9   3   51.99    6.20
   6   9   3   49.80    5.60
  -6   9  -3   39.10    5.10
  -6   9  -3   32.40    8.30
  -6   9  -3   51.99    8.40
  -6   9  -3   43.30    5.90
   6  -9   3   56.99    8.60
   6  -9   3   43.10    6.50
  -6  -9  -3   28.00    7.10
   6  -9   3   48.40    8.80
  -6   9  -4    2.80    4.40
  -6   9  -4    6.60    4.50
  -6   9  -4   -7.40    8.90
   6   9   4    9.10    4.50
   6   9   4   16.70    4.20
  -6   9  -4   18.20    7.90
  -6  -9  -4   -3.70    4.30
   6  -9   4   15.40    5.80
   6  -9   4    9.90    8.30
  -6  -9  -4    9.20    6.20
   6  -9   4    3.10    7.60
   6  10  -4   -3.20    2.80
   6  10  -4   11.10    5.60
  -6  10   4   -3.40    6.50
  -6  10   4    0.80    8.30
   6 -10  -4   15.60    8.90
   6 -10  -4   -8.00    9.20
   6 -10  -4    9.20    6.10
  -6 -10   4   -8.60    5.10
   6 -10  -4  -12.80    7.20
   6  10  -3  127.79   10.50
  -6  10   3  151.28   14.60
   6  10  -3  121.19    8.10
  -6  10   3  106.39   12.20
   6 -10  -3  120.29   12.50
   6 -10  -3  117.79   11.00
  -6 -10   3  119.29   11.20
   6 -10  -3  101.09   13.80
   6 -10  -3  127.09   13.50
  -6  10   2    3.20    7.40
  -6  10   2    7.50    8.10
   6  10  -2   12.30    4.70
  -6  10   2   15.20    6.10
   6  10  -2   10.10    4.90
  -6 -10   2    7.30    4.60
   6 -10  -2    8.80    7.50
   6 -10  -2   15.40    5.00
   6 -10  -2    6.80    7.90
   6 -10  -2   11.20    5.70
   6  10  -1   -1.00    3.90
  -6  10   1   -0.60    4.40
   6  10  -1    3.80    4.20
  -6  10   1   -1.80    6.50
  -6  10   1    2.40    6.80
  -6  10   1    2.20    5.20
   6 -10  -1   -2.70    7.10
   6 -10  -1   -8.20    5.20
   6 -10  -1    0.20    4.20
   6 -10  -1    0.80    6.30
  -6  10   0   -0.40    4.70
  -6  10   0    1.20    6.90
   6  10   0   -1.10    4.20
   6  10   0   -2.50    4.10
  -6  10   0   -4.10    4.20
  -6  10   0  -13.20    6.70
  -6 -10   0   -1.00    6.30
   6 -10   0    6.90    7.00
   6 -10   0   -1.60    3.80
   6 -10   0    2.90    5.90
   6 -10   0    5.40    5.20
  -6  10  -1  244.18   13.00
  -6  10  -1  279.47   15.80
   6  10   1  254.37   13.50
  -6  10  -1  271.37   16.60
   6 -10   1  236.28   14.30
   6 -10   1  247.18   15.90
  -6 -10  -1  242.18   15.40
   6 -10   1  266.07   15.80
  -6  10  -2    2.30    6.60
  -6  10  -2    1.50    4.00
   6  10   2    3.60    4.00
  -6  10  -2    6.20    7.80
   6 -10   2    4.70    4.90
  -6 -10  -2    9.60    6.20
  -6 -10  -2   -0.30    2.30
   6 -10   2   18.00    7.40
  -6 -10  -2    3.30    2.70
   6 -10   2    1.90    6.90
  -6  10  -3   83.49    8.40
  -6  10  -3   92.69   12.30
   6  10   3   90.39    6.80
   6  10   3   79.29    7.90
  -6  10  -3  106.29   14.40
   6  10   3   93.19    6.70
   6 -10   3  103.29   12.40
   6 -10   3   78.09    9.20
   6 -10   3   97.79   13.30
  -6 -10  -3   78.99   10.10
   6  10   4   -0.90    4.40
  -6  10  -4   -2.30    4.50
  -6  10  -4   -6.70    8.70
  -6  10  -4    7.40    8.40
   6  10   4    8.20    3.80
  -6  10  -4    2.40    4.80
  -6 -10  -4   -4.20    5.10
   6 -10   4    1.20    8.70
   6 -10   4   -5.30    3.30
  -6 -10  -4   -9.10    5.70
  -6 -10  -4   -1.30    5.90
   6 -10   4   -4.20    5.40
  -6 -10  -4   -4.50    4.50
   6 -10   4    0.30    8.10
   6  11  -3    2.50    3.30
  -6  11   3    5.40    8.50
   6  11  -3    4.20    5.10
  -6  11   3    3.50    7.10
   6 -11  -3   -7.50    5.70
  -6 -11   3    4.50    5.70
   6 -11  -3    6.20    9.30
   6 -11  -3    5.50    8.50
   6 -11  -3    8.60    6.60
  -6  11   2   37.40    6.40
   6  11  -2   29.60    5.10
  -6  11   2   32.00    9.10
  -6  11   2   35.80    7.30
   6  11  -2   33.00    5.80
  -6  11   2   42.30   10.10
  -6 -11   2   36.20    6.90
   6 -11  -2   39.70    8.80
   6 -11  -2   26.00    6.10
   6 -11  -2   36.70    7.60
   6 -11  -2   46.20   10.00
  -6  11   1   -6.00    7.40
  -6  11   1    1.90    5.40
  -6  11   1  -11.90    6.60
   6  11  -1    4.50    4.30
   6  11  -1    7.10    4.80
  -6  11   1    2.70    4.80
   6 -11  -1  -10.40    6.30
   6 -11  -1   -3.50    7.50
   6 -11  -1   -4.20    5.50
   6 -11  -1    1.20    4.50
  -6  11   0   95.39   11.90
  -6  11   0   88.39   10.10
   6  11   0   86.29    9.60
  -6  11   0   59.89    8.60
  -6  11   0   85.49   12.90
   6  11   0   69.89    8.50
   6 -11   0   74.19   11.50
   6 -11   0   91.19    8.50
   6 -11   0   91.09   11.40
  -6 -11   0   93.39   11.10
   6 -11   0   90.29    9.60
  -6  11  -1   -3.30    7.50
   6  11   1    8.70    4.90
  -6  11  -1    2.40    4.40
  -6  11  -1    7.70    6.80
   6 -11   1   -0.30    4.90
  -6 -11  -1    3.90    6.00
   6 -11   1   -5.40    6.30
   6 -11   1   -0.20    7.20
  -6  11  -2  119.69    9.80
   6  11   2  110.59    9.80
  -6  11  -2  128.89   13.30
  -6  11  -2  136.99   14.50
   6 -11   2  141.99   13.70
   6 -11   2  132.79   13.80
  -6 -11  -2  120.19   11.50
   6 -11   2  111.09   10.10
   6  11   3   -0.80    3.30
   6  11   3    2.70    3.50
  -6  11  -3    0.20    4.90
  -6  11  -3    6.30    8.20
   6  11   3    4.70    4.70
  -6  11  -3   18.80    9.30
   6 -11   3    2.80    5.40
   6 -11   3    4.20    8.40
  -6 -11  -3   -0.90    6.50
   6 -11   3    1.60    7.30
   6  12  -2   -0.10    5.60
  -6  12   2   -9.20    8.90
  -6  12   2    3.10    5.90
  -6  12   2   -0.60    8.70
   6  12  -2    5.20    4.40
  -6  12   2   12.70    7.10
   6 -12  -2    8.60    9.20
   6 -12  -2   -2.40    5.30
   6 -12  -2  -16.60    8.50
  -6 -12   2    4.60    5.80
   6 -12  -2   -7.70    6.60
   6  12  -1   -0.90    5.10
   6  12  -1   -1.40    4.50
  -6  12   1    0.70    5.90
  -6  12   1   -8.30    5.20
  -6  12   1   -2.70    8.70
  -6  12   1   -8.80    8.00
   6 -12  -1   -7.50    5.70
   6 -12  -1   -2.80    5.10
   6 -12  -1  -13.60    7.50
   6 -12  -1   -6.80    8.10
  -6  12   0    7.80    7.50
   6  12   0    7.40    5.00
  -6  12   0   -4.70    8.30
   6  12   0    5.50    5.20
  -6  12   0    3.50    5.60
  -6  12   0   -3.40    4.90
   6 -12   0    5.20    7.40
   6 -12   0    0.70    5.00
   6 -12   0   -8.30    7.80
  -6 -12   0    1.40    6.30
   6 -12   0    0.00    5.70
   6  12   1  117.99   10.80
  -6  12  -1  131.99   14.90
  -6  12  -1  111.59   10.10
  -6  12  -1  118.79   13.50
  -6 -12  -1   90.79   11.40
   6 -12   1  135.79   13.60
   6 -12   1  101.89   10.20
   6 -12   1   83.69   12.70
   6  12   2   -7.20    5.10
  -6  12  -2   14.00    8.10
  -6  12  -2   -6.40    8.70
  -6  12  -2   -4.90    5.10
  -6 -12  -2   12.90    6.60
   6 -12   2    5.40    8.70
  -6 -12  -2    0.40    3.00
   6 -12   2    4.10    5.60
   6 -12   2    4.50    8.80
  -6 -12  -2   -2.00    2.50
   6  13   0   35.10    7.30
  -6  13   0   51.79    7.30
  -6  13   0   74.59   10.60
   6 -13   0   45.00    6.90
   6 -13   0   48.10    9.50
   7   0  -6   33.50    8.20
   7   0  -6   53.69    7.60
   7   0  -6   43.90    8.20
  -7   0   6   55.69    7.40
  -7   0   6   56.39    9.40
  -7   0   6   43.70    8.00
   7   0  -6   58.79    6.90
  -7   0   5    0.00    6.20
  -7   0   5    1.40    5.00
   7   0  -5    3.30    4.60
  -7   0   5    7.10    5.80
   7   0  -5   -4.00    5.40
   7   0  -5    0.20    4.70
  -7   0   5    8.70    5.20
   7   0  -5   -7.20    5.50
  -7   0   4  210.98   11.50
   7   0  -4  191.48   13.30
   7   0  -4  186.18   10.80
   7   0  -4  211.98   11.20
   7   0  -4  192.58   11.70
  -7   0   4  209.78   11.40
   7   0  -3    6.90    3.30
   7   0  -3   -0.80    3.50
  -7   0   3    3.30    3.90
  -7   0   3    2.40    3.90
  -7   0   3   -5.60    3.30
   7   0  -3   -4.90    3.00
   7   0  -3   -3.10    4.10
   7   0  -2   41.00    4.10
   7   0  -2   38.20    5.00
   7   0  -2   41.50    6.00
   7   0  -2   38.30    4.80
  -7   0   2   39.80    6.30
  -7   0   2   39.20    4.80
  -7   0   1   -3.10    3.30
   7   0  -1   -2.20    2.40
   7   0  -1   -2.60    1.90
   7   0  -1   -1.20    2.90
  -7   0   1    1.00    3.40
   7   0  -1    0.30    3.90
  -7   0   0  116.89    7.70
  -7   0   0  112.79    8.70
   7   0   0  112.19    8.90
   7   0   0  106.49    7.40
  -7   0   0   90.99    7.60
   7   0   0  106.29    6.70
  -7   0  -1    8.80    4.30
   7   0   1    6.10    3.40
   7   0   1   12.00    4.50
  -7   0  -1    8.80    3.50
   7   0   2  176.58   10.20
  -7   0  -2  155.38   10.20
   7   0   2  178.38    9.80
   7   0   2  175.48   11.40
  -7   0  -2  195.08   10.80
  -7   0  -2  155.18   10.90
   7   0   3    3.30    4.20
   7   0   3    4.00    4.00
  -7   0  -3    0.10    4.50
   7   0   3    3.30    4.90
  -7   0  -3   -0.10    4.00
  -7   0  -4   -0.30    5.10
  -7   0  -4    4.50    6.10
   7   0   4   -0.20    5.00
  -7   0  -4    4.40    5.80
   7   0   4   10.90    5.80
   7   0   4   -6.60    4.70
  -7   0  -5   -0.40    6.10
  -7   0  -5    7.00    8.10
   7   0   5    4.20    6.70
  -7   0  -5   -3.20    5.50
   7   0   5    0.40    6.00
   7   0   5    4.10    6.20
   7   1  -6    1.40    4.50
  -7   1   6    5.50    6.70
   7   1  -6    5.20    6.00
  -7   1   6   12.30    5.50
  -7   1   6   19.20    7.60
   7   1  -6   -3.20    6.40
  -7   1   6    8.80    7.90
   7  -1  -6    7.30    7.30
  -7  -1   6    4.60    7.20
   7  -1  -6    3.60    5.80
   7  -1  -6   -2.10    6.50
  -7  -1   6   -0.30    5.90
  -7  -1   6    4.50    5.20
   7  -1  -6   -8.70    6.10
  -7  -1   6    3.40    6.50
  -7   1   5  150.58   10.60
  -7   1   5  127.49   11.30
  -7   1   5  113.59    9.90
   7   1  -5  102.39   11.50
   7   1  -5  117.99    8.50
  -7   1   5   92.19   12.10
   7   1  -5  115.79    9.30
   7  -1  -5  109.69   10.30
  -7  -1   5  121.09   10.30
   7  -1  -5  120.09   11.80
   7  -1  -5  140.99   10.10
  -7  -1   5  119.49   11.90
  -7  -1   5  114.89   10.00
   7  -1  -5  136.99    9.90
   7   1  -4    3.50    3.70
  -7   1   4   -5.90    3.80
   7   1  -4    6.00    4.90
  -7   1   4   -1.10    4.40
   7   1  -4   -0.30    3.40
  -7   1   4    8.30    6.50
   7  -1  -4    4.90    4.60
  -7  -1   4   -6.70    4.60
   7  -1  -4   -6.70    4.90
  -7  -1   4    4.50    3.90
   7  -1  -4    8.30    4.20
   7  -1  -4   -4.70    4.00
  -7  -1   4   -0.60    4.20
   7   1  -3  107.59    6.90
   7   1  -3   95.99    9.50
  -7   1   3  105.49    7.30
  -7   1   3  112.59    8.20
  -7   1   3   87.29    8.50
   7   1  -3   99.79    6.80
  -7  -1   3   72.89    9.40
  -7  -1   3   90.69    7.60
   7  -1  -3   93.79    7.70
   7  -1  -3  106.19    9.50
  -7  -1   3  101.99    7.30
  -7  -1   3  106.19    8.00
   7  -1  -3  121.19    7.60
   7  -1  -3   98.29    7.50
   7   1  -2   -1.60    2.60
   7   1  -2   -1.70    3.80
  -7   1   2   -0.40    4.80
  -7   1   2   -1.60    3.90
   7   1  -2   -2.10    2.40
  -7  -1   2   -0.90    3.10
   7  -1  -2   -4.30    2.80
  -7  -1   2   -0.40    3.10
   7  -1  -2   -4.80    3.30
   7  -1  -2   -2.60    2.60
   7  -1  -2   -5.80    3.70
   7   1  -1   97.09    5.90
   7   1  -1   89.39    5.90
   7   1  -1   80.99    5.10
   7   1  -1   90.69    8.10
  -7   1   1   94.89    7.50
  -7   1   1   96.09    7.50
   7  -1  -1   89.79    5.30
   7  -1  -1   84.39    7.10
   7  -1  -1   83.39    8.30
   7  -1  -1   98.99    6.60
  -7  -1   1   86.99    6.70
  -7  -1   1   95.39    6.60
  -7   1   0    1.80    3.80
   7   1   0    2.00    2.90
   7   1   0   -2.20    3.80
  -7   1   0    0.40    3.70
   7   1   0   -0.50    2.30
  -7   1   0   -2.00    3.80
  -7  -1   0    1.40    3.20
  -7  -1   0   -4.20    3.30
   7  -1   0   -1.70    3.60
   7  -1   0    5.20    3.10
   7  -1   0   -3.70    3.70
  -7  -1   0    1.30    4.20
   7   1   1  367.16   18.20
  -7   1  -1  359.46   17.30
  -7   1  -1  347.47   17.50
   7   1   1  378.76   16.70
   7   1   1  391.36   16.30
  -7   1  -1  394.36   17.60
  -7  -1  -1  352.36   17.90
  -7  -1  -1  358.16   16.80
   7  -1   1  372.46   18.20
  -7  -1  -1  393.46   16.80
   7  -1   1  386.56   16.90
   7  -1   1  386.76   17.30
  -7   1  -2   13.40    4.20
  -7   1  -2   10.20    4.80
   7   1   2    7.90    4.20
   7   1   2    4.20    3.50
   7   1   2    9.80    3.20
  -7   1  -2    1.70    3.90
  -7  -1  -2    2.20    3.50
  -7  -1  -2   10.00    4.60
  -7  -1  -2    0.90    4.00
   7  -1   2   15.50    3.90
   7  -1   2    7.90    4.60
   7  -1   2    6.10    4.00
   7   1   3   85.69    7.50
   7   1   3   80.89    9.10
   7   1   3   75.49    7.70
  -7   1  -3   73.49    8.20
  -7   1  -3   69.39    8.40
   7  -1   3   68.09    9.20
  -7  -1  -3   68.39    8.90
   7  -1   3   81.19    8.10
   7  -1   3   76.29    8.30
  -7  -1  -3   71.49    7.80
  -7   1  -4   -0.50    5.70
   7   1   4   -2.20    4.80
   7   1   4    8.80    6.20
  -7   1  -4   -7.70    6.20
  -7   1  -4    0.50    5.20
   7   1   4   -2.40    5.00
   7  -1   4   -4.00    4.80
   7  -1   4    2.30    5.80
  -7  -1  -4    5.30    5.00
   7  -1   4    5.40    5.00
  -7  -1  -4   -4.80    5.60
  -7  -1  -4    7.80    6.10
  -7   1  -5    8.20    6.40
   7   1   5   -2.70    5.90
   7   1   5    7.30    6.20
  -7   1  -5    8.20    8.00
  -7   1  -5   -1.80    5.80
   7  -1   5    6.10    6.80
  -7  -1  -5    2.50    5.80
  -7  -1  -5    9.50    7.80
   7  -1   5    5.70    6.40
   7  -1   5    0.30    6.60
  -7  -1  -5   10.30    6.40
   7  -2  -6    3.40    7.10
  -7   2   5   11.80    6.80
   7   2  -5    7.10    5.60
   7   2  -5    6.20    4.10
  -7   2   5    9.80    6.90
   7   2  -5    4.20    4.40
  -7   2   5    8.70    4.80
  -7   2   5    7.20    6.20
   7  -2  -5   18.10    6.00
   7  -2  -5   14.10    5.90
   7  -2  -5    5.40    6.40
   7  -2  -5   -1.50    5.60
  -7  -2   5    1.70    4.50
  -7  -2   5    7.90    5.00
   7   2  -4  196.68   10.20
   7   2  -4  167.88   10.10
  -7   2   4  176.18   13.50
   7   2  -4  182.88   12.80
  -7   2   4  187.78   12.20
  -7   2   4  217.58   12.20
  -7   2   4  195.58   10.50
   7  -2  -4  204.98   11.80
  -7  -2   4  200.48   12.10
  -7  -2   4  182.18   10.60
   7  -2  -4  197.78   11.50
   7  -2  -4  198.98   11.70
   7  -2  -4  188.38   13.10
   7   2  -3    8.70    3.20
   7   2  -3   14.60    4.70
   7   2  -3   13.10    3.10
  -7   2   3    8.50    3.60
   7  -2  -3    6.80    4.30
  -7  -2   3   12.80    3.70
   7  -2  -3   10.10    4.20
  -7  -2   3    8.60    4.30
   7  -2  -3    6.90    3.70
   7  -2  -3    6.50    4.80
   7   2  -2   40.60    4.00
  -7   2   2   38.20    5.60
  -7   2   2   38.10    5.30
   7   2  -2   41.00    4.10
   7   2  -2   39.90    5.70
  -7  -2   2   42.90    5.20
   7  -2  -2   43.20    6.30
  -7  -2   2   43.30    5.00
   7  -2  -2   37.50    5.00
   7  -2  -2   53.49    6.70
   7  -2  -2   41.80    5.20
   7   2  -1   10.80    4.20
  -7   2   1   11.60    4.70
   7   2  -1   14.50    2.60
   7   2  -1   13.10    2.40
  -7   2   1   13.80    4.60
  -7  -2   1   12.60    3.00
   7  -2  -1   15.00    4.20
   7  -2  -1    5.10    2.40
   7  -2  -1    7.00    4.40
   7  -2  -1    9.20    3.40
  -7   2   0  115.59    8.70
   7   2   0  102.39    8.70
   7   2   0  104.19    6.20
  -7   2   0  110.89    8.20
   7   2   0  103.09    6.20
  -7   2   0   97.39    8.30
   7  -2   0  110.69    9.20
  -7  -2   0  100.49    9.00
   7  -2   0  105.49    7.60
   7  -2   0  109.89    8.00
  -7  -2   0  116.69    6.70
   7   2   1    6.90    2.60
  -7   2  -1   10.90    4.60
  -7   2  -1   10.40    4.20
   7   2   1    8.90    3.10
  -7   2  -1    8.70    3.80
   7   2   1    8.40    4.00
   7  -2   1   10.10    4.50
   7  -2   1   10.00    3.90
  -7  -2  -1    4.20    3.30
  -7  -2  -1    7.80    3.30
  -7  -2  -1    6.80    4.40
  -7   2  -2  178.58   11.20
   7   2   2  206.78   12.40
   7   2   2  203.88   10.00
   7   2   2  201.78   10.60
  -7   2  -2  189.88   11.60
  -7  -2  -2  218.88   10.80
  -7  -2  -2  176.98   12.00
  -7  -2  -2  189.58   10.50
   7  -2   2  203.98   11.50
   7  -2   2  183.08   11.40
   7  -2   2  194.98   12.50
   7   2   3   10.00    5.10
  -7   2  -3   14.10    6.10
   7   2   3    2.60    3.60
   7   2   3    5.70    4.00
  -7   2  -3   -0.20    4.60
  -7   2  -3    2.70    4.30
   7  -2   3    5.60    4.70
   7  -2   3    7.90    5.20
   7  -2   3    3.70    4.50
  -7  -2  -3    2.00    4.00
  -7  -2  -3   -4.00    5.20
  -7   2  -4    5.10    5.50
   7   2   4    1.10    5.80
  -7   2  -4   -5.70    6.30
   7   2   4   10.50    4.90
  -7   2  -4    7.00    5.20
   7   2   4    4.20    4.80
  -7  -2  -4    8.40    5.10
   7  -2   4   14.10    5.50
   7  -2   4    8.50    6.10
  -7  -2  -4   10.20    6.10
  -7  -2  -4    1.70    5.60
   7  -2   4    5.60    5.40
  -7   2  -5    7.10    6.70
  -7   2  -5   -0.20    5.80
  -7   2  -5    7.40    8.30
   7   2   5   -0.10    5.70
   7   2   5   -4.40    6.50
   7  -2   5    6.10    6.60
   7  -2   5    1.70    6.50
  -7  -2  -5   -4.80    7.50
  -7  -2  -5   13.60    6.20
  -7  -2  -5    7.00    5.90
   7  -2   5    6.80    6.70
   7   3  -5   95.69   10.60
  -7   3   5   84.79   11.10
   7   3  -5   97.09    8.10
   7   3  -5  114.79    7.90
  -7   3   5  131.79   12.50
  -7   3   5  114.79   12.90
  -7   3   5  105.99    8.50
   7  -3  -5  130.69   12.40
  -7  -3   5  105.69    9.90
   7  -3  -5  104.09   10.10
   7  -3  -5  123.59   10.80
   7  -3  -5  132.89   11.30
  -7   3   4    4.10    5.70
   7   3  -4   -2.10    5.00
   7   3  -4    3.00    3.00
  -7   3   4    7.50    5.80
  -7   3   4    3.60    5.80
  -7   3   4    5.10    3.70
   7   3  -4    0.10    2.90
   7  -3  -4    4.30    5.10
  -7  -3   4    8.30    4.90
   7  -3  -4    4.80    5.30
  -7  -3   4    3.10    3.70
   7  -3  -4   -5.30    4.40
  -7  -3   4    0.80    5.50
   7  -3  -4   -7.30    5.20
   7   3  -3  143.19    7.00
   7   3  -3  133.99   10.70
  -7   3   3  149.69    8.30
   7   3  -3  147.79    6.90
  -7   3   3  140.59   11.80
   7  -3  -3  148.09   10.10
  -7  -3   3  150.18    7.90
   7  -3  -3  160.18   11.10
  -7  -3   3  138.79   10.70
   7  -3  -3  137.69    9.60
   7  -3  -3  139.29    9.10
   7   3  -2   60.49    3.40
  -7   3   2   53.49    7.90
   7   3  -2   51.19    7.90
   7   3  -2   50.99    3.10
   7  -3  -2   65.19    7.30
   7  -3  -2   51.29    7.10
  -7  -3   2   60.19    4.20
  -7  -3   2   62.79    4.50
   7  -3  -2   61.59    8.20
  -7  -3   2   55.49    7.10
   7  -3  -2   58.19    5.70
  -7   3   1    9.60    4.60
  -7   3   1   11.40    5.00
   7   3  -1    9.30    2.50
   7   3  -1    7.10    3.90
   7   3  -1    7.20    1.50
   7   3  -1   11.20    1.90
   7  -3  -1    9.10    4.40
  -7  -3   1    8.90    2.30
   7  -3  -1    5.30    2.40
   7  -3  -1    5.50    3.80
   7  -3  -1    1.80    4.20
  -7   3   0   43.30    6.30
   7   3   0   45.00    3.60
   7   3   0   46.40    5.90
   7   3   0   46.10    3.70
  -7   3   0   54.59    7.40
   7  -3   0   45.30    6.50
  -7  -3   0   55.99    8.10
   7  -3   0   52.99    6.70
  -7  -3   0   44.00    4.30
   7  -3   0   48.80    6.50
  -7  -3   0   33.90    4.10
   7   3   1  176.18    9.30
  -7   3  -1  193.38   10.90
   7   3   1  185.68   11.50
   7   3   1  195.48    9.30
  -7   3  -1  186.58   11.60
  -7  -3  -1  178.18   12.00
   7  -3   1  203.88   11.30
  -7  -3  -1  204.28    9.70
   7  -3   1  198.38   11.10
   7  -3   1  187.58   12.10
   7   3   2    9.10    4.60
   7   3   2    6.20    2.90
  -7   3  -2   -0.90    3.90
   7   3   2    7.20    3.50
  -7   3  -2    3.00    4.60
   7  -3   2    2.00    4.90
  -7  -3  -2    0.50    3.30
  -7  -3  -2   11.10    4.10
   7  -3   2    7.60    4.60
  -7  -3  -2    4.20    4.70
   7  -3   2    7.40    4.30
  -7   3  -3   57.89    8.00
   7   3   3   86.99    9.40
   7   3   3   77.49    7.40
  -7   3  -3   81.79   10.20
  -7   3  -3   70.79    9.30
   7   3   3   83.69    6.90
  -7  -3  -3   98.39    7.80
   7  -3   3   80.99    9.60
   7  -3   3   79.09    9.10
   7  -3   3   73.89    8.90
   7   3   4   15.10    5.00
  -7   3  -4    6.00    6.80
  -7   3  -4   18.40    6.10
  -7   3  -4   15.50    5.60
   7   3   4    9.70    4.90
   7  -3   4   24.30    6.50
  -7  -3  -4   21.90    5.40
   7  -3   4   13.40    6.70
   7  -3   4    4.40    5.60
  -7  -3  -4   12.00    6.50
  -7  -3  -4   12.50    6.30
  -7   3  -5   27.60    7.20
  -7   3  -5   19.80    7.00
   7   3   5   31.70    6.30
  -7   3  -5   19.20    8.20
   7   3   5   25.60    6.70
   7  -3   5   30.80    7.70
  -7  -3  -5   25.10    8.20
   7  -3   5   32.10    8.10
  -7  -3  -5   17.60    6.40
  -7  -3  -5   14.70    6.60
   7  -3   5   22.40    7.40
  -7   4   5    3.70    4.30
   7   4  -5   -4.70    3.00
   7   4  -5    1.50    3.40
  -7   4   5   -5.00    6.50
  -7   4   5    7.60    7.70
  -7   4   5    9.20    7.60
   7  -4  -5   12.20    5.90
   7  -4  -5   -2.30    6.20
   7  -4  -5    2.60    6.60
  -7  -4   5    1.40    4.80
  -7  -4   5    1.10    4.70
   7  -4  -5    0.40    6.70
   7   4  -4   97.89    5.30
   7   4  -4  102.69    5.30
  -7   4   4  106.29   11.80
  -7   4   4   99.19   11.20
   7   4  -4   88.29    9.90
  -7   4   4  108.49   10.80
  -7   4   4  102.09    7.20
   7  -4  -4  105.49   11.20
  -7  -4   4   92.39    9.50
   7  -4  -4  117.99   10.40
   7  -4  -4   95.59    9.10
  -7  -4   4   90.19    6.70
   7  -4  -4  107.19    9.90
   7   4  -3   13.10    5.00
  -7   4   3   11.70    6.00
  -7   4   3   11.60    6.10
   7  -4  -3   16.30    5.60
   7  -4  -3   19.20    4.40
   7  -4  -3   25.50    6.00
  -7  -4   3   18.60    5.50
  -7  -4   3   19.40    2.50
   7  -4  -3   14.90    5.70
  -7   4   2   -2.60    5.20
   7   4  -2   -2.60    3.90
   7  -4  -2    1.10    4.30
   7  -4  -2   -0.80    4.40
   7  -4  -2    0.80    4.50
   7  -4  -2    4.30    3.30
  -7  -4   2    3.00    4.50
   7   4  -1  104.89    8.60
  -7   4   1  110.99    9.50
   7   4  -1  100.59    6.30
   7  -4  -1   88.29    8.30
   7  -4  -1   97.89    8.80
   7  -4  -1   87.69    9.10
   7  -4  -1   92.39    6.30
   7   4   0  261.67   13.60
  -7   4   0  265.07   13.90
   7   4   0  235.68   10.70
  -7  -4   0  256.57   10.60
  -7  -4   0  256.27   14.60
   7  -4   0  262.07   13.50
   7  -4   0  264.97   13.50
   7  -4   0  254.27   14.30
  -7  -4   0  223.58   10.40
   7  -4   0  241.98   10.70
   7   4   1   25.70    5.10
  -7   4  -1   22.70    5.60
   7   4   1   29.20    3.80
  -7   4  -1   29.60    5.00
   7   4   1   26.60    3.60
   7  -4   1   34.00    5.60
   7  -4   1   30.20    3.90
  -7  -4  -1   36.10    4.60
   7  -4   1   26.80    5.70
  -7  -4  -1   25.60    6.30
   7  -4   1   22.00    5.00
  -7  -4  -1   21.90    3.30
   7   4   2  205.38   12.10
  -7   4  -2  207.78   13.70
   7   4   2  172.48    9.60
  -7   4  -2  183.68   10.80
  -7   4  -2  180.08   12.00
   7   4   2  193.78    9.60
  -7  -4  -2  202.68   10.20
  -7  -4  -2  142.29   12.30
   7  -4   2  188.78   11.60
   7  -4   2  180.18   12.60
   7  -4   2  203.98   12.00
  -7  -4  -2  180.28    9.90
  -7   4  -3   66.49    9.90
   7   4   3   47.30    5.90
   7   4   3   63.39    8.90
  -7   4  -3   65.29    9.30
  -7   4  -3   41.20    6.00
   7   4   3   64.09    6.70
   7  -4   3   55.59    8.60
   7  -4   3   59.89    9.30
  -7  -4  -3   41.10    7.10
  -7  -4  -3   66.79    7.00
   7  -4   3   61.09    7.60
   7   4   4   -2.60    4.20
  -7   4  -4   -1.20    4.80
  -7   4  -4   -7.40    6.90
   7   4   4   -1.80    4.50
  -7   4  -4    0.00    6.20
   7  -4   4   -9.80    5.80
   7  -4   4   -0.30    5.90
  -7  -4  -4   -6.90    5.30
  -7  -4  -4    6.90    4.70
  -7  -4  -4    0.10    5.60
   7  -4   4   10.70    6.00
  -7   4  -5   25.10    7.30
  -7   4  -5   37.00    9.10
  -7   4  -5   30.50    7.50
   7   4   5   25.50    6.30
   7   4   5   17.10    7.20
   7  -4   5   40.20    8.40
  -7  -4  -5   28.30    8.10
  -7  -4  -5   26.30    6.60
   7  -4   5   22.30    7.10
   7  -4   5   35.00    8.10
  -7  -4  -5   20.90    6.90
   7   5  -5   58.49    8.90
   7   5  -5   52.69    4.70
   7   5  -5   57.69    4.50
  -7   5   5   49.60    8.60
  -7   5   5   81.19   12.50
  -7   5   5   67.09    9.90
  -7   5   5   66.39    6.80
  -7  -5   5   38.80    5.20
   7  -5  -5   37.60    7.30
  -7  -5   5   68.79    9.00
   7  -5  -5   64.89    8.80
   7  -5  -5   66.49    9.50
   7  -5  -5   40.30    8.10
   7   5  -4   -6.10    4.90
  -7   5   4   -2.60    6.90
  -7   5   4    3.10    6.60
  -7   5   4   -6.90    7.10
  -7   5   4   -1.00    3.40
  -7  -5   4    1.40    4.70
   7  -5  -4   -5.10    4.60
   7  -5  -4   -0.80    5.40
   7  -5  -4    6.20    6.20
  -7  -5   4    1.60    2.30
   7  -5  -4    3.30    5.70
  -7  -5   4   -1.40    2.10
  -7   5   3   66.99   10.00
   7   5  -3   72.59    9.40
  -7   5   3   69.89   10.60
   7  -5  -3   70.79    9.20
   7  -5  -3   84.09    9.90
   7  -5  -3   71.79    7.50
   7  -5  -3   75.49    9.10
  -7  -5   3   81.59    9.20
  -7   5   2   72.19    8.60
   7   5  -2   77.29    8.50
  -7   5   2   66.79    9.40
   7   5  -2   84.79    6.60
   7  -5  -2   69.59    8.80
   7  -5  -2   72.99    6.80
  -7  -5   2   78.09    8.50
   7  -5  -2   79.29    9.30
   7  -5  -2   65.99    8.80
  -7   5   1   28.10    6.00
   7   5  -1   23.60    5.00
   7   5  -1   23.50    3.50
   7  -5  -1   25.10    5.50
  -7  -5   1   27.30    7.20
   7  -5  -1   30.00    6.10
   7  -5  -1   30.70    6.40
   7  -5  -1   22.20    3.50
   7   5   0   55.49    4.90
   7   5   0   54.79    6.40
  -7   5   0   57.49    8.60
   7  -5   0   63.39    7.30
  -7  -5   0   65.09    8.60
   7  -5   0   60.79    4.70
   7  -5   0   53.69    6.80
   7  -5   0   55.89    7.80
  -7   5  -1   96.79    9.40
  -7   5  -1   82.59    7.40
   7   5   1   95.29    8.70
  -7  -5  -1   96.29    5.40
   7  -5   1   86.39    8.70
   7  -5   1   81.89    9.40
  -7  -5  -1   72.19    9.60
   7  -5   1   89.99    9.20
   7   5   2   52.29    5.20
  -7   5  -2   54.79    6.50
   7   5   2   67.59    8.30
   7   5   2   39.50    5.10
  -7   5  -2   55.59    8.70
   7  -5   2   50.79    7.20
  -7  -5  -2   48.40    5.80
   7  -5   2   46.60    6.40
  -7  -5  -2   48.10    7.80
   7  -5   2   67.19    8.90
  -7   5  -3   36.40    7.90
   7   5   3   34.10    4.70
   7   5   3   34.80    5.50
  -7   5  -3   21.30    4.70
  -7   5  -3   27.90    6.70
  -7  -5  -3   22.70    5.10
   7  -5   3   16.80    6.20
   7  -5   3   37.70    7.10
   7  -5   3   21.30    6.30
  -7  -5  -3   25.20    7.00
   7   5   4   61.69    7.50
  -7   5  -4   75.19    9.60
   7   5   4   60.79    7.90
  -7   5  -4   47.00    9.20
  -7   5  -4   61.19    8.30
  -7  -5  -4   71.99    9.60
   7  -5   4   78.89   11.20
   7  -5   4   76.79   10.50
  -7  -5  -4   43.60    7.40
   7  -5   4   70.59    9.20
  -7   5  -5   -1.90    6.30
   7   5   5    5.20    5.70
  -7   5  -5   -8.10    7.70
   7   5   5    6.50    6.20
  -7  -5  -5    6.10    7.70
  -7  -5  -5    5.90    6.30
   7  -5   5    1.40    6.50
  -7  -5  -5   -5.20    5.80
   7  -5   5   -3.50    7.30
   7  -5   5    7.20    8.10
  -7   6   5   15.60    8.30
  -7   6   5    0.40    8.50
   7   6  -5   11.70    5.10
  -7   6   5   37.40   10.30
  -7   6   5   12.20    4.30
   7  -6  -5   15.20    6.50
   7  -6  -5   14.90    7.60
   7  -6  -5    4.70    7.00
   7  -6  -5    8.20    8.00
  -7  -6   5   22.60    6.30
  -7  -6   5    3.90    3.20
  -7   6   4   50.59    9.10
  -7   6   4   50.99    9.40
   7   6  -4   69.59    9.20
  -7   6   4   49.80    8.70
   7  -6  -4   61.39    8.60
   7  -6  -4   68.89   10.80
  -7  -6   4   49.00    7.10
   7  -6  -4   53.99    7.00
   7  -6  -4   71.59   10.70
  -7   6   3   39.90    8.10
   7   6  -3   56.39    7.80
   7   6  -3   52.69    6.90
  -7   6   3   48.10    8.00
   7  -6  -3   56.89    8.30
   7  -6  -3   61.79    9.70
   7  -6  -3   55.29    6.50
  -7  -6   3   48.30    7.20
   7  -6  -3   63.79    8.30
   7   6  -2   -2.60    4.30
   7   6  -2    5.50    3.50
  -7   6   2   -2.30    6.20
  -7   6   2   -6.50    6.60
   7  -6  -2   -3.00    3.50
   7  -6  -2   -3.90    5.20
   7  -6  -2    4.10    4.90
   7  -6  -2   -4.80    5.20
  -7  -6   2   -4.10    4.20
   7   6  -1  118.89    8.10
   7   6  -1  135.39    9.70
  -7   6   1  159.08   11.60
  -7   6   1  137.49   11.40
  -7   6   1  126.89   11.10
   7  -6  -1  130.69   10.50
   7  -6  -1  119.89   10.70
  -7  -6   1  139.59   11.90
   7  -6  -1  127.99    8.00
   7  -6  -1  138.49   10.80
  -7   6   0   70.79    9.30
   7   6   0   57.09    7.90
   7   6   0   61.99    5.70
   7  -6   0   70.49    5.40
   7  -6   0   59.99    8.60
   7  -6   0   64.29    9.00
   7  -6   0   73.49    8.60
  -7  -6   0   72.59    9.10
   7   6   1    5.50    2.20
  -7   6  -1    7.70    5.50
   7   6   1   10.80    4.50
   7  -6   1    6.20    5.30
   7  -6   1   12.80    5.50
  -7  -6  -1    8.40    5.60
   7  -6   1   13.40    5.30
   7   6   2   63.09    5.10
  -7   6  -2   85.89   10.20
   7   6   2   67.59    4.80
   7   6   2   57.59    8.80
  -7   6  -2   78.59    6.90
   7  -6   2   81.19    9.20
   7  -6   2   72.09    9.70
  -7  -6  -2   74.19    6.00
   7  -6   2   76.19    9.70
  -7  -6  -2   68.89    9.00
  -7   6  -3   31.80    5.40
   7   6   3   34.90    4.50
  -7   6  -3   40.70    8.80
   7   6   3   37.00    5.90
  -7   6  -3   34.60    7.30
   7  -6   3   33.20    7.00
  -7  -6  -3   41.70    7.90
   7  -6   3   37.20    8.00
   7  -6   3   37.30    7.10
  -7   6  -4   13.00    5.50
  -7   6  -4    5.70    8.20
   7   6   4   11.80    4.40
  -7   6  -4   12.90    7.30
   7   6   4   15.80    4.80
   7  -6   4    9.00    7.70
  -7  -6  -4   10.60    6.00
   7  -6   4   12.90    7.10
  -7  -6  -4    7.90    6.60
   7  -6   4    8.00    6.30
  -7  -6  -4   -1.00    4.40
  -7   7   4  -16.00    8.00
   7   7  -4   -3.20    4.80
  -7   7   4   -5.00    6.80
   7  -7  -4   -2.00    6.50
  -7  -7   4    0.60    5.40
   7  -7  -4    1.40    7.20
   7  -7  -4    0.30    5.60
   7  -7  -4  -12.70    7.40
   7   7  -3   14.20    5.80
   7   7  -3   27.80    5.20
  -7   7   3   18.60    6.80
  -7   7   3   19.20    7.70
   7  -7  -3   20.30    7.10
   7  -7  -3   16.00    7.10
  -7  -7   3    4.60    5.60
   7  -7  -3   11.80    7.10
   7  -7  -3    8.60    5.00
  -7   7   2  144.79   12.00
  -7   7   2  121.99   12.90
   7   7  -2  138.69   10.60
  -7   7   2  112.19   12.10
   7   7  -2  139.69    9.30
   7  -7  -2  119.09    9.10
   7  -7  -2  121.19   11.90
   7  -7  -2  131.89   11.80
   7  -7  -2  145.79   11.70
  -7  -7   2  131.09   10.60
   7   7  -1   10.90    4.70
   7   7  -1    4.90    3.40
  -7   7   1   11.50    6.20
  -7   7   1    6.00    5.50
   7  -7  -1    8.80    3.50
   7  -7  -1    7.60    5.70
   7  -7  -1    5.70    5.20
   7  -7  -1   -1.80    6.00
   7   7   0   70.39    8.00
  -7   7   0   88.99   10.10
   7   7   0   80.29    6.70
  -7   7   0   78.19   10.50
   7  -7   0   82.19    6.30
   7  -7   0   76.99    9.40
   7  -7   0   77.89    9.20
   7  -7   0   89.79    9.90
  -7  -7   0   74.69   10.60
   7   7   1   55.69    5.30
  -7   7  -1   62.99    9.70
   7   7   1   58.49    8.20
   7  -7   1   69.69    9.40
  -7  -7  -1   51.29    7.50
   7  -7   1   75.79    9.10
   7  -7   1   73.19    9.60
   7   7   2   -0.80    1.70
  -7   7  -2    1.60    4.10
  -7   7  -2  -10.60    6.30
   7   7   2  -11.50    4.80
  -7   7  -2    0.90    6.40
   7   7   2   -1.70    2.10
  -7  -7  -2    1.70    2.30
   7  -7   2   -3.50    5.30
   7  -7   2   -3.40    6.40
  -7  -7  -2   -2.30    5.20
   7  -7   2    4.30    6.20
  -7   7  -3    7.60    6.70
   7   7   3   10.60    3.80
  -7   7  -3   12.60    7.70
  -7   7  -3    6.30    4.10
   7   7   3    4.70    3.90
  -7   7  -3    0.70    2.70
   7  -7   3   11.80    6.00
  -7  -7  -3    2.20    5.60
   7  -7   3   10.20    6.40
  -7  -7  -3   -0.30    4.40
   7  -7   3   19.60    7.40
  -7   7  -4   36.10    8.20
   7   7   4   31.90    5.30
  -7   7  -4   32.90    5.70
   7   7   4   35.20    4.80
  -7   7  -4   33.30    9.10
  -7  -7  -4   28.50    6.70
  -7  -7  -4   37.00    7.70
   7  -7   4   42.00    7.90
   7  -7   4   19.30    9.40
   7  -7   4   33.20    8.40
  -7   8   4   26.10   10.70
   7   8  -4   19.30    5.20
  -7   8   4   20.90    8.60
   7   8  -4   24.70    6.30
  -7  -8   4   19.10    6.70
   7  -8  -4   23.90    8.40
   7  -8  -4   13.50    8.70
   7  -8  -4   27.10    6.60
   7  -8  -4   43.20    9.60
   7   8  -3   39.10    6.80
  -7   8   3   56.89    9.50
   7   8  -3   58.99    6.90
  -7   8   3   52.69    9.80
   7  -8  -3   32.60    9.00
  -7  -8   3   44.80    7.30
   7  -8  -3   54.49    8.60
   7  -8  -3   49.00    6.60
   7  -8  -3   37.40    8.60
   7   8  -2    3.50    4.30
  -7   8   2   -3.40    7.70
  -7   8   2    9.80    7.60
  -7   8   2    4.40    5.80
   7   8  -2    9.10    5.30
  -7  -8   2    5.10    4.90
   7  -8  -2   -1.20    6.80
   7  -8  -2    6.60    4.30
   7  -8  -2    8.60    6.30
   7  -8  -2    8.00    6.80
   7   8  -1  155.78   10.10
   7   8  -1  156.58   11.10
  -7   8   1  205.58   13.60
  -7   8   1  168.08   12.90
  -7   8   1  172.98   13.80
   7  -8  -1  168.08   13.30
   7  -8  -1  150.78    9.80
   7  -8  -1  170.38   12.70
   7  -8  -1  170.68   12.70
   7   8   0   -4.30    4.30
  -7   8   0    3.50    7.00
  -7   8   0   -0.20    6.70
  -7   8   0   -0.80    5.20
   7   8   0   -0.30    3.60
   7  -8   0   -2.30    6.00
  -7  -8   0   -7.20    5.70
   7  -8   0    5.00    3.50
   7  -8   0    5.80    5.40
   7  -8   0   -0.10    6.30
  -7   8  -1   -2.90    7.00
   7   8   1    8.70    4.80
  -7   8  -1    4.50    6.40
   7  -8   1    5.60    5.90
   7  -8   1    3.50    5.40
   7  -8   1   -6.80    5.80
  -7  -8  -1    2.30    6.30
  -7   8  -2   15.30    7.20
  -7   8  -2   14.00    3.70
   7   8   2   13.10    3.30
  -7   8  -2   12.50    8.20
   7   8   2    6.30    5.50
   7  -8   2   15.80    7.10
   7  -8   2    6.30    7.00
   7  -8   2   16.10    6.40
  -7  -8  -2   13.00    6.70
   7   8   3   35.30    4.20
  -7   8  -3   40.70    5.80
  -7   8  -3   45.60    5.70
  -7   8  -3   36.50    8.50
   7   8   3   43.60    5.50
  -7   8  -3   43.70    9.60
   7  -8   3   46.30    9.10
   7  -8   3   49.20    9.00
  -7  -8  -3   31.00    7.80
   7  -8   3   42.90    7.20
   7   8   4    4.60    4.70
   7  -8   4    6.40    6.40
   7   9  -3    0.10    5.00
  -7   9   3   -0.50    7.00
  -7   9   3    1.50    7.90
   7   9  -3   16.00    5.60
   7  -9  -3   -4.60    8.40
   7  -9  -3    4.80    5.90
   7  -9  -3  -11.00    8.40
   7  -9  -3    4.60    6.70
  -7  -9   3    8.30    5.80
   7   9  -2   95.39   10.10
  -7   9   2  117.09   13.40
  -7   9   2  114.09   12.40
  -7   9   2  106.79   14.00
   7   9  -2  111.39    9.70
   7  -9  -2  109.99    9.80
   7  -9  -2  130.09   13.40
   7  -9  -2  101.39   12.20
   7  -9  -2  104.59   12.70
  -7   9   1    2.40    7.80
  -7   9   1    9.80    6.80
   7   9  -1   -1.30    4.00
  -7   9   1   12.00    7.50
   7   9  -1    1.10    4.80
   7  -9  -1    4.80    6.30
   7  -9  -1    3.30    5.70
   7  -9  -1    4.80    4.40
   7  -9  -1    0.20    6.80
  -7   9   0   87.29   11.70
   7   9   0   71.99    8.70
  -7   9   0   81.29   10.50
  -7   9   0   75.89    9.80
   7   9   0   65.59    7.90
   7  -9   0   71.99    9.00
   7  -9   0   60.99    7.20
   7  -9   0   73.19    8.90
   7  -9   0   71.49   10.30
  -7  -9   0   67.59    9.50
  -7   9  -1   25.50    7.60
   7   9   1   23.00    6.00
  -7   9  -1   21.00    8.70
  -7   9  -1   13.90    4.30
   7   9   1   18.50    4.10
   7  -9   1   20.00    7.10
  -7  -9  -1   12.60    6.10
   7  -9   1   20.50    7.70
   7  -9   1   27.40    6.60
  -7   9  -2   24.80    4.50
  -7   9  -2   24.50    8.00
   7   9   2   22.70    4.10
  -7   9  -2   24.60    8.70
  -7  -9  -2   12.60    6.70
   7  -9   2   28.20    8.60
   7  -9   2   28.10    6.80
   7  -9   2   23.80    7.90
  -7   9  -3    9.00    8.70
   7   9   3   14.00    3.40
   7   9   3    4.40    3.00
  -7   9  -3   11.30    4.30
  -7   9  -3    4.40   11.30
   7  -9   3   11.50    6.30
   7  -9   3   22.60    8.50
   7  -9   3    6.00    8.00
  -7  -9  -3   13.90    6.60
  -7  10   2   -9.40    9.00
   7  10  -2    5.00    5.20
  -7  10   2  -10.10    8.20
   7  10  -2    1.10    4.80
  -7  10   2   -7.80    6.60
   7 -10  -2   -3.10    8.00
   7 -10  -2   -8.70    6.30
   7 -10  -2    3.60    5.30
   7 -10  -2   -1.80    8.10
  -7  10   1  128.69   13.50
   7  10  -1  152.98   11.20
   7  10  -1  139.29   11.10
  -7  10   1  173.88   15.00
  -7  10   1  195.18   14.70
   7 -10  -1  143.19   13.60
   7 -10  -1  140.39   10.50
   7 -10  -1  155.28   14.20
   7 -10  -1  147.39   13.10
   7  10   0    3.80    4.70
  -7  10   0   22.90    8.40
  -7  10   0   -1.30    6.30
  -7  10   0    0.70    8.10
  -7  10   0    9.10    5.00
   7  10   0   11.90    4.80
   7 -10   0   17.00    6.60
  -7 -10   0   -2.10    6.40
   7 -10   0    5.80    4.40
   7 -10   0   13.40    7.40
   7 -10   0   10.70    8.00
  -7  10  -1   15.30    8.60
  -7  10  -1   15.30    7.70
   7  10   1   14.90    4.50
   7  10   1   11.90    5.50
  -7  10  -1    8.00    4.70
   7 -10   1    7.50    7.60
   7 -10   1    5.00    7.00
  -7 -10  -1   11.80    6.90
   7 -10   1   19.30    6.70
  -7  10  -2    1.70    8.70
  -7  10  -2    5.90    7.80
  -7  10  -2   -2.10    4.40
   7  10   2   -4.20    3.90
   7 -10   2    3.80    7.60
   7 -10   2   -4.40    5.70
  -7 -10  -2   -6.10    6.00
   7 -10   2    0.50    7.90
   7  11  -1    1.70    5.50
   7  11  -1   -0.10    5.30
  -7  11   1   15.20    9.50
  -7  11   1   11.70    7.20
   7 -11  -1   -6.20    8.50
   7 -11  -1   -0.10    5.20
   7 -11  -1   13.00    8.30
   7 -11  -1   10.00    7.30
   7  11   0  103.29   10.20
  -7  11   0   87.29    9.70
   7  11   0   77.89    9.70
  -7  11   0   71.69   12.00
  -7  11   0   95.99   12.20
  -7  11   0  126.09   14.00
   7 -11   0   84.89   13.10
  -7 -11   0   96.09   11.90
   7 -11   0  105.19   13.40
   7 -11   0   89.29    9.20
   7 -11   0   76.39   11.30
  -8   0   4   16.80    6.00
  -8   0   4   20.30    6.60
   8   0  -4   13.70    4.60
   8   0  -4    7.70    5.20
   8   0  -4   15.60    6.90
  -8   0   4    6.40    5.20
  -8   0   4   15.80    7.60
   8   0  -4   12.00    5.10
   8   0  -3   -6.10    5.30
   8   0  -3    2.60    3.70
   8   0  -3   -5.10    4.00
   8   0  -3    1.90    3.90
  -8   0   3   -3.60    4.20
  -8   0   3   -1.70    6.40
  -8   0   3   -6.20    4.30
   8   0  -2  208.48   10.60
   8   0  -2  198.18   13.40
   8   0  -2  227.28   11.00
   8   0  -2  196.58   10.30
  -8   0   1   -4.10    4.30
   8   0  -1   -1.40    4.70
   8   0  -1    2.20    3.30
   8   0  -1    3.30    3.60
  -8   0   1    0.30    3.90
   8   0   0   71.39    8.90
  -8   0   0   73.39    8.00
  -8   0   0   77.69    7.60
   8   0   0   71.89    6.30
   8   0   0   88.59    7.20
  -8   0   0   76.39    9.40
   8   0   1    1.40    3.90
  -8   0  -1   -0.10    4.00
   8   0   1   -3.00    3.20
  -8   0  -1    0.70    5.40
   8   0   1   -7.60    4.80
  -8   0  -2    6.90    5.40
   8   0   2    8.20    4.30
   8   0   2    5.00    4.50
  -8   0  -2    8.80    4.60
   8   0   2   17.50    6.60
  -8   0  -2   10.20    5.80
  -8   0  -3    4.70    6.70
   8   0   3   -2.70    4.70
  -8   0  -3    2.20    5.20
   8   0   3    6.00    6.10
  -8   0  -3   -6.10    5.20
   8   0   3    6.20    5.30
   8   0   4   57.89    9.70
   8   0   4   78.79   10.80
   8   0   4   49.90    8.10
  -8   0  -4   77.79   10.50
  -8   0  -4   50.89    8.10
  -8   0  -4   76.09   10.70
   8   1  -4   17.10    4.70
  -8   1   4    6.70    5.10
  -8   1   4   15.70    7.60
   8   1  -4    8.60    4.00
  -8   1   4   20.30    6.50
   8   1  -4    4.20    6.80
  -8   1   4    0.80    5.20
   8   1  -4    1.40    5.20
  -8  -1   4   -2.20    4.70
   8  -1  -4   12.30    5.40
  -8  -1   4   11.30    5.80
   8  -1  -4   -0.10    4.90
  -8  -1   4    7.00    5.50
   8  -1  -4   14.90    5.40
   8  -1  -4    1.30    6.90
  -8  -1   4    7.10    7.70
   8   1  -3   78.19    7.20
  -8   1   3   87.99    9.60
   8   1  -3   77.19    7.60
   8   1  -3   87.59    7.10
   8   1  -3   97.69   10.90
  -8   1   3   87.49   12.20
   8  -1  -3   88.89    7.70
   8  -1  -3   82.19    7.60
   8  -1  -3   72.99    7.60
  -8  -1   3   74.19    9.10
   8  -1  -3   86.69   10.70
   8   1  -2   -3.90    3.20
   8   1  -2    0.50    3.20
   8   1  -2    0.00    3.50
   8   1  -2   -8.60    5.00
   8  -1  -2   -4.40    3.30
   8  -1  -2   -2.40    4.80
   8  -1  -2    0.80    4.00
  -8  -1   2   -0.20    4.10
   8  -1  -2   -0.70    3.20
   8   1  -1  174.98   11.50
   8   1  -1  148.29    8.50
   8   1  -1  141.69    8.50
  -8   1   1  152.58   10.00
   8   1  -1  131.59    7.00
   8  -1  -1  152.98   11.10
   8  -1  -1  146.09    9.00
   8  -1  -1  171.48    9.70
  -8  -1   1  158.38    9.40
   8  -1  -1  150.18    7.20
   8   1   0   -1.90    4.50
   8   1   0   -3.00    2.90
  -8   1   0    0.90    4.50
   8   1   0   -0.10    3.50
   8  -1   0   -4.50    3.40
   8  -1   0   -0.70    4.20
  -8  -1   0    2.30    5.50
  -8  -1   0   -2.80    3.80
  -8  -1   0    7.30    3.70
   8  -1   0    0.40    4.70
   8   1   1    6.70    5.10
   8   1   1   -0.20    3.60
  -8   1  -1   -6.40    4.90
   8   1   1    2.80    3.30
  -8   1  -1   -4.60    4.20
   8  -1   1   -4.00    3.90
  -8  -1  -1   -1.00    4.50
   8  -1   1   -5.00    4.90
   8  -1   1   -1.90    4.00
  -8  -1  -1    2.10    5.60
  -8  -1  -1    1.70    3.50
   8   1   2   -2.30    3.40
  -8   1  -2    3.00    4.90
   8   1   2   -0.30    4.00
  -8   1  -2   -1.20    5.40
   8   1   2   -3.70    5.20
  -8   1  -2   -1.10    5.70
   8  -1   2   -3.90    4.20
  -8  -1  -2    1.20    5.50
   8  -1   2   -7.90    4.20
   8  -1   2   -1.40    5.70
  -8  -1  -2    2.00    4.20
   8   1   3  127.59    9.40
  -8   1  -3   94.09   10.50
  -8   1  -3  101.59   10.60
   8   1   3  107.69   11.90
   8   1   3  108.49    9.80
  -8   1  -3  117.79   11.60
  -8  -1  -3  115.49   11.20
  -8  -1  -3   96.89   10.50
  -8  -1  -3  105.29    9.80
   8  -1   3  115.99   11.80
   8  -1   3  108.49   10.40
   8  -1   3  118.49   10.30
  -8   1  -4   -3.40    5.70
  -8   1  -4   -0.90    6.60
  -8   1  -4   10.70    8.20
   8   1   4    7.10    6.30
   8   1   4    7.40    7.70
   8   1   4    3.40    6.30
  -8  -1  -4   12.00    6.40
  -8  -1  -4    7.30    7.70
   8  -1   4    1.50    6.70
   8  -1   4    0.70    6.40
  -8  -1  -4   -0.60    5.70
   8  -1   4   -6.60    7.20
   8   2  -4    0.00    3.70
  -8   2   4   -2.40    5.90
  -8   2   4   11.20    6.90
   8   2  -4   -1.90    6.30
  -8   2   4    4.50    7.70
  -8   2   4    1.00    4.80
   8   2  -4   -4.60    3.60
   8  -2  -4    1.10    5.00
   8  -2  -4    1.10    6.80
   8  -2  -4    5.30    5.90
   8  -2  -4    3.30    5.50
  -8  -2   4    1.80    5.50
  -8   2   3   13.40    6.30
   8   2  -3   13.60    3.30
   8   2  -3   16.10    6.20
  -8   2   3   10.80    7.10
   8   2  -3   14.20    3.50
   8  -2  -3    6.40    4.40
  -8  -2   3    6.60    5.70
   8  -2  -3   19.80    5.40
   8  -2  -3    8.20    5.00
  -8  -2   3   15.70    4.40
   8  -2  -3   12.00    6.30
   8   2  -2  163.18    9.40
   8   2  -2  174.88   12.60
  -8   2   2  176.78   14.00
  -8   2   2  195.18   12.10
   8   2  -2  170.78    8.80
   8   2  -2  169.58    8.50
   8  -2  -2  193.78    9.80
   8  -2  -2  188.08   10.80
  -8  -2   2  173.88    9.60
   8  -2  -2  180.18   13.00
   8  -2  -2  207.88   11.50
   8   2  -1    0.90    2.60
   8   2  -1    2.60    2.30
  -8   2   1    0.30    4.80
   8   2  -1   -0.90    2.40
   8   2  -1   -1.00    4.50
   8   2  -1   -3.90    2.20
   8  -2  -1    3.00    5.10
  -8  -2   1    6.40    3.60
   8  -2  -1    1.20    2.30
   8  -2  -1   -1.10    4.30
   8  -2  -1   -1.80    4.00
   8   2   0   89.69    9.70
   8   2   0   94.19    6.50
  -8   2   0  109.39    9.40
   8   2   0   93.59    6.40
   8  -2   0   96.69   10.10
   8  -2   0  124.59    9.00
  -8  -2   0  100.89    7.40
  -8  -2   0   99.39   10.60
   8  -2   0  100.69    8.30
  -8   2  -1   10.00    4.90
  -8   2  -1    6.60    5.90
   8   2   1    7.60    3.40
   8   2   1   12.10    3.70
  -8   2  -1   14.70    5.30
   8   2   1   10.80    5.50
  -8  -2  -1    1.00    3.40
   8  -2   1    9.90    5.70
  -8  -2  -1   11.80    5.40
   8  -2   1   11.90    4.80
   8  -2   1   14.60    4.80
  -8  -2  -1   17.60    4.70
   8   2   2   11.80    3.70
  -8   2  -2    9.90    5.30
   8   2   2    8.40    4.10
   8   2   2   19.70    6.10
  -8   2  -2    8.90    6.00
  -8   2  -2    9.70    5.80
   8  -2   2   11.10    5.50
   8  -2   2    9.50    6.40
  -8  -2  -2    3.20    5.60
   8  -2   2   -2.30    4.70
  -8  -2  -2   -1.10    3.90
   8   2   3    4.90    4.90
  -8   2  -3    7.90    7.10
  -8   2  -3   -5.10    5.30
   8   2   3   -1.00    4.40
   8   2   3    1.10    6.50
  -8   2  -3    0.90    5.50
   8  -2   3   -3.50    6.40
   8  -2   3    5.70    5.80
  -8  -2  -3    6.00    6.20
  -8  -2  -3    0.20    4.70
  -8  -2  -3   10.50    5.90
   8  -2   3    7.80    5.80
   8   2   4   75.29    9.60
  -8   2  -4   52.89    8.70
   8   2   4   63.89    9.40
   8   2   4   76.99   10.20
  -8   2  -4   41.20    8.90
  -8   2  -4   68.99    8.90
  -8  -2  -4   46.50    7.90
   8  -2   4   60.49    8.40
   8  -2   4   68.89    9.50
   8  -2   4   72.89   11.50
  -8  -2  -4   83.69   11.80
  -8   3   4    6.40    7.10
   8   3  -4   -1.30    6.80
   8   3  -4    7.10    2.70
  -8   3   4    7.90    7.30
  -8   3   4    5.20    4.60
   8   3  -4    5.30    3.00
  -8   3   4    7.50    7.40
   8  -3  -4   12.90    6.00
   8  -3  -4    5.70    6.50
   8  -3  -4    0.30    6.80
   8  -3  -4    1.00    5.40
  -8  -3   4    7.40    5.60
  -8  -3   4   -0.30    3.30
  -8  -3   4    7.50    4.30
  -8   3   3  104.49   11.00
  -8   3   3   72.89    9.30
   8   3  -3   87.19   11.30
   8  -3  -3   94.79    9.50
  -8  -3   3   70.09    9.30
   8  -3  -3   88.39    9.70
   8  -3  -3   88.89    8.30
   8  -3  -3   90.29   11.20
  -8   3   2    4.50    6.80
  -8   3   2   -4.30    5.80
  -8   3   2    6.20    5.40
   8   3  -2    9.50    5.30
   8  -3  -2    3.10    5.10
  -8  -3   2    1.30    2.60
   8  -3  -2    7.20    4.90
   8  -3  -2   -7.10    4.90
  -8  -3   2    0.80    2.90
   8  -3  -2   -3.70    3.50
  -8   3   1  157.48   11.20
  -8   3   1  165.38   11.80
   8   3  -1  163.28    8.00
   8   3  -1  138.19   11.30
   8  -3  -1  162.48   10.50
   8  -3  -1  157.58   11.90
  -8  -3   1  155.68    8.00
   8  -3  -1  163.78   11.00
   8  -3  -1  159.98    7.90
   8   3   0   23.00    3.50
  -8   3   0   21.10    6.40
   8   3   0   25.90    6.20
   8   3   0   28.60    3.00
  -8   3   0   32.80    6.70
  -8  -3   0   33.00    4.20
   8  -3   0   30.90    6.00
   8  -3   0   35.80    6.00
   8  -3   0   30.80    6.50
  -8  -3   0   23.80    6.70
  -8   3  -1   33.90    7.20
   8   3   1   32.60    4.10
   8   3   1   32.90    6.80
   8   3   1   37.30    5.00
  -8   3  -1   42.90    6.40
  -8   3  -1   38.30    6.10
  -8  -3  -1   38.40    5.10
   8  -3   1   46.10    7.40
   8  -3   1   39.50    6.30
   8  -3   1   43.40    6.30
  -8  -3  -1   39.20    7.10
  -8   3  -2   32.50    6.80
   8   3   2   24.80    4.40
  -8   3  -2   24.20    5.70
   8   3   2   30.00    6.70
  -8   3  -2   20.60    7.10
   8   3   2   19.70    3.90
   8  -3   2   26.50    6.60
  -8  -3  -2   20.80    6.50
   8  -3   2   29.10    6.10
   8  -3   2   24.70    6.70
   8   3   3   48.80    8.20
   8   3   3   42.20    5.50
   8   3   3   34.70    5.70
  -8   3  -3   44.60    8.40
  -8   3  -3   26.70    7.00
  -8   3  -3   29.90    6.90
  -8  -3  -3   35.90    7.30
  -8  -3  -3   37.10    7.00
   8  -3   3   35.90    7.30
   8  -3   3   31.50    6.60
   8  -3   3   45.30    8.00
  -8   3  -4    6.50    7.30
   8   3   4    9.60    5.30
   8   3   4   12.00    6.10
  -8   3  -4  -13.30    8.20
   8   3   4   16.00    7.70
  -8   3  -4    3.20    6.10
   8  -3   4   12.90    7.00
  -8  -3  -4    9.20    7.80
   8  -3   4   24.20    7.70
  -8  -3  -4    6.90    6.30
   8  -3   4   21.20    7.90
  -8  -3  -4   -1.70    5.60
  -8   4   4    6.90    7.40
  -8   4   4   10.70    8.00
  -8   4   4   26.50    8.30
   8   4  -4    7.10    7.10
   8  -4  -4    7.30    5.70
   8  -4  -4    5.20    7.80
  -8  -4   4   14.40    6.20
   8  -4  -4   17.30    7.30
  -8  -4   4    5.00    3.20
  -8   4   3    4.60    7.70
  -8   4   3   10.70    7.30
   8   4  -3    4.50    6.00
  -8  -4   3    2.90    5.00
   8  -4  -3   11.60    6.50
   8  -4  -3    7.30    6.30
   8  -4  -3   10.50    4.80
   8  -4  -3   11.70    6.00
  -8   4   2  103.49   12.20
   8   4  -2  117.29   10.80
   8   4  -2  108.89    7.70
  -8   4   2  109.39   11.50
  -8   4   2  115.59   11.30
   8  -4  -2   98.49    8.00
   8  -4  -2  100.49   11.10
   8  -4  -2  115.59   10.30
   8  -4  -2  105.59   10.40
  -8   4   1    2.40    5.80
  -8   4   1    6.20    6.50
   8   4  -1    2.70    2.80
   8   4  -1    6.20    5.00
   8  -4  -1    6.90    5.90
   8  -4  -1    2.20    2.70
   8  -4  -1    9.30    5.40
   8  -4  -1   -1.40    4.80
  -8   4   0   23.00    6.60
   8   4   0   12.40    5.50
  -8  -4   0   15.50    2.90
  -8  -4   0   20.20    6.20
   8  -4   0   27.80    6.70
   8  -4   0   21.70    5.80
   8  -4   0   24.00    6.10
  -8   4  -1   29.30    7.20
   8   4   1   35.30    3.90
  -8   4  -1   37.50    6.20
  -8   4  -1   46.90    6.40
   8   4   1   28.00    3.80
   8   4   1   35.50    6.50
   8  -4   1   27.30    6.60
  -8  -4  -1   38.40    7.30
  -8  -4  -1   40.10    4.60
   8  -4   1   37.20    6.40
   8  -4   1   31.70    5.90
   8   4   2   45.90    7.10
  -8   4  -2   59.39    7.20
   8   4   2   45.50    6.20
  -8   4  -2   65.39   10.20
  -8   4  -2   42.80    7.90
   8   4   2   50.79    6.10
   8  -4   2   39.40    6.70
   8  -4   2   60.49    9.20
   8  -4   2   58.19    8.10
  -8  -4  -2   57.99    8.30
  -8  -4  -2   42.40    5.80
  -8   4  -3   27.40    8.30
   8   4   3   44.90    7.80
   8   4   3   32.90    4.70
  -8   4  -3   25.80    6.50
  -8   4  -3   34.70    8.00
   8   4   3   24.40    5.10
   8  -4   3   36.40    8.00
   8  -4   3   43.50    8.20
  -8  -4  -3   23.80    6.80
   8  -4   3    7.20    7.00
  -8  -4  -3   31.80    6.30
  -8   5   3   24.80    8.10
   8   5  -3   41.00    6.10
  -8   5   3   43.80    8.80
   8   5  -3   36.80    7.10
   8  -5  -3   24.50    7.00
   8  -5  -3   31.20    7.70
   8  -5  -3   38.80    6.00
   8  -5  -3   32.70    7.30
  -8  -5   3   34.00    6.60
  -8   5   2    5.80    6.90
  -8   5   2    7.30    7.20
  -8   5   2    4.10    6.60
   8   5  -2    3.60    3.80
   8   5  -2    6.70    5.80
   8  -5  -2    4.10    6.00
   8  -5  -2   -1.90    5.90
   8  -5  -2    0.60    3.90
   8  -5  -2   -2.90    5.70
  -8   5   1  109.99   11.40
   8   5  -1  115.19   10.40
  -8   5   1  116.69   12.10
   8   5  -1  109.69    7.30
  -8   5   1  120.69   12.30
   8  -5  -1  111.99    7.30
   8  -5  -1  105.29   11.40
   8  -5  -1  117.09   10.30
   8  -5  -1  119.09   10.80
   8   5   0   30.10    6.20
  -8   5   0   35.00    7.60
  -8   5   0   35.70    7.60
   8  -5   0   22.70    6.40
   8  -5   0   21.90    6.80
   8  -5   0   22.50    6.60
  -8  -5   0   18.90    6.20
  -8   5  -1   -3.40    6.80
  -8   5  -1    0.30    5.80
   8   5   1   -1.50    5.20
   8  -5   1   -9.00    5.40
  -8  -5  -1    0.90    2.70
  -8  -5  -1   -0.10    2.20
  -8  -5  -1    3.10    5.50
   8  -5   1    4.90    5.90
   8  -5   1   -0.80    5.40
   8   5   2   49.80    5.00
   8   5   2   47.80    7.70
   8   5   2   37.90    5.20
  -8   5  -2   36.20    8.30
  -8   5  -2   48.00    8.10
  -8   5  -2   37.30    6.10
   8  -5   2   58.79    8.20
   8  -5   2   48.90    8.20
  -8  -5  -2   53.69    6.90
  -8  -5  -2   44.50    8.10
   8  -5   2   57.79    8.10
   8   5   3   33.20    7.60
  -8   5  -3   28.50    5.90
  -8   5  -3   28.70    8.30
   8   5   3   22.30    4.80
   8   5   3   22.90    4.80
  -8   5  -3   34.30    8.30
  -8  -5  -3   23.80    6.50
   8  -5   3   23.80    8.60
  -8  -5  -3   35.00    6.40
   8  -5   3   33.20    8.10
   8  -5   3   41.10    7.80
  -8   6   3   36.70    8.20
   8   6  -3   27.90    7.10
   8   6  -3   37.00    5.70
  -8   6   3   41.90    8.80
   8  -6  -3   32.60    6.20
   8  -6  -3   28.80    7.60
   8  -6  -3   27.20    8.00
  -8  -6   3   56.09    7.70
   8  -6  -3   39.00    9.10
  -8   6   2   56.59    9.50
  -8   6   2   57.79    9.30
   8   6  -2   59.99    7.30
  -8   6   2   68.79    9.50
   8   6  -2   54.79    7.30
   8  -6  -2   52.59    7.80
   8  -6  -2   43.60    5.70
   8  -6  -2   52.29    8.10
   8  -6  -2   52.79    8.20
   8   6  -1    6.90    3.50
  -8   6   1    4.20    7.50
  -8   6   1    7.90    7.00
  -8   6   1    7.70    6.60
   8   6  -1   15.40    5.70
   8  -6  -1    9.50    6.10
   8  -6  -1   10.20    3.60
   8  -6  -1    9.30    6.30
   8  -6  -1   11.50    6.40
  -8   6   0   15.90    7.70
  -8   6   0   11.80    7.10
   8   6   0   15.20    5.80
   8   6   0   11.50    2.90
   8  -6   0    8.50    6.00
   8  -6   0   11.30    6.60
  -8  -6   0    3.20    5.80
   8  -6   0   19.80    6.70
   8   6   1   91.39   10.50
  -8   6  -1   95.19   10.90
  -8   6  -1   75.49   10.40
  -8  -6  -1   70.29   10.00
   8  -6   1   93.09   10.30
   8  -6   1   88.49   11.20
   8  -6   1   87.59   11.40
  -8   6  -2   25.20    5.80
  -8   6  -2   13.30    7.60
   8   6   2   23.20    7.20
   8   6   2   12.30    2.30
  -8   6  -2    4.40    7.70
   8  -6   2    7.40    6.40
  -8  -6  -2    3.50    2.90
   8  -6   2   11.60    6.30
  -8  -6  -2    2.60    3.70
  -8  -6  -2   18.90    6.80
   8  -6   2    9.20    7.00
   8   6   3   24.60    7.40
  -8   6  -3   22.50    8.50
   8   6   3   15.70    4.40
  -8   6  -3   21.80    5.40
   8   6   3   15.20    4.10
   8  -6   3   13.50    7.00
  -8  -6  -3    8.80    5.80
  -8  -6  -3   17.30    5.70
   8  -6   3    4.10    8.20
   8  -6   3   10.20    6.70
  -8   7   2   26.00    8.00
  -8   7   2   11.20    8.60
  -8   7   2    9.90    7.10
   8   7  -2   27.00    6.50
   8   7  -2   18.10    4.70
   8  -7  -2   11.80    6.90
   8  -7  -2   22.70    7.60
   8  -7  -2   13.70    4.90
   8  -7  -2   15.60    6.70
   8   7  -1   22.50    6.10
  -8   7   1   20.60    8.60
  -8   7   1   24.60    7.70
  -8   7   1    7.20    7.40
   8   7  -1   28.10    4.50
   8  -7  -1   27.40    4.40
   8  -7  -1   11.10    6.70
   8  -7  -1   35.70    7.60
   8  -7  -1   24.90    7.70
  -8   7   0   52.39    9.20
  -8   7   0   76.69   12.00
   8   7   0   65.29    6.30
   8   7   0   67.49   10.00
  -8  -7   0   43.60    8.00
   8  -7   0   74.09   10.90
   8  -7   0   47.00    8.20
   8  -7   0   49.80    7.90
  -8   7  -1    7.40    7.40
   8   7   1    5.70    5.80
  -8   7  -1   -8.10    7.10
   8  -7   1   -2.90    6.30
  -8  -7  -1    5.20    5.50
   8  -7   1   -3.30    7.00
   8  -7   1    5.90    6.00
  -8   7  -2   59.79   12.10
  -8   7  -2   59.09    9.40
   8   7   2   77.59    9.40
   8  -7   2   53.59    9.20
   8  -7   2   72.49    9.40
   8  -7   2   86.99   12.70
  -8   8   1    5.80    8.30
  -8   8   1    2.00    6.70
   8   8  -1    7.70    5.70
   8   8  -1   15.60    4.70
  -8   8   1   25.90    9.40
   8  -8  -1   14.70    7.30
   8  -8  -1    8.90    7.10
   8  -8  -1   23.90    8.10
   8  -8  -1   10.00    4.50
  -8   8   0   19.60    8.30
   8   8   0   13.80    6.20
   8   8   0    7.00    3.90
  -8   8   0   -1.70    7.50
   8  -8   0    4.90    7.50
   8  -8   0   14.20    6.90
  -8  -8   0   14.70    7.40
   8  -8   0    8.60    6.90
   8  -8   0    9.20    4.00
   8   8   1   72.39    6.30
  -8   8  -1   87.99   12.80
   8   8   1   83.89   11.40
  -8  -8  -1   73.09   10.70
   8  -8   1   72.09    9.50
   8  -8   1   92.99   11.90
   8  -8   1   91.19   11.40
   9   0  -2    2.80    3.50
  -9   0   2   -4.50    5.70
   9   0  -2   -1.40    3.50
   9   0  -2    8.50    4.40
   9   0  -2   -0.10    6.60
  -9   0   1    4.50    4.60
   9   0  -1    6.80    6.50
  -9   0   1    4.40    5.70
   9   0  -1   -1.90    4.30
   9   0  -1    6.50    3.40
   9   0   0  100.29   11.50
   9   0   0  115.59    7.90
   9   0   0  103.79    8.70
  -9   0   0   98.29   10.20
   9   0   1    4.00    5.00
  -9   0  -1    1.80    5.50
   9   0   1    2.20    4.10
  -9   0  -1    0.90    4.70
  -9   0  -1    1.20    6.60
   9   0   1    5.40    6.50
  -9   0  -2   73.39   11.50
   9   0   2   53.39    7.50
   9   0   2   57.39    9.30
   9   0   2   83.49    9.50
  -9   1   2   15.10    6.70
   9   1  -2   16.40    3.90
   9   1  -2   10.00    3.80
   9   1  -2    7.50    6.80
   9   1  -2   13.40    3.90
   9  -1  -2    9.90    4.20
   9  -1  -2   12.20    3.80
   9  -1  -2   24.20    7.40
   9  -1  -2   11.90    5.10
   9   1  -1   27.20    6.70
   9   1  -1   15.80    4.40
  -9   1   1   24.70    6.80
   9   1  -1   20.50    4.20
  -9   1   1    4.20    5.30
   9  -1  -1   30.70    7.40
   9  -1  -1   22.40    4.60
   9  -1  -1   20.70    5.50
   9   1   0   -3.10    3.90
  -9   1   0   11.00    5.00
   9   1   0    6.80    6.00
   9   1   0    0.90    3.90
  -9   1   0    5.40    6.50
   9  -1   0   -0.20    4.20
  -9  -1   0   -2.80    4.40
  -9  -1   0   -3.70    5.50
   9  -1   0    3.50    4.90
   9  -1   0   -2.60    6.10
   9   1   1   82.49    7.10
  -9   1  -1  105.49   10.40
   9   1   1  102.69    8.50
  -9   1  -1   93.59   11.20
   9   1   1   96.69   12.30
  -9  -1  -1   98.09   10.40
   9  -1   1  100.99    8.80
  -9  -1  -1  100.89   10.30
   9  -1   1  105.29    9.60
   9  -1   1   92.59   12.00
   9   1   2   -1.10    7.30
   9  -1   2   13.80    7.60
   9   2  -2   -1.80    2.40
   9   2  -2    5.20    3.70
   9   2  -2    6.40    6.70
   9   2  -2    3.00    3.50
  -9   2   2    8.60    7.20
   9   2  -2    1.20    2.90
  -9  -2   2   -4.40    5.20
   9  -2  -2   -1.20    5.70
   9  -2  -2    4.30    3.70
   9  -2  -2   -3.90    4.80
   9  -2  -2   -8.80    6.80
  -9  -2   2    0.50    3.70
   9   2  -1   15.50    6.70
  -9   2   1    5.20    5.90
  -9   2   1   -3.50    6.60
   9   2  -1    9.10    3.10
   9  -2  -1    0.70    6.70
   9  -2  -1    7.70    5.00
  -9  -2   1    2.80    4.40
   9  -2  -1    2.30    5.70
   9   2   0   64.29    6.20
  -9   2   0   91.99   11.30
   9   2   0   75.99    6.10
   9   2   0   77.99   11.10
   9  -2   0   73.99    8.60
  -9  -2   0   78.89    9.50
   9  -2   0   89.19   11.20
   9  -2   0   81.89    9.60
   9   2   1   -1.30    4.00
  -9   2  -1    2.30    5.60
  -9   2  -1    8.30    7.10
  -9   2  -1   -3.80    5.40
   9   2   1   -2.20    6.50
   9   2   1   -1.20    4.20
  -9  -2  -1    6.90    5.60
   9  -2   1    8.60    5.60
  -9  -2  -1    3.80    5.20
   9  -2   1   13.30    6.50
   9  -2   1   -3.50    5.60
  -9  -2  -1   -2.90    5.20
  -9   3   1    2.60    6.30
  -9   3   1   20.10    7.70
   9   3  -1   26.60    7.20
   9  -3  -1   26.30    6.50
   9  -3  -1   22.80    7.40
   9  -3  -1   19.50    6.00
  -9   3   0    2.90    7.30
   9   3   0   17.00    6.80
  -9   3   0   14.30    6.10
  -9  -3   0   -3.20    4.10
   9  -3   0   -6.80    6.80
  -9  -3   0    8.40    6.10
   9  -3   0   13.70    5.90
   9  -3   0   14.80    6.00
   9   3   1   82.19    6.60
  -9   3  -1   99.69   12.50
   9   3   1   95.59   10.50
  -9   3  -1   99.39   11.20
   9   3   1   82.99    6.40
   9  -3   1   82.89   12.30
   9  -3   1  111.49   10.80
  -9  -3  -1   82.99   10.50
   9  -3   1   87.39   10.50
  -9   4   0   56.69    9.20
  -9   4   0   76.99   11.30
   9   4   0   54.69    8.30
   9  -4   0   64.69    9.60
   9  -4   0   68.99   10.70
   9  -4   0   64.89   10.10
_computing_structure_solution     'SHELXT 2014/4 (Sheldrick, 2014)'
;
_shelx_hkl_checksum              4920
_shelx_res_file
;
TITL UMD656_a.res in P2(1)/c
REM Old TITL UMD656 in P2(1)/c
REM SHELXT solution in P2(1)/c
REM R1 0.101, Rweak 0.006, Alpha 0.038, Orientation as input
REM Formula found by SHELXT: C9 O2 I
CELL 0.71073 7.6138 13.9658 7.3866 90 91.249 90
ZERR 4 0.0009 0.0017 0.001 0 0.005 0
LATT 1
SYMM -X,0.5+Y,0.5-Z
SFAC C H N O I
UNIT 32 16 4 8 4
EQIV $1 2-X,2-Y,1-Z
EQIV $2 1-X,0.5+Y,1.5-Z
DFIX 0.87 N1 H1
L.S. 10
PLAN  5
SIZE 0.08 0.1 0.25
TEMP 24.53
HTAB N1 O1_$1
HTAB C7 I1_$2
BOND $H
HTAB 2
LIST 6
CONF
fmap 2
acta 50.5
MORE -1
OMIT 5 1 2
OMIT -4 1 2
OMIT 6 1 4
REM <olex2.extras>
REM <HklSrc "%.\\UMD656_a.hkl">
REM </olex2.extras>
WGHT    0.026000    3.722300
FVAR       0.29397
I1    5    0.768090    0.522558    0.586995    11.00000    0.03784    0.02549 =
         0.04776    0.00133    0.00400   -0.00292
O1    4    1.141490    0.891982    0.438915    11.00000    0.03866    0.02926 =
         0.06446    0.00261    0.01295   -0.00361
O2    4    1.072319    0.686852    0.454021    11.00000    0.03713    0.02824 =
         0.06669   -0.00019    0.01479    0.00101
N1    3    0.865601    0.899704    0.559773    11.00000    0.04059    0.02102 =
         0.04328   -0.00083    0.00603    0.00172
H1    2    0.853664    0.961347    0.560555    11.00000   -1.20000
C1    1    1.007944    0.856277    0.496060    11.00000    0.03695    0.02869 =
         0.03457    0.00059    0.00270   -0.00082
C2    1    0.969545    0.745964    0.507840    11.00000    0.02614    0.02844 =
         0.03071   -0.00140    0.00320    0.00038
C3    1    0.794386    0.739472    0.584096    11.00000    0.02476    0.02586 =
         0.02195   -0.00038    0.00120    0.00094
C4    1    0.684961    0.662917    0.625398    11.00000    0.03416    0.02591 =
         0.01936    0.00029   -0.00313   -0.00090
C5    1    0.519669    0.681622    0.691453    11.00000    0.02740    0.04074 =
         0.02793   -0.00251    0.00272   -0.00282
AFIX  43
H5    2    0.445122    0.631525    0.721061    11.00000   -1.20000
AFIX   0
C6    1    0.466403    0.775790    0.713016    11.00000    0.03203    0.05311 =
         0.02580   -0.00601    0.00388    0.00797
AFIX  43
H6    2    0.354887    0.787338    0.757080    11.00000   -1.20000
AFIX   0
C7    1    0.570994    0.853185    0.672201    11.00000    0.03531    0.03519 =
         0.03449   -0.00596    0.00092    0.00973
AFIX  43
H7    2    0.531625    0.915749    0.685918    11.00000   -1.20000
AFIX   0
C8    1    0.736517    0.833461    0.610162    11.00000    0.03193    0.02776 =
         0.02058   -0.00162   -0.00181   -0.00171
HKLF 4
REM  UMD656_a.res in P2(1)/c
REM R1 =  0.0332 for    1268 Fo > 4sig(Fo)  and  0.0437 for all    1491 data
REM    112 parameters refined using      1 restraints
END
WGHT      0.0260      3.7223
REM Instructions for potential hydrogen bonds
HTAB N1 O1_$1
HTAB C7 I1_$2
REM Highest difference peak  0.950,  deepest hole -0.834,  1-sigma level  0.140
Q1    1   0.8893  0.5199  0.5857  11.00000  0.05    0.95
Q2    1   0.6426  0.5208  0.6126  11.00000  0.05    0.80
Q3    1   0.7531  0.5868  0.5963  11.00000  0.05    0.72
Q4    1   0.7648  0.4551  0.5887  11.00000  0.05    0.70
Q5    1   0.3062  0.5757  0.7591  11.00000  0.05    0.63
;
_shelx_res_checksum              81169
loop_
_space_group_symop_operation_xyz
'x, y, z'
'-x, y+1/2, -z+1/2'
'-x, -y, -z'
'x, -y-1/2, z-1/2'
loop_
_atom_site_type_symbol
_atom_site_label
_atom_site_fract_x
_atom_site_fract_y
_atom_site_fract_z
_atom_site_U_iso_or_equiv
_atom_site_adp_type
_atom_site_calc_flag
_atom_site_occupancy
I I1 0.76809(5) 0.52256(3) 0.58699(6) 0.03698(15) Uani d 1
O O1 1.1415(6) 0.8920(3) 0.4389(7) 0.0440(11) Uani d 1
O O2 1.0723(6) 0.6869(3) 0.4540(7) 0.0438(11) Uani d 1
N N1 0.8656(7) 0.8997(3) 0.5598(7) 0.0349(11) Uani d 1
H H1 0.854(9) 0.9613(16) 0.561(9) 0.042 Uiso d 1
C C1 1.0079(8) 0.8563(4) 0.4961(8) 0.0334(13) Uani d 1
C C2 0.9695(7) 0.7460(4) 0.5078(7) 0.0284(12) Uani d 1
C C3 0.7944(7) 0.7395(4) 0.5841(7) 0.0242(11) Uani d 1
C C4 0.6850(7) 0.6629(4) 0.6254(7) 0.0265(11) Uani d 1
C C5 0.5197(7) 0.6816(4) 0.6915(8) 0.0320(13) Uani d 1
H H5 0.4451 0.6315 0.7211 0.038 Uiso calc 1
C C6 0.4664(8) 0.7758(5) 0.7130(8) 0.0369(14) Uani d 1
H H6 0.3549 0.7873 0.7571 0.044 Uiso calc 1
C C7 0.5710(8) 0.8532(4) 0.6722(8) 0.0350(13) Uani d 1
H H7 0.5316 0.9157 0.6859 0.042 Uiso calc 1
C C8 0.7365(7) 0.8335(4) 0.6102(7) 0.0268(12) Uani d 1
loop_
_atom_site_aniso_label
_atom_site_aniso_U_11
_atom_site_aniso_U_22
_atom_site_aniso_U_33
_atom_site_aniso_U_12
_atom_site_aniso_U_13
_atom_site_aniso_U_23
I1 0.0378(2) 0.0255(2) 0.0478(3) -0.00292(17) 0.00400(16) 0.00133(19)
O1 0.039(2) 0.029(2) 0.064(3) -0.0036(19) 0.013(2) 0.003(2)
O2 0.037(2) 0.028(2) 0.067(3) 0.0010(18) 0.015(2) 0.000(2)
N1 0.041(3) 0.021(2) 0.043(3) 0.002(2) 0.006(2) -0.001(2)
C1 0.037(3) 0.029(3) 0.035(3) -0.001(2) 0.003(2) 0.001(2)
C2 0.026(3) 0.028(3) 0.031(3) 0.000(2) 0.003(2) -0.001(2)
C3 0.025(3) 0.026(3) 0.022(3) 0.001(2) 0.001(2) 0.000(2)
C4 0.034(3) 0.026(3) 0.019(3) -0.001(2) -0.003(2) 0.000(2)
C5 0.027(3) 0.041(3) 0.028(3) -0.003(2) 0.003(2) -0.003(3)
C6 0.032(3) 0.053(4) 0.026(3) 0.008(3) 0.004(2) -0.006(3)
C7 0.035(3) 0.035(3) 0.034(3) 0.010(3) 0.001(3) -0.006(3)
C8 0.032(3) 0.028(3) 0.021(3) -0.002(2) -0.002(2) -0.002(2)
loop_
_atom_type_symbol
_atom_type_description
_atom_type_scat_dispersion_real
_atom_type_scat_dispersion_imag
_atom_type_scat_source
C C 0.0033 0.0016 'International Tables Vol C Tables 4.2.6.8 and 6.1.1.4'
H H 0.0000 0.0000 'International Tables Vol C Tables 4.2.6.8 and 6.1.1.4'
N N 0.0061 0.0033 'International Tables Vol C Tables 4.2.6.8 and 6.1.1.4'
O O 0.0106 0.0060 'International Tables Vol C Tables 4.2.6.8 and 6.1.1.4'
I I -0.4742 1.8119 'International Tables Vol C Tables 4.2.6.8 and 6.1.1.4'
loop_
_geom_angle_atom_site_label_1
_geom_angle_atom_site_label_2
_geom_angle_atom_site_label_3
_geom_angle
C1 N1 H1 123(5)
C1 N1 C8 111.8(5)
C8 N1 H1 125(5)
O1 C1 N1 128.8(6)
O1 C1 C2 125.4(5)
N1 C1 C2 105.8(5)
O2 C2 C1 121.9(5)
O2 C2 C3 133.3(5)
C3 C2 C1 104.8(4)
C4 C3 C2 133.4(5)
C4 C3 C8 119.9(5)
C8 C3 C2 106.7(5)
C3 C4 I1 120.5(4)
C5 C4 I1 120.5(4)
C5 C4 C3 119.0(5)
C4 C5 H5 120.3
C4 C5 C6 119.3(5)
C6 C5 H5 120.3
C5 C6 H6 118.4
C7 C6 C5 123.1(6)
C7 C6 H6 118.4
C6 C7 H7 121.6
C8 C7 C6 116.9(5)
C8 C7 H7 121.6
C3 C8 N1 110.9(5)
C7 C8 N1 127.3(5)
C7 C8 C3 121.8(5)
loop_
_geom_bond_atom_site_label_1
_geom_bond_atom_site_label_2
_geom_bond_distance
I1 C4 2.081(5)
O1 C1 1.216(7)
O2 C2 1.211(7)
N1 H1 0.87(2)
N1 C1 1.336(8)
N1 C8 1.406(7)
C1 C2 1.571(8)
C2 C3 1.462(7)
C3 C4 1.393(8)
C3 C8 1.399(8)
C4 C5 1.385(8)
C5 H5 0.9300
C5 C6 1.386(9)
C6 H6 0.9300
C6 C7 1.380(9)
C7 H7 0.9300
C7 C8 1.378(8)
loop_
_geom_hbond_atom_site_label_D
_geom_hbond_atom_site_label_H
_geom_hbond_atom_site_label_A
_geom_hbond_site_symmetry_A
_geom_hbond_distance_DH
_geom_hbond_distance_HA
_geom_hbond_distance_DA
_geom_hbond_angle_DHA
N1 H1 O1 3_776 0.87(2) 2.05(2) 2.910(6) 173(7)
loop_
_geom_torsion_atom_site_label_1
_geom_torsion_atom_site_label_2
_geom_torsion_atom_site_label_3
_geom_torsion_atom_site_label_4
_geom_torsion
I1 C4 C5 C6 -179.0(4)
O1 C1 C2 O2 -2.2(10)
O1 C1 C2 C3 -179.8(6)
O2 C2 C3 C4 1.6(11)
O2 C2 C3 C8 -176.3(7)
N1 C1 C2 O2 177.5(6)
N1 C1 C2 C3 -0.1(6)
C1 N1 C8 C3 1.5(7)
C1 N1 C8 C7 -176.5(6)
C1 C2 C3 C4 178.8(6)
C1 C2 C3 C8 1.0(6)
C2 C3 C4 I1 2.2(8)
C2 C3 C4 C5 -177.4(6)
C2 C3 C8 N1 -1.5(6)
C2 C3 C8 C7 176.6(5)
C3 C4 C5 C6 0.7(8)
C4 C3 C8 N1 -179.7(5)
C4 C3 C8 C7 -1.6(8)
C4 C5 C6 C7 -0.2(9)
C5 C6 C7 C8 -1.1(9)
C6 C7 C8 N1 179.8(6)
C6 C7 C8 C3 2.0(8)
C8 N1 C1 O1 178.9(6)
C8 N1 C1 C2 -0.8(7)
C8 C3 C4 I1 179.8(4)
C8 C3 C4 C5 0.2(8)
