#------------------------------------------------------------------------------
#$Date: 2016-03-15 17:18:10 +0200 (Tue, 15 Mar 2016) $
#$Revision: 178207 $
#$URL: svn://www.crystallography.net/cod/cif/1/54/28/1542880.cif $
#------------------------------------------------------------------------------
#
# This file is available in the Crystallography Open Database (COD),
# http://www.crystallography.net/
#
# All data on this site have been placed in the public domain by the
# contributors.
#
data_1542880
loop_
_publ_author_name
'Golen, James A.'
'Manke, David R.'
_publ_section_title
;
 7-Iodo-1<i>H</i>-indole-2,3-dione
;
_journal_coeditor_code           FF4004
_journal_issue                   3
_journal_name_full               IUCrData
_journal_page_first              x160412
_journal_paper_doi               10.1107/S2414314616004120
_journal_volume                  1
_journal_year                    2016
_chemical_formula_iupac          'C8 H4 I N O2'
_chemical_formula_moiety         'C8 H4 I N O2'
_chemical_formula_sum            'C8 H4 I N O2'
_chemical_formula_weight         273.02
_chemical_name_common
;
7-Iodoisatin
;
_chemical_name_systematic
;
7-Iodo-1<i>H</i>-indole-2,3-dione
;
_space_group_crystal_system      monoclinic
_space_group_IT_number           14
_space_group_name_Hall           '-P 2ybc'
_space_group_name_H-M_alt        'P 1 21/c 1'
_symmetry_space_group_name_Hall  '-P 2ybc'
_symmetry_space_group_name_H-M   'P 1 21/c 1'
_atom_sites_solution_hydrogens   mixed
_audit_creation_method
;
Olex2 1.2
(compiled 2015.09.30 svn.r3233 for OlexSys, GUI svn.r5103)
;
_cell_angle_alpha                90
_cell_angle_beta                 92.325(4)
_cell_angle_gamma                90
_cell_formula_units_Z            4
_cell_length_a                   4.0896(3)
_cell_length_b                   13.2139(10)
_cell_length_c                   15.1946(11)
_cell_measurement_reflns_used    7596
_cell_measurement_temperature    296(2)
_cell_measurement_theta_max      67.78
_cell_measurement_theta_min      4.44
_cell_volume                     820.43(10)
_computing_cell_refinement
;
SAINT (Bruker, 2014)
;
_computing_data_collection
;
APEX2 (Bruker, 2014)
;
_computing_data_reduction
;
SAINT (Bruker, 2014)
;
_computing_molecular_graphics
;
OLEX2 (Dolomanov <i>et al.</i>,  2009)
;
_computing_publication_material
;
OLEX2 (Dolomanov <i>et al.</i>,  2009) and publCIF (Westrip,
2010)
;
_computing_structure_refinement
;
SHELXL2014 (Sheldrick, 2015)
;
_computing_structure_solution
;
SHELXS97 (Sheldrick, 2008)
;
_diffrn_ambient_temperature      295.85
_diffrn_measured_fraction_theta_full 0.989
_diffrn_measured_fraction_theta_max 0.996
_diffrn_measurement_device_type  'Bruker D8 Venture CMOS'
_diffrn_measurement_method       '\f and \w scans'
_diffrn_radiation_monochromator  'HELIOS MX'
_diffrn_radiation_type           CuK\a
_diffrn_radiation_wavelength     1.54178
_diffrn_reflns_av_R_equivalents  0.0612
_diffrn_reflns_limit_h_max       4
_diffrn_reflns_limit_h_min       -4
_diffrn_reflns_limit_k_max       15
_diffrn_reflns_limit_k_min       -15
_diffrn_reflns_limit_l_max       18
_diffrn_reflns_limit_l_min       -18
_diffrn_reflns_number            11737
_diffrn_reflns_theta_full        68.250
_diffrn_reflns_theta_max         68.096
_diffrn_reflns_theta_min         4.436
_diffrn_standards_number         0
_exptl_absorpt_coefficient_mu    30.327
_exptl_absorpt_correction_T_max  0.1665
_exptl_absorpt_correction_T_min  0.0373
_exptl_absorpt_correction_type   multi-scan
_exptl_absorpt_process_details
;
(SADABS; Bruker, 2014)
;
_exptl_crystal_colour            red
_exptl_crystal_density_diffrn    2.210
_exptl_crystal_description       BLOCK
_exptl_crystal_F_000             512
_exptl_crystal_size_max          0.2
_exptl_crystal_size_mid          0.1
_exptl_crystal_size_min          0.08
_refine_diff_density_max         0.479
_refine_diff_density_min         -0.492
_refine_ls_extinction_method     none
_refine_ls_goodness_of_fit_ref   1.123
_refine_ls_hydrogen_treatment    mixed
_refine_ls_matrix_type           full
_refine_ls_number_parameters     113
_refine_ls_number_reflns         1479
_refine_ls_number_restraints     1
_refine_ls_restrained_S_all      1.123
_refine_ls_R_factor_all          0.0398
_refine_ls_R_factor_gt           0.0336
_refine_ls_shift/su_max          0.001
_refine_ls_shift/su_mean         0.000
_refine_ls_structure_factor_coef Fsqd
_refine_ls_weighting_details
'w=1/[\s^2^(Fo^2^)+(0.0197P)^2^+2.0314P] where P=(Fo^2^+2Fc^2^)/3'
_refine_ls_weighting_scheme      calc
_refine_ls_wR_factor_gt          0.0734
_refine_ls_wR_factor_ref         0.0763
_reflns_number_gt                1321
_reflns_number_total             1479
_reflns_threshold_expression     'I > 2\s(I)'
_cod_data_source_file            ff4004sup1.cif
_cod_data_source_block           I
_cod_database_code               1542880
_shelx_space_group_comment
;
The symmetry employed for this shelxl refinement is uniquely defined
by the following loop, which should always be used as a source of
symmetry information in preference to the above space-group names.
They are only intended as comments.
;
_shelx_estimated_absorpt_t_min   0.065
_shelx_estimated_absorpt_t_max   0.195
_shelx_hkl_file
;
   1   0   0  202.58   13.90
  -1   0   0  189.58   13.80
  -2   0   0 2156.98  146.29
   3   0   0  845.52   61.59
   3   0   0  820.72   57.89
   3   0   0  765.72   57.09
   3   0   0  871.91   59.59
  -4   0   0   20.10   14.90
   4   0   0   50.99   10.90
   0  -1   0   -4.60    0.50
   0  -1   0   -4.50    0.60
   0   1   0   -4.90    0.50
   0   1   0   -3.60    0.50
  -1  -1   0 3299.37  212.28
  -1  -1   0 3276.57  212.18
  -1   1   0 3228.88  212.18
  -1   1   0 2843.32  212.18
   1   1   0 2986.50  212.08
   1   1   0 3168.78  212.18
  -2  -1   0 1169.38   83.79
  -2  -1   0 1303.37   83.49
   2   1   0 1153.68   83.49
  -2   1   0 1213.98   82.99
  -2   1   0 1288.47   83.49
   3  -1   0  314.17   30.10
  -3  -1   0  289.07   25.60
   3  -1   0  290.57   23.30
   3  -1   0  279.27   25.20
   3   1   0  308.57   26.00
   3   1   0  286.57   23.20
   3   1   0  252.17   22.00
   3   1   0  320.87   33.20
  -4  -1   0  264.77   28.30
   4  -1   0  346.67   25.40
   4   1   0  343.37   26.20
   0  -2   0 3671.03  250.87
   0   2   0 3633.54  250.87
   0   2   0 3813.22  250.87
  -1  -2   0   46.30    4.00
   1   2   0   42.50    4.00
  -1   2   0   45.80    3.80
   1   2   0   45.00    3.70
   1   2   0   42.00    3.20
  -1   2   0   39.20    4.00
   1   2   0   41.30    3.70
  -2  -2   0  718.93   49.30
   2   2   0  715.33   49.60
   2   2   0  713.83   49.10
  -2   2   0  700.53   48.90
  -2   2   0  719.23   49.20
   3  -2   0  378.66   33.90
   3  -2   0  439.16   30.80
  -3  -2   0  354.66   29.50
   3   2   0  381.36   29.10
   3   2   0  374.06   28.00
   3   2   0  361.56   32.00
  -4  -2   0   10.80   10.50
   4  -2   0   10.90    6.80
   4  -2   0  -16.20   13.20
   4   2   0   19.20    5.00
   4   2   0   17.40    9.20
   0  -3   0   -2.60    1.60
   0   3   0   -5.00    1.30
   0   3   0   -4.30    1.30
  -1  -3   0  544.85   38.10
  -1  -3   0  553.94   37.90
   1   3   0  593.24   37.90
   1   3   0  509.95   37.80
   1   3   0  524.85   37.60
  -1   3   0  566.84   38.00
  -2  -3   0  259.27   19.80
  -2  -3   0  234.78   19.20
  -2  -3   0  247.48   17.60
  -2   3   0  205.38   17.60
  -2   3   0  252.07   17.80
   2   3   0  231.28   17.70
   2   3   0  228.98   18.30
   2   3   0  230.68   16.40
   3  -3   0   21.80    9.40
   3  -3   0   14.10   10.50
  -3  -3   0   22.40    8.50
   3   3   0   12.70    5.10
   3   3   0   21.30   13.10
   3   3   0   18.00    7.80
  -4  -3   0   35.70    9.90
   4  -3   0   38.70    9.20
   4   3   0   57.19   13.20
   4   3   0   47.80   10.70
   4   3   0   27.30    5.90
   0  -4   0  715.33   46.40
   0  -4   0  671.33   46.50
   0   4   0  715.83   46.80
   0   4   0  629.24   46.90
   0   4   0  650.73   46.60
  -1  -4   0    8.90    3.00
  -1  -4   0    6.00    2.00
   1   4   0    9.30    3.00
   1   4   0    8.10    2.40
   1   4   0    8.70    2.40
   1   4   0   13.70    3.60
  -1   4   0    6.20    3.00
  -2  -4   0   13.30    5.60
  -2  -4   0   25.20    5.50
  -2  -4   0   24.00    7.30
   2   4   0   36.30    5.80
  -2   4   0   20.40    7.10
  -2   4   0   10.90    5.90
   2   4   0   23.00    4.00
  -3  -4   0   26.70    7.60
   3  -4   0    3.90    8.70
   3  -4   0   17.10    9.90
  -3  -4   0   13.00    9.00
   3   4   0   13.10    7.80
   3   4   0   31.70   13.80
   3   4   0   11.00    5.20
  -4  -4   0    3.60    7.50
   4  -4   0   19.00    9.60
   4   4   0   21.50    9.10
   4   4   0   17.90   10.30
   0   5   0    6.10    4.00
  -1  -5   0  694.23   46.10
  -1  -5   0  649.24   46.10
   1   5   0  601.84   46.40
   1   5   0  640.54   46.00
  -1   5   0  693.53   46.30
   1   5   0  702.83   46.20
   1   5   0  683.63   46.20
  -2  -5   0   64.19    9.00
  -2  -5   0   85.39    9.80
  -2  -5   0   91.09    8.20
  -2   5   0   67.89   13.00
  -2   5   0   66.09   12.40
   2   5   0   73.79   10.00
   2   5   0   91.59   13.40
   2   5   0   63.19    6.90
   2   5   0   84.19    7.50
   3  -5   0   73.29   18.10
  -3  -5   0   60.59   10.30
   3  -5   0   56.99   10.90
   3   5   0   64.99   14.80
   3   5   0   64.19    9.70
   3   5   0   39.50    9.10
   4  -5   0   21.90    9.50
   4   5   0   30.20   10.30
   4   5   0   43.20   10.70
   4   5   0   24.20    5.50
   0   6   0 1802.72  120.79
   0   6   0 1865.41  121.09
   0   6   0 1649.63  120.89
  -1  -6   0  265.97   24.30
  -1  -6   0  323.97   22.60
  -1  -6   0  311.87   22.50
   1   6   0  253.67   24.00
   1   6   0  326.67   22.80
   1   6   0  348.27   23.00
   1   6   0  325.47   23.20
  -1   6   0  356.26   23.50
  -2  -6   0 1234.28   80.89
  -2  -6   0 1192.98   80.89
  -2  -6   0 1172.18   80.79
  -2  -6   0 1158.38   83.09
   2  -6   0 1096.59   83.29
  -2   6   0 1244.98   82.39
   2   6   0 1119.49   83.09
   2   6   0 1082.09   82.29
   2   6   0 1110.09   80.89
   2   6   0 1249.97   80.59
   2   6   0 1303.37   83.99
   2   6   0 1098.89   80.29
   3  -6   0  336.37   27.20
  -3  -6   0  314.17   23.70
  -3  -6   0  317.17   30.20
  -3  -6   0  276.87   26.90
   3  -6   0  303.87   26.80
  -3  -6   0  296.47   26.10
   3   6   0  296.87   24.10
   3   6   0  271.37   24.80
   3   6   0  359.06   29.70
   4  -6   0   14.10    8.00
   4  -6   0   18.10    8.30
  -4  -6   0    7.80    6.00
   4   6   0    1.60   10.00
   4   6   0    6.50    8.90
   4   6   0   -0.40    4.00
   0   7   0    2.60    4.70
  -1  -7   0 2597.74  200.28
  -1  -7   0 3009.00  200.18
   1   7   0 3057.49  200.58
  -1   7   0 3125.99  200.88
   1   7   0 3188.48  200.48
   1   7   0 2971.90  200.28
   1   7   0 2664.53  200.28
  -2  -7   0  481.05   32.10
  -2  -7   0  497.65   40.30
  -2  -7   0  447.16   31.90
  -2  -7   0  477.95   35.40
   2  -7   0  403.66   36.10
  -2  -7   0  435.86   32.10
   2   7   0  445.66   31.70
   2   7   0  405.96   32.80
   2   7   0  411.96   34.50
   2   7   0  428.66   35.30
  -3  -7   0  131.79   11.90
  -3  -7   0   92.19   16.00
   3  -7   0   98.39   19.20
  -3  -7   0   93.99   18.00
   3  -7   0  110.59   17.10
   3   7   0  101.09   13.50
   3   7   0  101.99   13.10
   3   7   0  125.79   21.20
   4  -7   0  169.68   15.30
  -4  -7   0  131.19   13.00
   4   7   0  157.98   12.60
   0  -8   0 1886.71  117.59
   0   8   0 1686.63  119.19
   0   8   0 1734.33  118.49
   0   8   0 1619.24  118.59
  -1  -8   0  197.08   21.00
   1  -8   0  154.98   22.60
  -1  -8   0  200.88   14.80
  -1  -8   0  211.18   15.00
   1   8   0  210.28   15.70
   1   8   0  198.28   16.70
  -1   8   0  167.48   18.20
   1   8   0  193.38   20.50
   1   8   0  213.58   15.70
   1   8   0  180.98   20.20
  -2  -8   0  912.61   60.89
  -2  -8   0  895.41   59.39
  -2  -8   0  777.62   57.89
  -2  -8   0  830.22   57.89
   2  -8   0  781.42   59.89
   2   8   0  759.72   59.29
   2   8   0  815.82   58.99
   2   8   0  878.41   57.99
  -3  -8   0  185.28   19.60
   3  -8   0  219.98   19.70
  -3  -8   0  168.48   18.70
  -3  -8   0  212.38   16.70
   3   8   0  188.88   17.20
  -4  -8   0    4.50    4.30
  -4  -8   0    2.10    6.10
   4   8   0   -3.40    9.80
   4   8   0    2.70    3.20
   0  -9   0   -2.40   11.40
   0  -9   0    7.50   10.20
   0  -9   0    0.80    6.70
   0   9   0    1.20    6.60
   0   9   0    2.80    4.90
   0   9   0    0.00    4.70
   0   9   0   -2.40    4.60
   0   9   0   -6.10   10.50
  -1  -9   0  730.03   54.29
   1  -9   0  831.32   55.59
  -1  -9   0  618.94   57.19
  -1  -9   0  771.92   51.29
   1  -9   0  648.64   53.89
  -1  -9   0  752.82   51.09
  -1  -9   0  781.42   53.29
   1  -9   0  774.12   52.59
  -1  -9   0  811.52   53.19
   1   9   0  782.32   51.99
   1   9   0  675.43   51.89
   1   9   0  677.53   54.09
  -1   9   0  692.73   51.89
   1   9   0  775.72   51.99
   1   9   0  773.82   53.09
   1   9   0  750.42   52.09
  -2  -9   0  116.99   13.30
   2  -9   0  137.29   18.10
  -2  -9   0  158.38   14.80
  -2  -9   0  137.69   16.70
  -2  -9   0  144.29   17.80
  -2  -9   0  152.48   13.00
   2   9   0  159.18   13.60
   2   9   0  141.79   14.80
   2   9   0  129.39   14.80
   2   9   0  161.28   15.60
   2   9   0  183.18   16.40
  -3  -9   0    6.40    8.00
  -3  -9   0   31.60    7.40
   3  -9   0   22.90    6.70
  -3  -9   0   35.60    7.80
  -3  -9   0   21.40    6.10
   3   9   0   19.30    7.40
  -4  -9   0   67.09    7.10
   4   9   0   77.49    6.50
   0 -10   0  568.74   38.50
   0 -10   0  558.14   37.50
   0 -10   0  482.15   41.00
   0  10   0  488.65   38.20
   0  10   0  539.65   37.00
   0  10   0  525.85   37.80
   0  10   0  449.56   38.30
   0  10   0  522.25   36.80
   1 -10   0   35.70    9.70
   1 -10   0   25.30    7.00
  -1 -10   0   26.10    5.60
  -1 -10   0   42.80    8.60
   1 -10   0   61.39   14.40
  -1 -10   0   44.10    7.60
  -1 -10   0   37.80   10.20
   1  10   0   44.90   12.00
   1  10   0   38.70    8.80
   1  10   0   38.00    8.10
   1  10   0   50.89    8.70
   1  10   0   29.40    6.30
  -2 -10   0   32.00    7.90
  -2 -10   0   24.20    7.40
   2 -10   0   27.50    7.40
  -2 -10   0   31.40    8.40
  -2 -10   0   29.60    7.90
  -2 -10   0   44.70    7.70
   2  10   0   30.30    6.60
   2  10   0   24.10    7.90
   2  10   0   40.90    7.80
   2  10   0   19.90    8.70
   2  10   0   25.60    6.50
  -3 -10   0   15.60    5.80
  -3 -10   0   14.10   11.90
   3  10   0   20.50    5.70
   0 -11   0   10.80    6.70
   0 -11   0    3.90    8.50
   0  11   0    6.40    4.70
   0  11   0    5.30    8.70
   0  11   0    8.90    7.20
  -1 -11   0   45.50    7.30
  -1 -11   0   61.59   11.00
  -1 -11   0   67.09   13.70
   1 -11   0   60.19   10.00
   1 -11   0   73.79   13.70
  -1 -11   0   49.60    9.60
   1  11   0   68.49   10.90
  -1  11   0   39.60   13.80
   1  11   0   37.50    7.80
   1  11   0   58.79    8.60
   1  11   0   51.69    8.60
   1  11   0   60.79   11.10
  -1  11   0   38.00    7.20
  -1  11   0   47.70    8.30
  -2 -11   0   18.80    9.30
  -2 -11   0   11.30    6.60
   2 -11   0    3.40    6.40
  -2 -11   0    3.70    6.10
   2  11   0   -6.00   10.40
   2  11   0  -10.50    6.00
   2  11   0    1.50    6.70
   2  11   0   -5.90    5.80
   2  11   0   -2.70    4.70
  -2  11   0    5.80    7.60
  -3 -11   0    2.00    8.30
   3 -11   0   -1.30    4.90
  -3 -11   0    2.50    4.30
  -3 -11   0    6.30    5.10
   3  11   0    0.80    3.60
   3  11   0    1.40    4.30
   0 -12   0   64.09   15.40
   0 -12   0   83.69   11.00
   0 -12   0   91.19    9.80
   0  12   0  104.09   10.30
   0  12   0   87.89   11.60
   0  12   0   96.19   10.00
   0  12   0   80.29   17.50
  -1 -12   0    1.90    6.00
  -1 -12   0    6.20    5.40
   1 -12   0    0.30    6.60
   1 -12   0    4.50    6.90
   1  12   0    4.20    5.00
   1  12   0    8.00    6.40
   1  12   0   17.60    7.70
  -1  12   0    6.80    8.50
   1  12   0   15.70    8.20
  -1  12   0    7.10    5.80
   1  12   0    4.50    6.10
  -1  12   0   -0.50    5.70
  -2 -12   0   25.50    5.50
  -2 -12   0   13.20    6.20
  -2 -12   0   17.10    7.00
  -2 -12   0   13.50    4.90
   2  12   0   12.40    7.20
   2  12   0   17.30    5.40
   2  12   0   22.40    7.30
   2  12   0   15.40    4.40
  -2  12   0   21.00    6.80
  -3 -12   0   -8.30    5.90
  -3 -12   0    8.50    4.10
  -3 -12   0   -3.00    3.80
   3  12   0    4.20    3.60
   3  12   0    1.70    4.00
   0 -13   0    4.00    5.80
   0 -13   0    5.90    4.90
   0 -13   0    3.60    3.70
   0  13   0   -3.10    5.20
   0  13   0   14.00    5.20
   0  13   0   -0.90    4.50
  -1 -13   0  231.58   18.10
  -1 -13   0  213.58   20.40
  -1 -13   0  249.88   18.70
   1 -13   0  244.28   19.70
   1  13   0  241.88   19.00
  -1  13   0  220.08   19.80
   1  13   0  243.18   18.40
  -1  13   0  260.57   18.60
   1  13   0  247.58   21.60
   1  13   0  254.77   18.70
  -2 -13   0   13.50    4.00
  -2 -13   0   21.40    5.10
  -2 -13   0   21.60    4.40
   2  13   0   16.70    4.70
   2  13   0   15.80    3.80
  -2  13   0   29.10    6.70
   0 -14   0  279.57   20.80
   0 -14   0  267.37   20.10
   0 -14   0  247.48   21.80
   0  14   0  285.87   20.90
   0  14   0  314.87   20.90
   0  14   0  282.67   20.80
  -1 -14   0   15.50    4.10
   1 -14   0   18.80    5.40
  -1 -14   0   12.90    3.50
   1  14   0   20.40    8.20
  -1  14   0   14.00    6.00
   1  14   0   19.50    4.20
   1  14   0   14.30    4.50
  -2 -14   0   44.40    5.50
  -2 -14   0   52.49    5.50
   2  14   0   59.39    6.20
   2  14   0   66.49    6.20
  -2  14   0   52.49    9.60
   0 -15   0   -2.70    2.40
   0 -15   0   -3.60    3.10
   0  15   0    4.70    4.50
   0  15   0   -7.30    4.50
   0  15   0    5.10    3.20
  -1 -15   0   85.09    7.60
  -1 -15   0   81.39    7.10
   1 -15   0   84.99    9.20
  -1  15   0   96.99   11.00
  -1  15   0  100.59    8.90
   1  15   0   96.19    7.90
   4   0  -1    7.00    7.70
  -4   0   1  -10.60   13.20
   3   0  -1   -3.10    9.10
   3   0  -1   17.50   10.70
   3   0  -1   11.00    6.10
   3   0  -1    9.80    4.20
  -2   0   1   -1.80    2.50
   2   0  -1    2.50    3.20
   1   0  -1    0.30    1.30
  -1   0   1    2.10    1.20
  -1   0   1    1.70    1.10
   0   0  -1    0.40    0.60
   0   0   1    0.80    0.40
  -1   0  -1   -0.40    1.30
  -2   0  -1    0.80    2.00
   3   0   1   -6.00   10.60
   3   0   1    5.70    7.40
  -4   0  -1   -3.20   14.60
   4   0   1    7.80    7.70
   4  -1  -1   12.40    7.10
  -4  -1   1    0.40   11.70
   4  -1  -1    8.90    8.70
  -4   1   1  -25.40   18.70
   4   1  -1    9.30    9.00
   4   1  -1   12.80    8.50
   3  -1  -1  185.78   16.90
  -3  -1   1  156.28   20.00
   3  -1  -1  175.78   22.10
   3  -1  -1  193.58   18.80
   3   1  -1  157.88   19.90
   3   1  -1  179.98   14.70
   3   1  -1  165.38   16.10
  -2  -1   1   38.70    6.10
  -2  -1   1   46.70    4.90
   2   1  -1   54.19    7.70
  -2   1   1   53.69    5.20
   2   1  -1   39.10    5.60
   1  -1  -1   69.29    5.20
  -1  -1   1   74.69    5.20
  -1  -1   1   66.39    5.30
   1   1  -1   68.89    5.20
   1   1  -1   64.89    5.00
  -1   1   1   68.29    5.20
  -1   1   1   71.39    5.00
   1   1  -1   57.99    5.20
   1   1  -1   64.29    4.90
   0  -1  -1  414.16   26.60
   0  -1  -1  344.77   26.60
   0  -1   1  410.36   26.50
   0   1  -1  320.07   26.60
   0   1  -1  401.76   26.60
   0   1   1  416.26   26.60
   0   1   1  409.36   26.60
  -1  -1  -1   96.19    7.90
  -1  -1  -1  113.19    7.50
   1   1   1  109.19    7.50
  -1   1  -1  106.39    7.60
   1   1   1  104.29    7.60
  -2  -1  -1  244.18   18.30
  -2   1  -1  273.87   17.20
  -2   1  -1  214.38   17.30
   3  -1   1   65.19    9.60
  -3  -1  -1   42.10   11.90
   3  -1   1   52.09   11.40
   3   1   1   49.99    9.50
   3   1   1   30.00    7.20
   3   1   1   48.10   11.80
   4  -1   1   39.40    9.90
   4   1   1   20.10    8.80
   4  -2  -1  283.07   24.70
  -4  -2   1  280.77   24.50
   4  -2  -1  281.07   22.40
   4   2  -1  287.27   25.80
   4   2  -1  268.57   23.90
  -3  -2   1  -15.70    9.30
   3  -2  -1   -7.70    8.70
   3  -2  -1    9.10    9.30
   3   2  -1    1.80    4.30
   3   2  -1    6.30   11.60
  -2  -2   1  875.71   61.19
   2   2  -1  935.51   61.39
  -2   2   1  883.41   60.69
   2   2  -1  849.32   61.29
  -2   2   1  911.41   61.29
  -1  -2   1 1345.67   91.69
  -1  -2   1 1457.95   91.59
  -1  -2   1 1419.26   91.59
   1   2  -1 1361.46   91.59
  -1   2   1 1396.66   91.59
   1   2  -1 1231.88   91.19
  -1   2   1 1357.96   91.59
   1   2  -1 1340.67   91.49
   1   2  -1 1216.28   91.59
   0  -2   1 1537.25   98.89
   0  -2   1 1443.66   98.89
   0  -2  -1 1444.66   98.89
   0   2   1 1486.05   98.99
   0   2   1 1490.65   98.89
   0   2  -1 1352.46   98.89
  -1  -2  -1 8290.57  555.44
  -1  -2  -1 8151.78  555.64
   1   2   1 8199.68  555.34
   1   2   1 8201.68  555.24
  -2  -2  -1   12.00    3.50
  -2   2  -1   -1.30    3.30
   2   2   1    0.50    2.70
  -2   2  -1    6.80    3.00
   3  -2   1  459.45   42.20
  -3  -2  -1  353.96   29.10
   3  -2   1  409.76   30.30
   3   2   1  358.26   31.70
   3   2   1  373.56   28.90
   3   2   1  336.47   27.80
  -4  -2  -1   95.89   16.50
   4  -2   1  119.39   12.40
   4   2   1  110.89   14.00
   4   2   1  107.99   11.30
   4  -3  -1   31.40    8.70
  -4  -3   1   22.20    9.00
   4   3  -1   17.80   11.20
   4   3  -1   30.50    7.70
   4   3  -1   12.90    9.80
   3  -3  -1 1053.19   70.09
  -3  -3   1  895.01   68.49
   3  -3  -1 1062.29   69.59
   3   3  -1  984.60   68.49
   3   3  -1  920.61   67.69
   3   3  -1  974.60   70.79
  -2  -3   1  951.20   66.99
  -2  -3   1 1020.90   66.59
  -2  -3   1  886.81   67.19
  -2   3   1 1005.90   66.39
  -2   3   1  990.30   66.89
   2   3  -1  917.01   65.89
   2   3  -1 1006.90   66.69
  -1  -3   1 3753.92  233.98
  -1  -3   1 3662.03  234.08
  -1   3   1 3494.25  234.08
   1   3  -1 3127.29  233.68
  -1   3   1 3465.85  234.08
   1   3  -1 3257.27  233.98
   1   3  -1 3409.96  234.08
   0  -3   1 6265.57  417.16
   0  -3  -1 6586.64  417.16
   0  -3  -1 5932.51  417.26
   0  -3   1 5975.60  417.06
   0   3   1 6040.60  417.16
   0   3   1 6151.78  417.26
   0   3  -1 6720.73  417.36
   0   3  -1 5635.94  417.06
  -1  -3  -1  143.09   11.10
  -1  -3  -1  151.38   10.80
  -1  -3  -1  123.89   11.50
  -1   3  -1  161.08   11.20
   1   3   1  150.48   10.70
   1   3   1  154.18   11.10
   1   3   1  136.09   10.90
   1   3   1  165.88   10.90
  -2  -3  -1 2879.81  188.98
  -2  -3  -1 2951.90  188.98
  -2  -3  -1 2421.86  189.18
   2   3   1 2775.22  188.08
  -2   3  -1 2729.03  188.68
   2   3   1 2801.12  188.68
  -2   3  -1 2884.01  188.88
  -3  -3  -1   92.19   13.10
   3  -3   1   98.29   16.00
   3  -3   1  135.89   16.10
   3   3   1   95.69   17.20
   3   3   1  107.29   13.80
   3   3   1  131.49   12.70
   3   3   1  105.79   19.60
   4  -3   1   72.49   10.20
  -4  -3  -1   45.30   10.40
   4   3   1   74.39    8.70
   4   3   1   54.99   12.80
   4  -4  -1  316.07   27.80
   4  -4  -1  352.26   26.30
  -4  -4   1  362.46   26.40
   4   4  -1  322.27   26.40
   4   4  -1  338.07   31.90
   4   4  -1  372.56   28.30
   3  -4  -1   -4.50    8.30
  -3  -4   1   16.40    7.50
  -3  -4   1   -1.50    8.50
   3   4  -1   10.30    7.10
   3   4  -1   14.60   14.10
   3   4  -1    5.60    4.50
  -2  -4   1 1679.53  116.79
  -2  -4   1 1821.72  116.99
  -2  -4   1 1929.41  116.79
   2   4  -1 1444.66  116.89
  -2   4   1 1584.14  116.59
   2   4  -1 1740.53  116.49
  -2   4   1 1709.43  117.09
   2   4  -1 1750.82  116.19
  -1  -4   1 4149.48  263.07
  -1  -4   1 3704.83  263.07
   1   4  -1 3717.43  263.17
   1   4  -1 3832.22  263.17
  -1   4   1 4324.67  263.27
   1   4  -1 3648.54  263.07
   1   4  -1 3791.42  262.97
   0  -4   1 1112.79   74.09
   0  -4  -1  998.30   74.19
   0  -4   1 1010.10   74.29
   0   4   1 1202.58   74.39
   0   4  -1 1235.08   74.39
   0   4   1 1121.49   74.29
   0   4  -1 1010.80   74.39
   0   4   1 1055.39   74.39
   0   4  -1 1037.70   74.19
  -1  -4  -1 3255.27  254.17
  -1  -4  -1 3592.74  254.07
  -1  -4  -1 3819.92  254.27
   1   4   1 3942.61  254.17
   1   4   1 3951.90  254.07
   1   4   1 4085.39  254.17
  -1   4  -1 3974.80  254.37
   1   4   1 3361.16  254.17
  -2  -4  -1  116.29   11.40
  -2  -4  -1   85.59   10.80
  -2  -4  -1   99.59    9.40
   2   4   1   95.99    7.70
  -2   4  -1   81.49   10.50
  -2   4  -1   98.19   11.20
   2   4   1   86.59   11.10
   3  -4   1  797.72   56.09
   3  -4   1  766.62   53.49
  -3  -4  -1  807.42   59.29
  -3  -4  -1  767.62   51.99
   3   4   1  663.53   51.69
   3   4   1  648.94   54.89
   3   4   1  720.13   52.39
  -4  -4  -1  169.18   16.40
   4  -4   1  193.08   16.10
   4   4   1  182.88   17.80
   4   4   1  140.19   14.50
   4  -5  -1   12.30    7.50
   4  -5  -1   15.50    7.40
  -4  -5   1   15.30    6.20
   4   5  -1   -4.70   14.00
   4   5  -1   28.30   10.30
   4   5  -1   24.20    8.10
   4   5  -1   11.50    5.50
   3  -5  -1  643.64   43.90
   3  -5  -1  624.24   43.80
  -3  -5   1  535.05   41.80
  -3  -5   1  541.45   42.80
   3   5  -1  590.04   42.50
   3   5  -1  538.45   41.50
   3   5  -1  632.54   46.70
  -2  -5   1  177.78   14.90
  -2  -5   1  176.88   15.50
  -2  -5   1  209.08   14.40
   2   5  -1  164.38   15.10
  -2   5   1  168.38   17.60
   2   5  -1  181.68   13.70
  -2   5   1  167.38   18.30
   2   5  -1  185.38   14.20
   2   5  -1  223.18   23.90
  -1  -5   1 2093.79  141.49
  -1  -5   1 2014.20  141.49
   1   5  -1 2110.29  141.49
   1   5  -1 2007.20  141.59
   1   5  -1 2137.79  141.69
  -1   5   1 2119.19  141.79
   0  -5   1 3042.70  201.58
   0  -5  -1 2766.82  201.88
   0   5  -1 2902.41  201.68
   0   5   1 2881.11  201.88
   0   5   1 3020.10  201.78
   0   5   1 3177.58  202.08
   0   5  -1 3208.48  201.98
   0   5  -1 2791.12  201.88
  -1  -5  -1   96.09    8.40
  -1  -5  -1  100.09    8.30
   1   5   1   96.49    8.50
   1   5   1   84.49    9.50
   1   5   1   95.89    8.50
  -1   5  -1  100.89    9.00
   1   5   1  105.49    8.40
  -2  -5  -1 1724.83  109.69
  -2  -5  -1 1514.95  109.79
  -2  -5  -1 1714.53  109.79
  -2   5  -1 1761.22  110.29
   2   5   1 1722.33  109.19
   2   5   1 1361.36  108.79
   2   5   1 1534.45  109.69
   2   5   1 1475.95  110.99
  -3  -5  -1  126.89   13.30
   3  -5   1  127.49   21.70
   3  -5   1  134.99   17.30
  -3  -5  -1  150.98   22.50
   3   5   1  131.29   14.20
   3   5   1  131.29   15.50
   3   5   1  131.79   21.50
   4  -5   1   75.59   11.30
  -4  -5  -1   62.29   10.20
   4   5   1   81.89   13.10
  -4  -6   1   39.20    8.90
   4  -6  -1   45.60    9.80
   4  -6  -1   41.20   10.10
   4   6  -1   54.19   10.20
   4   6  -1   68.59   12.50
   4   6  -1   39.80    7.50
  -3  -6   1    6.10    6.10
   3  -6  -1    2.10    9.80
  -3  -6   1   -9.50    8.90
  -3  -6   1   -6.20   10.20
   3  -6  -1   10.10    7.80
   3   6  -1    5.90    5.00
   3   6  -1    4.00    7.70
   3   6  -1   -4.20   14.60
  -2  -6   1  332.77   26.30
   2  -6  -1  311.07   37.50
  -2  -6   1  419.56   33.80
  -2  -6   1  377.56   25.70
   2  -6  -1  343.77   31.50
  -2  -6   1  350.26   25.90
   2   6  -1  349.37   29.40
   2   6  -1  366.36   25.90
  -2   6   1  368.36   29.70
   2   6  -1  352.86   25.50
   2   6  -1  324.77   30.50
   2   6  -1  338.77   26.30
  -1  -6   1  675.03   54.29
  -1  -6   1  762.72   53.49
  -1  -6   1  808.62   53.49
   1   6  -1  868.61   53.89
  -1   6   1  859.81   54.19
   1   6  -1  840.52   53.89
   1   6  -1  643.04   54.39
   1   6  -1  714.53   54.29
   1   6  -1  808.42   53.79
   0  -6  -1   69.39    5.90
   0  -6   1   57.19    5.60
   0  -6   1   71.09    5.50
   0   6   1   53.59    8.00
   0   6  -1   54.59    7.20
   0   6   1   69.79    7.70
   0   6  -1   69.49    8.30
   0   6  -1   55.69    6.50
   0   6   1   73.79    6.70
  -1  -6  -1  496.45   39.70
  -1  -6  -1  579.64   38.90
   1   6   1  508.85   39.20
   1   6   1  574.14   39.10
  -1   6  -1  597.84   39.60
   1   6   1  586.34   39.10
  -2  -6  -1   21.50    6.30
  -2  -6  -1   31.20   13.00
  -2  -6  -1   17.80    4.70
   2  -6   1   11.40   12.20
  -2  -6  -1   12.20    4.80
  -2   6  -1   16.30   10.30
   2   6   1   10.60    3.80
  -2   6  -1   21.10   16.10
   2   6   1    8.70   10.40
   2   6   1   -7.20   16.00
   2   6   1   14.00    6.70
   2   6   1    9.30   14.40
   3  -6   1  136.49   18.70
   3  -6   1  152.38   20.70
  -3  -6  -1  135.19   19.50
  -3  -6  -1  142.09   26.50
  -3  -6  -1  131.79   12.80
   3   6   1  136.99   20.00
   3   6   1  114.59   14.60
   3   6   1  106.39   15.60
   4  -6   1   32.70    9.20
  -4  -6  -1   46.10    8.70
   4   6   1   57.69   10.10
  -4  -7   1    6.20    5.00
  -4  -7   1   13.10    5.30
   4  -7  -1   18.20    7.70
   4   7  -1    4.70    8.90
   4   7  -1    5.20    4.00
  -3  -7   1   48.70    8.90
   3  -7  -1   35.40    8.30
   3  -7  -1   71.39   16.40
  -3  -7   1   43.70   10.10
  -3  -7   1   51.69   14.90
  -3  -7   1   70.29   14.00
   3   7  -1   53.19    9.70
   3   7  -1   56.79   11.00
  -2  -7   1   -6.50   16.20
  -2  -7   1    2.20    4.70
   2  -7  -1   -2.90    8.10
  -2  -7   1    7.90    5.90
  -2  -7   1    2.60    4.20
  -2  -7   1   11.60   11.50
   2   7  -1   -5.00    4.80
   2   7  -1    3.30   11.20
   2   7  -1    6.80    4.70
   2   7  -1    8.40    5.30
   2   7  -1   14.90    9.20
  -1  -7   1   44.00    5.20
  -1  -7   1   36.90    4.90
   1   7  -1   29.90    6.60
   1   7  -1   26.60    6.60
   1   7  -1   40.30    6.20
   1   7  -1   36.80    5.60
  -1   7   1   24.80    7.20
   1   7  -1   26.20    6.50
   0  -7  -1  269.77   17.90
   0   7  -1  272.37   18.70
   0   7  -1  228.58   19.50
   0   7   1  213.28   19.30
   0   7   1  232.68   19.20
   0   7   1  262.07   19.90
   0   7   1  256.27   18.70
   0   7  -1  262.17   19.80
  -1  -7  -1   12.50    3.50
  -1  -7  -1   20.20    8.30
   1   7   1   15.20    7.20
  -1   7  -1   20.00    7.20
   1   7   1   12.40    5.60
   1   7   1   15.60    4.30
   1   7   1    7.70    6.70
  -2  -7  -1  109.59   16.30
  -2  -7  -1   75.19   10.00
   2  -7   1   81.19   13.70
  -2  -7  -1   81.69    9.30
  -2  -7  -1   68.59   20.00
   2   7   1   74.29    9.40
   2   7   1   75.49   14.80
   2   7   1   83.29   15.70
   2   7   1   64.69    9.80
   2   7   1   78.29   15.60
   2   7   1   61.29    8.70
  -3  -7  -1   20.00    6.50
  -3  -7  -1   -2.10    9.80
   3  -7   1    4.60    9.00
   3  -7   1   26.80   16.20
  -3  -7  -1   23.20   10.60
   3   7   1   20.40   13.20
   3   7   1    5.60    7.70
   3   7   1   15.50    7.70
  -4  -7  -1    6.00    6.00
   4   7   1   21.30    9.10
   4   7   1    5.20    4.70
  -4  -8   1   -1.50    6.00
   4  -8  -1    9.20    6.70
  -4  -8   1   -2.60    4.10
   4   8  -1   -1.90    8.60
   4   8  -1    0.60    3.20
  -3  -8   1    1.00   10.30
   3  -8  -1   13.70    6.80
  -3  -8   1    3.00    8.20
  -3  -8   1   -5.70    6.40
   3  -8  -1   -2.60   12.40
   3   8  -1   -7.50    5.60
   3   8  -1    2.00    5.90
   2  -8  -1   52.49    9.40
  -2  -8   1   45.50    9.40
  -2  -8   1   51.39    9.10
  -2  -8   1   44.80   12.60
  -2  -8   1   41.80    7.50
   2   8  -1   41.30    9.30
   2   8  -1   49.00    8.10
   2   8  -1   35.90   10.60
   2   8  -1   34.90    7.00
  -1  -8   1   42.90    5.70
  -1  -8   1   19.40   13.60
  -1  -8   1   43.50   11.80
  -1  -8   1   28.90    9.80
  -1  -8   1   43.60   10.70
  -1   8   1   35.50    9.20
   1   8  -1   32.60   10.50
   1   8  -1   44.40    6.90
   1   8  -1   43.20    7.00
   1   8  -1   41.90    9.90
   1   8  -1   35.90    6.40
   0  -8  -1   26.70    3.80
   0   8  -1   24.10    7.70
   0   8  -1   24.10    4.90
   0   8   1   20.50    6.00
   0   8  -1   34.70    6.20
   0   8   1    8.60    7.70
   0   8  -1   15.80    6.30
   0   8  -1   22.10    5.60
   0   8   1   17.50    4.70
  -1  -8  -1   12.80   10.30
  -1  -8  -1    6.70    3.50
   1  -8   1   39.80   15.60
  -1  -8  -1    5.10   15.70
  -1  -8  -1   15.60    9.80
  -1  -8  -1    4.80    3.40
   1   8   1   11.40   12.50
   1   8   1    2.90    3.80
   1   8   1   -0.40    4.80
   1   8   1   13.00   10.40
  -1   8  -1   10.80    9.40
   1   8   1   13.40    5.00
   1   8   1   -0.90    9.30
   1   8   1    7.00    6.00
  -2  -8  -1   15.90   12.60
  -2  -8  -1   13.90    4.70
   2  -8   1   21.90    9.40
   2   8   1   14.30    6.20
   2   8   1   10.20    8.30
   2   8   1   30.50   10.60
   2   8   1   12.30    5.40
   2   8   1   14.70    7.70
  -3  -8  -1   26.60   11.10
   3  -8   1   41.90    9.30
  -3  -8  -1   21.80   10.50
  -3  -8  -1   51.89    9.30
  -3  -8  -1   41.60    9.00
   3   8   1   26.00    9.30
   3   8   1   43.00   15.60
   3   8   1   50.59   10.00
  -4  -8  -1    9.20    4.20
  -4  -8  -1   10.50    6.40
   4   8   1    3.50    3.30
  -4  -9   1    2.30    4.30
   4  -9  -1   -4.90    7.20
   4   9  -1    2.30    8.60
  -3  -9   1  123.19   14.70
  -3  -9   1  112.09   12.70
  -3  -9   1  147.59   13.20
  -3  -9   1  142.09   15.30
   3  -9  -1  153.98   14.70
   3   9  -1  104.99   13.30
   3   9  -1  144.69   12.60
  -2  -9   1   51.59    7.80
   2  -9  -1   51.19    9.40
  -2  -9   1   59.19   10.10
  -2  -9   1   59.19   10.90
   2   9  -1   35.50    7.70
   2   9  -1   54.09    8.60
   2   9  -1   58.29   12.30
   2   9  -1   46.00    8.00
  -1  -9   1  304.47   27.10
  -1  -9   1  343.37   25.20
  -1  -9   1  296.67   21.50
  -1  -9   1  339.27   24.80
  -1  -9   1  300.17   21.50
   1  -9  -1  241.98   25.80
  -1  -9   1  289.47   31.10
   1  -9  -1  322.67   31.80
   1  -9  -1  306.87   24.30
   1   9  -1  252.97   22.40
   1   9  -1  301.17   22.40
  -1   9   1  292.17   23.10
   1   9  -1  300.47   22.40
   1   9  -1  299.97   24.80
   1   9  -1  293.97   23.00
   0  -9   1  723.83   58.09
   0  -9   1  884.11   60.09
   0  -9   1  814.42   54.59
   0  -9  -1  775.82   58.99
   0  -9   1  794.72   55.49
   0  -9  -1  804.22   54.59
   0  -9  -1  742.43   55.49
   0   9  -1  812.42   54.09
   0   9   1  701.53   54.29
   0   9   1  785.22   54.09
   0   9  -1  741.63   53.79
   0   9  -1  696.73   55.39
   0   9  -1  767.62   53.89
   0   9  -1  751.52   54.59
   0   9   1  788.42   55.39
   1  -9   1  125.19   19.00
  -1  -9  -1  133.19   15.60
  -1  -9  -1  111.89   10.00
  -1  -9  -1  116.39   20.20
   1  -9   1  108.49   15.50
  -1  -9  -1   80.29   16.70
  -1  -9  -1  133.29   15.00
   1   9   1  111.19   14.90
   1   9   1  143.79   11.80
   1   9   1  102.79   18.00
   1   9   1  105.69   11.90
   1   9   1  111.59   12.00
   1   9   1  117.49   11.30
  -2  -9  -1  191.08   19.00
  -2  -9  -1  223.38   16.30
  -2  -9  -1  202.98   17.40
  -2  -9  -1  203.48   16.50
   2  -9   1  202.68   20.70
  -2  -9  -1  207.68   20.20
   2   9   1  190.88   18.00
   2   9   1  192.38   16.50
   2   9   1  170.58   17.60
   2   9   1  192.68   18.20
   2   9   1  200.28   19.00
  -3  -9  -1   36.70    8.00
  -3  -9  -1   41.30    8.00
   3  -9   1   38.60    8.10
   3   9   1   27.20    6.30
   3   9   1   30.60    8.50
  -3 -10   1    8.90    6.90
  -3 -10   1   -1.30   10.40
  -3 -10   1   -3.20    8.40
   3 -10  -1   10.70    5.90
  -3 -10   1    8.70    5.70
   3  10  -1   12.00    5.50
   3  10  -1    8.80    4.60
  -2 -10   1  394.76   26.60
  -2 -10   1  334.87   27.20
  -2 -10   1  389.16   28.20
   2 -10  -1  348.97   28.90
  -2 -10   1  351.76   28.20
  -2 -10   1  364.96   28.20
   2  10  -1  405.36   27.10
   2  10  -1  359.36   27.30
   2  10  -1  315.47   28.40
   2  10  -1  367.76   27.90
   2  10  -1  368.36   28.00
  -1 -10   1  346.47   26.70
   1 -10  -1  322.77   28.60
  -1 -10   1  337.37   28.60
  -1 -10   1  369.26   27.40
   1 -10  -1  341.57   26.20
   1  10  -1  368.06   27.00
   1  10  -1  357.26   26.10
   1  10  -1  327.37   25.80
   1  10  -1  368.86   26.20
   1  10  -1  342.57   26.10
   0 -10  -1   61.39   11.60
   0 -10   1   51.69   10.00
   0 -10   1   41.40   17.70
   0 -10   1   52.19   11.70
   0 -10  -1   42.40    9.30
   0 -10   1   65.29    9.80
   0 -10  -1   59.19   10.30
   0  10  -1   41.50    9.30
   0  10   1   55.89   10.40
   0  10  -1   45.10    8.10
   0  10   1   68.69   10.90
   0  10   1   51.39    8.70
   0  10  -1   42.90   10.70
   0  10   1   32.20   10.20
   0  10  -1   54.69   10.80
   0  10  -1   45.70    9.10
   0  10   1   50.69    7.60
  -1 -10  -1 1135.39   73.49
  -1 -10  -1 1161.08   73.49
  -1 -10  -1 1087.59   74.69
   1 -10   1 1027.10   73.99
   1 -10   1 1043.70   74.19
  -1 -10  -1  975.70   71.79
  -1 -10  -1  890.41   75.99
   1 -10   1 1071.09   72.49
  -1  10  -1 1058.39   72.49
   1  10   1 1118.39   72.79
   1  10   1 1082.79   72.99
   1  10   1 1039.20   72.69
   1  10   1 1125.99   73.39
  -1  10  -1 1079.39   72.59
   1  10   1  978.80   73.29
   1  10   1  921.91   72.79
   2 -10   1    9.60    8.10
  -2 -10  -1   11.40    6.90
  -2 -10  -1    0.70    7.50
  -2 -10  -1    6.50    7.20
  -2 -10  -1    9.00    7.10
   2  10   1    8.20    6.40
   2  10   1    6.80    8.30
   2  10   1   19.50    8.10
   2  10   1    5.60    6.60
   2  10   1   -1.90    5.90
   3 -10   1  120.59   14.90
  -3 -10  -1  138.29   12.50
   3  10   1  131.49   13.80
   3  10   1  138.09   11.80
  -3 -11   1  226.88   19.20
  -3 -11   1  207.78   17.30
   3 -11  -1  244.48   18.40
   3  11  -1  220.48   17.20
   3  11  -1  229.68   16.70
  -2 -11   1   75.39   10.10
  -2 -11   1   88.59   10.70
  -2 -11   1   66.09   11.10
  -2 -11   1   56.79   13.10
   2 -11  -1   55.69   12.90
   2  11  -1   66.19   12.10
   2  11  -1   79.39   15.70
   2  11  -1   73.49    9.10
   2  11  -1   60.19   10.10
   2  11  -1   62.49   10.00
  -1 -11   1  259.87   21.50
   1 -11  -1  231.38   19.20
  -1 -11   1  265.77   20.90
   1 -11  -1  272.77   22.40
   1 -11  -1  218.48   22.10
  -1 -11   1  255.47   19.80
   1  11  -1  261.77   19.50
   1  11  -1  241.38   19.10
   1  11  -1  256.47   20.60
   1  11  -1  202.68   20.20
   1  11  -1  277.77   20.70
  -1  11   1  213.98   22.20
   0 -11   1 1385.26   93.19
   0 -11   1 1431.86   93.69
   0 -11  -1 1314.67   94.89
   0 -11  -1 1446.66   93.69
   0 -11   1 1304.17   94.79
   0 -11  -1 1378.36   93.19
   0  11   1 1392.66   92.99
   0  11  -1 1289.77   93.49
   0  11  -1 1389.16   93.19
   0  11   1 1357.36   93.09
   0  11  -1 1313.87   92.89
   0  11  -1 1309.47   93.99
   0  11   1 1305.57   93.99
   0  11   1 1333.37   93.59
   1 -11   1  248.78   20.70
   1 -11   1  237.88   21.60
  -1 -11  -1  242.68   19.70
  -1 -11  -1  230.48   19.00
  -1 -11  -1  243.98   21.90
   1 -11   1  212.08   17.90
  -1 -11  -1  218.28   17.00
   1  11   1  241.28   18.20
  -1  11  -1  198.18   18.70
   1  11   1  217.98   18.10
  -1  11  -1  251.07   18.00
   1  11   1  207.18   19.20
   1  11   1  219.28   21.20
   1  11   1  224.38   19.30
   1  11   1  235.18   19.60
  -2 -11  -1  237.48   19.00
  -2 -11  -1  234.68   18.50
  -2 -11  -1  201.48   20.40
   2 -11   1  254.27   21.00
  -2 -11  -1  223.08   19.60
  -2 -11  -1  242.48   19.20
   2  11   1  250.17   19.10
   2  11   1  244.38   19.00
  -2  11  -1  221.88   20.00
   2  11   1  265.07   19.00
   2  11   1  234.78   19.00
   2  11   1  181.38   24.80
   3 -11   1   29.10    6.50
  -3 -11  -1   30.00    5.50
  -3 -11  -1   21.90    5.10
  -3 -11  -1   19.40    8.50
   3  11   1   35.20    5.80
   3 -12  -1    6.10    4.30
  -3 -12   1    0.70    2.90
  -3 -12   1   -4.30    5.10
  -3 -12   1    8.00    5.50
   3  12  -1   -3.80    3.90
   3  12  -1   -6.60    3.70
  -2 -12   1  154.98   13.30
   2 -12  -1  171.98   15.00
  -2 -12   1  168.38   13.20
  -2 -12   1  120.69   13.30
  -2 -12   1  126.99   13.60
   2  12  -1  160.18   13.10
   2  12  -1  122.09   14.70
  -2  12   1  165.38   13.90
   2  12  -1  151.28   12.50
  -1 -12   1   39.60    7.80
   1 -12  -1   29.80    8.10
   1 -12  -1   23.30    5.40
  -1 -12   1   23.70    7.90
  -1 -12   1   33.60    7.10
   1  12  -1   30.90    8.70
   1  12  -1   28.80    5.60
   1  12  -1   43.70    8.20
   1  12  -1   42.00    7.70
  -1  12   1   38.10    6.70
   1  12  -1   59.89   12.20
  -1  12   1   42.60    6.60
  -1  12   1   19.60    8.60
   0 -12   1   22.20    6.30
   0 -12   1    9.60    7.40
   0 -12   1   17.80    4.80
   0 -12  -1    6.90    6.10
   0 -12  -1    8.90    7.50
   0 -12  -1   23.60    5.30
   0  12   1   23.80   11.20
   0  12  -1   19.30    5.40
   0  12   1   15.30    5.50
   0  12  -1   13.30    6.20
   0  12  -1   13.10   11.50
   0  12   1   24.20    6.60
   0  12   1    7.70    4.60
   0  12  -1   19.20    5.80
   1 -12   1  515.25   37.40
  -1 -12  -1  514.85   37.10
  -1 -12  -1  545.45   37.40
  -1 -12  -1  499.25   38.50
   1 -12   1  586.24   39.10
  -1  12  -1  461.15   37.90
   1  12   1  563.74   38.20
   1  12   1  560.04   37.50
   1  12   1  526.55   37.20
  -1  12  -1  543.75   36.90
   1  12   1  451.65   38.20
  -1  12  -1  443.16   37.00
   1  12   1  522.95   36.90
  -2 -12  -1   21.90    7.70
  -2 -12  -1    6.60    6.80
   2  12   1   19.00    5.80
   2  12   1    8.80    7.20
  -2  12  -1   23.90    7.20
   2  12   1   24.30    5.30
   2  12   1   40.40    8.40
  -3 -12  -1   60.69    6.60
  -3 -12  -1   69.79   10.00
   3  12   1   48.20    7.70
   3  12   1   56.09    6.10
  -2 -13   1   18.20    4.00
  -2 -13   1   22.10    5.00
  -2 -13   1   28.00    5.60
  -2  13   1   21.30    6.60
   2  13  -1   14.90    4.30
  -1 -13   1   80.49    8.00
  -1 -13   1   84.69    9.00
  -1 -13   1   67.79   11.70
   1 -13  -1   80.49   11.10
   1  13  -1   93.99    9.10
   1  13  -1   82.59   10.00
  -1  13   1   60.99    9.20
  -1  13   1   97.09    9.50
   1  13  -1   79.89    8.80
  -1  13   1   70.19   12.10
   0 -13  -1  227.98   17.20
   0 -13   1  210.38   17.00
   0 -13   1  205.48   20.60
   0 -13  -1  230.38   18.00
   0 -13  -1  211.68   20.60
   0 -13   1  219.08   18.10
   0  13  -1  211.48   17.90
   0  13   1  250.37   18.10
   0  13   1  228.28   18.10
   0  13   1  235.68   17.70
   0  13  -1  265.47   17.90
   0  13  -1  220.88   18.00
  -1 -13  -1   32.50    7.20
   1 -13   1   26.60    6.00
  -1 -13  -1   22.90    4.70
   1  13   1   14.40    8.80
   1  13   1   29.10    6.80
   1  13   1   28.50    5.30
  -1  13  -1    8.40    7.60
  -2 -13  -1   62.19    7.30
  -2 -13  -1   71.29    8.90
  -2 -13  -1   70.69    7.70
   2  13   1   76.29    8.30
   2  13   1   79.39   10.70
   2  13   1   72.79    7.60
  -2  13  -1   93.89   10.30
  -2 -14   1   19.00    4.80
  -2 -14   1   15.70    3.30
   2  14  -1   14.40    3.20
   2  14  -1   10.00    3.60
   1 -14  -1   27.20    6.20
  -1 -14   1   32.70    5.40
  -1 -14   1   32.10    6.10
  -1  14   1   35.00    6.10
   1  14  -1   35.60    6.00
   1  14  -1   24.40    7.60
   0 -14  -1   18.60    5.90
   0 -14   1   32.00    6.70
   0 -14   1   16.80    3.40
   0 -14  -1   17.00    3.60
   0 -14  -1   15.10    4.80
   0  14  -1   16.50    4.80
   0  14   1   20.30    4.90
   0  14   1   18.50    5.20
   0  14  -1   23.20    5.20
   1 -14   1   43.60    7.10
  -1 -14  -1   26.60    5.20
  -1 -14  -1   31.60    6.00
   1 -14   1   37.90    7.30
   1  14   1   30.40    9.70
  -1  14  -1   23.30    6.30
   1  14   1   29.20    5.90
  -2  14  -1   12.40    6.50
   1 -15  -1    3.40    3.90
  -1 -15   1    0.70    2.10
  -1 -15   1    1.60    2.80
   1  15  -1   11.40    3.70
  -1  15   1    2.10    4.10
   1  15  -1    3.80    3.00
  -1  15   1   -4.20    5.60
   0 -15  -1    1.80    3.40
   0 -15   1    2.80    2.30
   0 -15   1    3.00    3.10
   0 -15  -1    0.40    2.40
   0  15   1    7.60    4.80
   0  15  -1    5.80    4.60
   0  15  -1    4.30    3.10
   0  15  -1    2.00    5.30
   0  15   1    7.30    4.00
   0  15   1    5.70    3.50
   1 -15   1   -3.00    3.90
  -1 -15  -1   -0.40    2.90
  -1 -15  -1    3.80    2.30
  -1  15  -1    5.10    4.20
   1  15   1   -0.20    3.30
   1  15   1    2.20    3.00
   4   0  -2  176.18   17.60
  -4   0   2  148.69   19.80
   4   0  -2  176.38   16.80
   3   0  -2 1853.21  131.99
   3   0  -2 1971.20  134.09
   3   0  -2 1919.71  132.49
   3   0  -2 2011.40  134.19
  -2   0   2   10.00    3.60
   2   0  -2    4.10    4.10
   2   0  -2    7.60    4.30
  -2   0   2    5.60    3.10
   1   0  -2 8430.26  550.74
  -1   0   2 7838.32  550.64
  -1   0  -2 8687.83  587.54
  -2   0  -2 2330.37  157.88
   3   0   2   10.40   10.60
   3   0   2   11.10    8.00
   3   0   2    3.40   10.60
   4   0   2  263.67   21.70
   4  -1  -2  173.58   16.70
  -4  -1   2  142.99   18.90
   4  -1  -2  185.98   18.20
  -4   1   2  206.78   21.20
   4   1  -2  181.38   18.70
   4   1  -2  179.18   17.50
   3  -1  -2  173.38   20.60
   3  -1  -2  185.68   18.50
   3   1  -2  163.88   14.00
   3   1  -2  171.28   15.50
   3   1  -2  145.09   19.50
  -2  -1   2 3043.10  202.68
  -2  -1   2 3184.58  202.58
   2  -1  -2 3060.29  202.48
   2   1  -2 2929.21  202.78
  -2   1   2 2627.34  202.58
   2   1  -2 3057.79  202.48
   1  -1  -2  438.06   27.90
  -1  -1   2  418.76   27.80
  -1  -1   2  427.16   27.90
   1   1  -2  375.46   27.60
  -1   1   2  411.86   27.90
  -1   1   2  399.36   27.70
   1   1  -2  378.16   27.40
  -1   1   2  427.96   27.60
   1   1  -2  337.77   27.80
   1   1  -2  414.86   27.90
   0  -1   2  513.45   34.70
   0  -1  -2  451.95   34.90
   0  -1   2  502.25   34.80
   0  -1  -2  515.75   34.80
   0  -1   2  511.75   34.70
   0   1   2  522.55   34.80
   0   1   2  520.85   34.70
   0   1  -2  522.45   34.70
   0   1   2  529.05   34.80
  -1  -1  -2 9999.00  676.33
  -2  -1  -2  431.26   31.10
  -2  -1  -2  409.76   29.70
  -2   1  -2  463.15   30.20
   3  -1   2  911.61   64.69
  -3  -1  -2  892.71   64.79
   3  -1   2  935.41   65.69
   3   1   2  917.81   66.39
   3   1   2  939.21   64.59
   3   1   2  932.21   66.09
  -4  -1  -2   27.20   12.60
   4   1   2   46.70   10.40
   4   1   2   35.20    7.20
  -4  -2   2   59.89   11.20
   4   2  -2   53.59    9.10
   4   2  -2   64.49   12.40
   3  -2  -2  581.04   42.10
   3  -2  -2  568.94   41.70
   3   2  -2  573.24   43.00
   3   2  -2  554.74   40.10
   3   2  -2  518.95   39.30
  -2  -2   2  120.79    9.30
  -2  -2   2  107.49    9.20
  -2   2   2  104.09    9.50
   2   2  -2  116.69   10.20
  -2   2   2  102.79    8.20
   1  -2  -2 1844.42  139.19
  -1  -2   2 2239.78  139.29
  -1  -2   2 2269.57  139.29
  -1  -2   2 2145.59  139.29
   1   2  -2 1925.31  139.19
   1   2  -2 1801.22  139.29
   1   2  -2 1977.30  138.89
  -1   2   2 2158.58  139.29
  -1   2   2 2226.98  139.09
   1   2  -2 2176.78  139.29
  -1   2   2 1806.32  139.09
   0  -2   2 1449.65   89.39
   0  -2  -2 1191.98   89.49
   0  -2  -2 1234.18   89.49
   0  -2  -2 1380.06   89.39
   0  -2   2 1338.27   89.29
   0   2  -2 1199.48   89.39
   0   2   2 1444.16   89.39
   0   2   2 1194.58   89.69
   0   2  -2 1355.06   89.39
   0   2   2 1374.66   89.39
  -1  -2  -2  659.23   51.89
  -1  -2  -2  638.94   52.19
  -1  -2  -2  832.12   51.69
   1   2   2  729.53   51.49
   1   2   2  817.52   51.69
   1   2   2  867.01   51.69
  -2  -2  -2  551.54   38.30
  -2  -2  -2  488.65   35.80
  -2  -2  -2  464.05   34.70
  -2   2  -2  536.55   34.80
  -2   2  -2  501.05   35.50
  -3  -2  -2   30.80    8.90
   3  -2   2   32.90   10.20
   3   2   2   24.30   11.00
   3   2   2   15.40   11.90
   3   2   2   20.70    8.40
  -4  -2  -2   81.09   15.50
   4   2   2   91.79   13.40
   4   2   2  107.49   10.80
   4  -3  -2   22.50    7.40
  -4  -3   2   14.40    8.30
   4  -3  -2   11.50    7.30
   4   3  -2   15.70    9.90
   4   3  -2    0.90    9.40
   4   3  -2   13.80    6.30
   3  -3  -2   12.40    7.40
  -3  -3   2    0.40    8.30
   3  -3  -2    1.50    8.30
   3   3  -2   15.00    6.80
   3   3  -2   14.30   12.60
   3   3  -2   19.70    4.70
  -2  -3   2  116.69    9.40
  -2  -3   2  114.69   10.80
  -2  -3   2  117.49   13.10
  -2   3   2  117.59    9.50
   2   3  -2  118.59   10.30
   2   3  -2  107.59   11.40
   2   3  -2  100.99    8.50
  -2   3   2  104.69   10.60
  -1  -3   2   71.79    6.10
   1  -3  -2   58.59    6.10
  -1  -3   2   78.49    5.80
   1   3  -2   67.59    5.60
   1   3  -2   73.59    6.00
  -1   3   2   71.89    6.10
  -1   3   2   72.59    6.10
  -1   3   2   61.99    6.30
   1   3  -2   62.59    6.10
   1   3  -2   67.49    6.50
   0  -3  -2 1033.00   77.49
   0  -3  -2 1069.19   77.49
   0  -3  -2 1202.98   77.49
   0  -3   2 1190.88   77.29
   0  -3   2 1124.99   77.19
   0   3   2 1216.58   77.49
   0   3  -2 1027.10   77.39
   0   3   2 1223.28   77.49
   0   3   2 1152.48   77.59
  -1  -3  -2  211.98   14.00
  -1  -3  -2  192.18   14.80
  -1  -3  -2  175.88   14.40
   1   3   2  168.08   14.00
   1   3   2  198.58   13.90
   1   3   2  222.58   14.10
   1   3   2  206.48   14.10
  -2  -3  -2   33.10    6.70
  -2  -3  -2   47.20    9.50
  -2  -3  -2   26.50    7.90
  -2   3  -2   37.70    5.50
  -2   3  -2   37.30    6.00
  -3  -3  -2  161.28   15.00
   3  -3   2  162.58   17.30
   3   3   2  126.99   15.40
   3   3   2  125.69   18.70
   3   3   2  131.59   20.70
   3   3   2  153.38   15.70
  -4  -3  -2    3.40    9.00
   4  -3   2    2.60    6.70
   4   3   2   -9.10    8.50
   4   3   2    5.10    5.40
   4  -4  -2   14.40    7.50
  -4  -4   2    5.30    6.90
   4  -4  -2   15.50    6.90
   4   4  -2    4.40   10.30
   4   4  -2   22.20    6.40
   4   4  -2   18.50   11.30
   4   4  -2    5.60    4.80
   3  -4  -2   13.50    7.90
  -3  -4   2   -4.90    7.60
   3  -4  -2   12.10    9.20
  -3  -4   2   16.70    7.50
   3   4  -2   24.50    7.10
   3   4  -2    8.90    4.60
   3   4  -2   14.40   13.90
  -2  -4   2   19.90    3.60
  -2  -4   2   17.30    6.40
  -2  -4   2   12.40    4.20
   2   4  -2   15.20    3.60
  -2   4   2    4.60    5.20
   2   4  -2   14.50    4.00
  -1  -4   2  215.88   15.10
   1  -4  -2  188.08   15.40
  -1  -4   2  217.68   14.90
   1   4  -2  211.28   15.00
   1   4  -2  208.98   15.40
  -1   4   2  204.38   15.50
  -1   4   2  192.38   15.50
   1   4  -2  201.58   15.30
   1   4  -2  206.68   15.30
  -1   4   2  212.88   15.50
   0  -4   2   33.10    3.50
   0  -4   2   34.50    3.30
   0  -4  -2   39.80    4.20
   0  -4   2   33.80    5.50
   0  -4  -2   35.70    3.80
   0  -4  -2   32.80    4.80
   0   4  -2   36.40    5.30
   0   4   2   33.80    4.30
   0   4  -2   33.00    3.80
   0   4   2   24.80    5.30
   0   4   2   34.50    4.00
  -1  -4  -2   84.19    7.30
  -1  -4  -2   81.59    7.80
  -1  -4  -2   72.69    7.50
   1   4   2   85.09    7.20
  -1   4  -2  103.99    7.90
   1   4   2   84.39    7.40
   1   4   2   92.29    7.20
  -2  -4  -2   78.19    9.90
  -2  -4  -2   71.59   10.70
  -2  -4  -2   71.89    8.80
   2   4   2   67.99    6.30
   2   4   2   80.39   11.40
  -2   4  -2   67.69    9.20
  -2   4  -2   72.99   10.70
  -3  -4  -2   12.80    6.90
   3  -4   2    5.30    9.70
  -3  -4  -2   -5.40   15.80
   3   4   2  -13.30   10.20
   3   4   2   -5.60    6.80
   3   4   2   -1.70   13.50
   3   4   2    2.80    7.90
   4  -4   2    5.20    7.40
  -4  -4  -2    1.50    7.70
   4   4   2   -0.70    9.40
   4   4   2   -4.40    5.50
  -4  -5   2   54.59   11.70
   4  -5  -2   59.69   11.50
  -4  -5   2   56.69    9.60
   4  -5  -2   56.59   10.00
   4   5  -2   66.69   13.10
   4   5  -2   49.70    8.30
   4   5  -2   66.09   13.90
   3  -5  -2   15.80    7.70
  -3  -5   2   14.20    6.90
   3  -5  -2    8.90    9.70
  -3  -5   2   -4.40    8.00
   3   5  -2   22.80   14.10
   3   5  -2    7.60    4.30
   3   5  -2    5.70    7.20
  -2  -5   2  489.45   33.70
  -2  -5   2  418.26   33.90
   2  -5  -2  484.45   37.70
  -2  -5   2  536.25   33.40
   2   5  -2  469.45   33.30
  -2   5   2  433.96   35.80
   2   5  -2  449.36   33.60
  -2   5   2  455.15   34.90
   2   5  -2  515.65   37.20
   2   5  -2  469.95   33.00
  -1  -5   2  341.87   23.60
  -1  -5   2  335.77   23.70
   1   5  -2  312.17   23.90
  -1   5   2  347.77   24.30
  -1   5   2  341.37   24.50
  -1   5   2  330.57   24.30
   1   5  -2  320.57   23.70
   1   5  -2  327.07   25.10
   1   5  -2  349.37   24.00
   0  -5  -2  744.03   54.49
   0  -5   2  778.52   53.49
   0  -5  -2  844.22   53.69
   0   5  -2  691.73   53.99
   0   5   2  794.62   54.09
   0   5  -2  741.73   53.79
   0   5  -2  890.91   54.19
   0   5   2  802.32   53.89
   0   5   2  760.22   54.09
  -1  -5  -2  535.15   39.80
  -1  -5  -2  528.05   39.10
  -1  -5  -2  569.54   39.20
   1   5   2  556.14   39.10
   1   5   2  601.44   39.10
   1   5   2  552.94   39.10
  -1   5  -2  591.44   39.50
  -2  -5  -2   10.60    4.50
  -2  -5  -2    2.70    5.10
  -2  -5  -2   12.10    6.20
   2   5   2   14.10   11.20
   2   5   2    9.20    7.00
  -2   5  -2   18.80   11.00
  -2   5  -2    6.50    7.40
   2   5   2   21.60   14.40
  -3  -5  -2  179.88   15.20
   3  -5   2  158.88   18.90
   3  -5   2  197.08   31.70
  -3  -5  -2  178.68   20.40
   3   5   2  146.79   16.70
   3   5   2  157.68   18.50
   3   5   2  146.19   22.30
   3   5   2  137.39   17.30
  -4  -5  -2    1.90    6.60
   4  -5   2   13.20    8.00
   4   5   2    8.40    5.80
   4   5   2   17.10    9.50
  -4  -6   2   76.39    9.00
   4  -6  -2   55.69   10.10
   4  -6  -2   69.89   11.30
  -4  -6   2   51.69   10.80
   4   6  -2   58.09   11.40
   4   6  -2   86.89   20.00
   4   6  -2   66.09   15.20
   4   6  -2   59.89    7.90
   3  -6  -2  456.55   33.60
   3  -6  -2  477.85   34.10
  -3  -6   2  378.66   33.60
  -3  -6   2  412.96   32.70
  -3  -6   2  439.76   31.50
   3   6  -2  394.56   31.30
   3   6  -2  452.95   37.70
   3   6  -2  440.86   32.50
   2  -6  -2   73.59   17.80
   2  -6  -2   87.89   17.30
  -2  -6   2   49.80   15.00
  -2  -6   2   51.69    7.70
  -2  -6   2   54.99    9.30
  -2  -6   2   63.69    7.20
   2   6  -2   47.30   12.80
   2   6  -2   48.90    7.80
   2   6  -2   74.29   11.90
   2   6  -2   50.09    8.90
   2   6  -2   49.50    7.90
  -1  -6   2 2161.38  146.19
  -1  -6   2 2257.87  146.19
  -1  -6   2 1958.80  146.49
  -1   6   2 2289.47  146.79
   1   6  -2 2182.58  146.39
   1   6  -2 2247.98  146.29
  -1   6   2 1974.00  146.79
   1   6  -2 2100.59  146.59
   1   6  -2 2156.38  146.39
   0  -6  -2 1577.74  102.09
   0  -6   2 1512.85  101.99
   0   6   2 1530.95  102.49
   0   6   2 1445.66  102.69
   0   6   2 1531.25  102.79
   0   6  -2 1610.84  102.89
   0   6  -2 1317.27  102.59
   0   6  -2 1478.35  102.49
  -1  -6  -2  427.96   32.40
  -1  -6  -2  406.46   32.70
  -1  -6  -2  481.95   31.90
   1   6   2  485.05   32.00
   1   6   2  445.16   32.40
  -1   6  -2  476.35   32.70
   1   6   2  438.56   32.00
  -2  -6  -2  839.62   61.29
  -2  -6  -2  939.21   59.59
  -2  -6  -2  888.81   59.29
   2   6   2  925.11   62.49
   2   6   2  688.83   61.09
   2   6   2  765.62   60.09
   2   6   2  823.92   58.59
   2   6   2  933.21   58.89
  -3  -6  -2    1.60    6.10
  -3  -6  -2    0.80   10.00
   3  -6   2   -1.80   12.10
   3  -6   2   18.50   12.40
   3   6   2   13.90    8.10
   3   6   2    5.50   13.10
   3   6   2   -8.70    8.10
   4  -6   2   74.59   13.30
   4   6   2  119.49   13.10
   4  -7  -2  110.99   11.60
   4   7  -2  112.19    9.70
   4   7  -2  114.49   19.70
   4   7  -2   95.99   12.50
  -3  -7   2   68.89   14.60
   3  -7  -2  103.29   15.30
  -3  -7   2   91.29   14.40
  -3  -7   2   82.49   10.40
   3   7  -2   89.99   12.00
   3   7  -2   66.59   10.30
  -2  -7   2 1074.39   70.69
  -2  -7   2  924.11   68.29
  -2  -7   2  986.20   68.19
  -2  -7   2  952.30   68.19
  -2  -7   2 1115.59   72.39
   2  -7  -2  853.21   69.69
   2   7  -2  944.91   68.59
   2   7  -2  972.70   69.69
   2   7  -2 1103.79   68.39
   2   7  -2  950.10   69.69
  -1  -7   2  502.75   39.40
  -1  -7   2  574.94   38.00
  -1  -7   2  559.34   38.10
   1   7  -2  451.25   38.50
  -1   7   2  550.34   40.20
   1   7  -2  586.74   38.50
  -1   7   2  599.84   39.90
   1   7  -2  536.95   39.20
   1   7  -2  624.64   38.50
  -1   7   2  450.35   41.90
   0  -7  -2 3837.92  237.18
   0   7  -2 3614.94  237.78
   0   7   2 3421.56  237.78
   0   7  -2 3820.52  238.28
   0   7  -2 3193.48  237.88
   0   7   2 3536.65  238.18
   0   7  -2 3343.47  237.68
   0   7   2 3741.23  237.78
   0   7   2 3013.20  237.58
   0   7  -2 3478.25  237.88
  -1  -7  -2 1086.69   87.29
  -1  -7  -2 1429.16   87.19
  -1  -7  -2 1406.76   86.99
   1   7   2 1167.48   87.89
  -1   7  -2 1365.06   88.09
   1   7   2 1120.79   87.59
   1   7   2 1245.78   87.59
   1   7   2 1317.67   87.29
   1   7   2 1288.07   87.29
  -2  -7  -2  124.69   12.30
  -2  -7  -2  142.59   17.60
  -2  -7  -2  187.78   28.00
  -2  -7  -2  135.59   12.10
   2  -7   2  103.59   24.30
   2   7   2  137.09   21.70
   2   7   2  112.09   11.60
   2   7   2  126.09   11.10
   2   7   2  104.49   17.00
   2   7   2   84.29   15.50
  -3  -7  -2  564.24   41.40
  -3  -7  -2  541.65   39.10
  -3  -7  -2  554.94   40.20
   3  -7   2  581.84   43.40
  -3  -7  -2  523.85   40.90
   3   7   2  476.65   40.20
   3   7   2  584.94   42.20
  -4  -7  -2   25.60    6.70
   4   7   2   15.20    5.20
   4   7   2   26.80    8.60
  -4  -8   2   47.10    7.00
   4   8  -2   32.90    7.40
  -3  -8   2  410.86   27.70
   3  -8  -2  405.56   29.20
  -3  -8   2  359.86   28.70
  -3  -8   2  313.97   28.00
   3   8  -2  414.26   27.80
   3   8  -2  318.77   27.70
  -2  -8   2   -1.00    4.50
  -2  -8   2   10.20   10.80
  -2  -8   2    8.80    4.50
   2  -8  -2    2.70    7.40
  -2  -8   2    2.90    6.10
  -2  -8   2   -2.60    7.20
  -2  -8   2    6.90    9.40
   2   8  -2   -1.70    8.50
   2   8  -2   -5.40    5.60
   2   8  -2   17.10    8.80
   2   8  -2    3.10    4.80
  -1  -8   2 1736.73  122.59
  -1  -8   2 1754.72  120.79
  -1  -8   2 1817.92  122.09
   1  -8  -2 1825.92  121.59
  -1  -8   2 1940.81  122.29
  -1   8   2 1627.84  121.09
   1   8  -2 1760.32  121.99
   1   8  -2 1722.23  121.29
   1   8  -2 1756.42  121.09
   1   8  -2 1766.12  121.19
   0  -8   2  705.83   59.09
   0  -8  -2  819.12   52.39
   0  -8   2  795.12   55.59
   0  -8  -2  827.52   54.59
   0  -8   2  852.01   54.89
   0   8  -2  766.82   53.49
   0   8  -2  731.93   54.29
   0   8  -2  752.72   53.79
   0   8  -2  711.03   53.29
   0   8   2  723.83   54.99
   0   8   2  783.12   53.39
   0   8   2  692.53   52.99
   0   8   2  748.63   53.69
   0   8  -2  784.92   53.29
   1  -8   2  295.47   29.20
  -1  -8  -2  312.77   25.60
  -1  -8  -2  287.37   20.60
  -1  -8  -2  287.77   25.80
   1   8   2  276.97   25.60
   1   8   2  303.17   30.50
   1   8   2  262.17   22.00
   1   8   2  268.07   22.30
   1   8   2  289.97   21.40
   1   8   2  270.17   24.50
   1   8   2  286.27   21.60
  -2  -8  -2  958.30   63.09
  -2  -8  -2 1002.90   63.19
   2  -8   2  849.61   65.49
  -2  -8  -2  858.61   63.99
  -2  -8  -2  829.12   62.89
  -2  -8  -2  988.00   66.49
   2   8   2  930.81   63.09
   2   8   2  891.91   64.79
   2   8   2  827.72   63.89
   2   8   2  996.00   65.69
   2   8   2  847.82   63.09
  -3  -8  -2    7.00    6.30
  -3  -8  -2   19.40    7.70
   3  -8   2   -6.90    8.90
  -3  -8  -2   -4.10   11.00
   3   8   2    3.90    9.90
   3   8   2    3.80    7.10
   3   8   2    8.80   11.60
  -4  -8  -2   77.89   10.60
   4   8   2   68.59    7.50
  -4  -9   2   47.10    6.20
   4  -9  -2   51.59    9.00
   4   9  -2   67.49    9.30
  -3  -9   2   99.79   11.80
   3  -9  -2  130.59   13.00
  -3  -9   2  108.69   11.80
  -3  -9   2   99.69   14.20
  -3  -9   2   73.79   16.60
   3   9  -2  115.89   11.00
  -2  -9   2  351.36   25.70
  -2  -9   2  388.16   28.30
  -2  -9   2  338.67   26.80
  -2  -9   2  339.67   27.60
  -2  -9   2  350.96   28.00
   2  -9  -2  303.47   28.40
   2   9  -2  390.06   26.20
   2   9  -2  328.47   26.50
   2   9  -2  361.36   27.90
   2   9  -2  349.27   27.60
  -1  -9   2   55.69    6.00
   1  -9  -2   59.39   16.60
  -1  -9   2   62.09   10.20
  -1  -9   2   40.30    6.60
  -1  -9   2   78.99   15.20
  -1  -9   2   50.79    8.90
   1  -9  -2   60.29    9.30
   1  -9  -2   65.69   14.90
   1   9  -2   43.80    9.10
   1   9  -2   54.09   10.10
   1   9  -2   47.90    8.20
  -1   9   2   40.70    9.50
   1   9  -2   50.59    7.90
   1   9  -2   37.40    8.50
   0  -9   2  466.15   33.80
   0  -9   2  439.56   38.40
   0  -9  -2  476.95   34.10
   0  -9   2  466.15   34.90
   0  -9  -2  480.75   35.40
   0  -9  -2  475.05   40.10
   0   9  -2  428.86   35.40
   0   9  -2  455.05   33.20
   0   9   2  477.95   38.30
   0   9  -2  479.55   33.20
   0   9  -2  430.86   32.80
   0   9   2  458.75   35.40
   0   9  -2  417.96   34.00
   0   9   2  440.36   34.10
   0   9   2  477.65   33.30
   1  -9   2  729.53   50.39
   1  -9   2  649.14   50.29
  -1  -9  -2  749.82   48.70
  -1  -9  -2  678.13   48.90
   1  -9   2  693.43   48.30
  -1  -9  -2  662.53   46.70
   1   9   2  693.33   47.70
   1   9   2  674.03   47.50
  -1   9  -2  636.74   47.40
   1   9   2  622.24   48.90
   1   9   2  687.53   48.50
   1   9   2  630.34   47.50
   1   9   2  665.43   47.60
  -2  -9  -2   67.79   10.10
  -2  -9  -2   43.40   10.50
   2  -9   2   63.19   10.70
  -2  -9  -2   52.19   10.80
  -2  -9  -2   50.39    9.10
   2   9   2   63.09    9.80
   2   9   2   41.20    8.00
   2   9   2   40.60    8.40
   2   9   2   49.99   10.80
   2   9   2   57.99    9.30
   3  -9   2  154.98   19.20
  -3  -9  -2  167.08   15.30
  -3  -9  -2  148.49   14.90
   3   9   2  174.78   14.50
  -3 -10   2   59.29   11.80
  -3 -10   2   53.49    8.60
   3  10  -2   38.60    8.00
   3  10  -2   55.29    7.50
  -2 -10   2   12.30    7.40
  -2 -10   2   -2.30    7.30
  -2 -10   2    3.40    7.20
  -2 -10   2   10.10    6.40
   2 -10  -2    1.90    6.90
  -2 -10   2   -0.40    4.50
   2  10  -2   13.00    8.00
   2  10  -2   -0.50    7.10
  -2  10   2   -2.00    9.40
   2  10  -2    1.20    7.90
   2  10  -2    6.40    5.60
   2  10  -2   -0.20    5.20
   1 -10  -2  117.09   21.10
  -1 -10   2  131.39   16.00
  -1 -10   2  111.29   13.00
   1 -10  -2   95.39   16.10
  -1 -10   2  127.79   14.10
   1 -10  -2  139.59   12.90
  -1 -10   2  115.99   10.00
  -1  10   2  118.89   11.80
   1  10  -2  120.89   12.00
   1  10  -2  106.49   12.40
   1  10  -2  117.69   11.80
   1  10  -2   95.99   11.90
   1  10  -2  117.79   13.70
   0 -10  -2   36.60    7.60
   0 -10   2   38.80    6.90
   0 -10   2   81.59   18.50
   0 -10  -2   48.80    9.80
   0 -10   2   57.69    9.40
   0 -10  -2   52.39   11.50
   0  10   2   55.19   10.70
   0  10  -2   37.50    7.70
   0  10   2   27.90    9.50
   0  10  -2   52.09    7.40
   0  10  -2   44.60    9.30
   0  10   2   43.80    9.50
   0  10  -2   48.10    8.20
   1 -10   2   97.29   17.30
  -1 -10  -2  106.69   23.00
  -1 -10  -2  109.09   19.50
  -1 -10  -2   92.79   12.90
   1 -10   2   79.39   11.20
  -1 -10  -2   60.79    8.90
   1 -10   2   77.29   14.70
  -1 -10  -2  100.59   12.20
  -1 -10  -2   79.59    8.50
   1  10   2   65.19   13.80
  -1  10  -2   63.59   12.40
  -1  10  -2   82.19   10.10
   1  10   2   77.09   10.00
   1  10   2   88.89   12.40
   1  10   2   94.39   10.60
   1  10   2   74.89   10.60
   1  10   2   71.69   10.30
  -2 -10  -2  240.68   19.70
   2 -10   2  253.07   22.20
  -2 -10  -2  187.98   18.90
  -2 -10  -2  248.58   20.10
   2  10   2  235.88   18.70
   2  10   2  240.68   20.00
   2  10   2  216.08   19.10
   2  10   2  206.58   21.10
   2  10   2  239.78   19.80
  -3 -10  -2    1.90   10.50
  -3 -10  -2    8.30    5.30
   3 -10   2   -7.50    7.30
  -3 -10  -2    0.00    5.40
   3  10   2   -2.10    6.80
   3  10   2    2.60    4.40
  -3 -11   2    0.10    4.30
   3 -11  -2   -2.50    4.70
  -3 -11   2   10.70    7.30
   3  11  -2   -6.40    4.20
   2 -11  -2   47.10   11.30
  -2 -11   2   44.00    9.00
  -2 -11   2   25.50    6.50
  -2 -11   2   28.40   15.20
  -2 -11   2   27.20    7.00
   2  11  -2   28.40    6.10
   2  11  -2   39.60    9.00
   2  11  -2   26.30    6.50
   2  11  -2   32.00    6.70
   2  11  -2   52.49   13.30
  -1 -11   2   12.60    7.20
   1 -11  -2    8.70    7.40
  -1 -11   2    2.20    5.40
   1 -11  -2   27.10   10.40
   1 -11  -2    1.60    5.40
  -1 -11   2    6.50    6.10
   1  11  -2    9.30    6.70
   1  11  -2    4.90    6.70
   1  11  -2    7.40    6.50
   1  11  -2   12.80    5.20
  -1  11   2    0.80    9.80
   1  11  -2   -2.70    5.00
   0 -11   2   43.20    7.80
   0 -11   2   24.50    8.20
   0 -11  -2   38.50    7.90
   0 -11   2   49.99    8.00
   0 -11  -2   18.30    9.30
   0 -11  -2   29.90    6.50
   0  11   2   24.90    7.90
   0  11   2   31.10   12.10
   0  11  -2   35.40    9.20
   0  11  -2   47.20    7.20
   0  11   2   25.00    5.40
   0  11  -2   33.30    7.60
   0  11  -2   46.50    7.80
  -1 -11  -2   13.50    4.70
   1 -11   2    3.20    6.70
  -1 -11  -2   14.10    6.30
   1 -11   2   10.90    5.60
  -1 -11  -2    8.80    6.80
  -1 -11  -2   20.60   12.00
   1 -11   2   24.10    8.10
   1  11   2   15.80    6.20
   1  11   2    9.30    4.20
   1  11   2    2.20    6.30
   1  11   2    9.20    7.30
  -1  11  -2    9.40    5.30
   1  11   2    0.60    8.40
  -1  11  -2   13.40   12.70
   1  11   2   16.20    7.20
  -2 -11  -2   10.80    6.90
  -2 -11  -2    4.00    5.90
  -2 -11  -2    2.50    5.90
  -2 -11  -2    7.70    6.20
   2  11   2   -2.50    6.20
   2  11   2    6.40    6.30
   2  11   2    9.70    5.90
   2  11   2    8.80    5.10
  -3 -11  -2   -2.00    4.70
  -3 -11  -2   -2.30    4.30
   3  11   2   -3.10    5.50
   3  11   2   -0.50    3.20
   3 -12  -2   19.10    4.40
  -3 -12   2   20.90    4.30
   3  12  -2   27.90    4.40
   2 -12  -2    5.40    5.50
  -2 -12   2    8.00    5.20
  -2 -12   2   14.50    5.50
  -2 -12   2    6.90    5.30
   2  12  -2    1.00    7.10
   2  12  -2    7.10    3.50
  -2  12   2   17.70    6.20
   2  12  -2   11.40    5.50
  -1 -12   2   69.79    8.50
  -1 -12   2   64.99    9.70
   1 -12  -2   77.69   12.70
   1 -12  -2   68.59   14.20
   1  12  -2   59.49    9.20
  -1  12   2   41.70    9.70
  -1  12   2   70.39    9.10
   1  12  -2   64.89    9.20
   1  12  -2   59.19    9.80
   1  12  -2   59.69   12.60
   1  12  -2   58.59   10.30
  -1  12   2   64.19    8.90
   0 -12  -2   12.00    6.30
   0 -12  -2   -2.40    8.00
   0 -12  -2   17.00    5.30
   0 -12   2    3.70   12.10
   0 -12   2   12.50    6.20
   0 -12   2    8.00    4.50
   0 -12   2   -4.90    6.30
   0  12  -2    5.10    6.10
   0  12   2   -2.40    6.20
   0  12   2    8.90    4.50
   0  12   2    6.90   11.20
   0  12  -2    3.90    5.80
   0  12  -2  -13.80   11.20
   0  12  -2    6.20    5.00
   0  12   2    5.10    5.40
  -1 -12  -2   10.60    5.90
   1 -12   2    3.20    5.40
  -1 -12  -2   17.60    5.70
   1  12   2    5.20    6.90
   1  12   2    5.10    4.20
   1  12   2   10.00    6.10
   1  12   2   13.00    7.20
  -1  12  -2    2.90    7.90
  -1  12  -2   15.30    5.70
   1  12   2    6.00    9.20
   1  12   2   12.20    8.40
  -2 -12  -2   47.90    7.80
  -2 -12  -2   33.30    6.40
   2  12   2   45.20    8.80
   2  12   2   23.80    8.40
   2  12   2   35.10    6.40
  -2  12  -2   56.09   10.20
   2  12   2   38.00    6.30
  -3 -12  -2   -1.30    3.50
  -3 -12  -2   -1.20    3.40
  -3 -12  -2   10.00    6.60
   3 -12   2    6.00   10.70
   3  12   2    2.70    3.00
   3  12   2   -1.90    4.90
  -2 -13   2   84.89    8.20
  -2 -13   2   77.49    8.30
  -2 -13   2   74.29    8.00
   2  13  -2   76.49    7.60
   2  13  -2   92.49    8.20
   1 -13  -2   23.00    7.80
  -1 -13   2   35.20    7.10
  -1 -13   2   19.30    6.90
  -1  13   2   23.70    5.00
  -1  13   2   33.80    7.90
   1  13  -2   30.30    6.60
   1  13  -2   19.40    9.40
  -1  13   2   37.30    7.60
   1  13  -2   25.00    5.00
   0 -13  -2  135.29   12.70
   0 -13   2  161.18   12.90
   0 -13   2  126.79   15.30
   0 -13  -2  130.49   11.90
   0 -13  -2  119.39   15.70
   0 -13   2  134.19   11.50
   0  13   2  170.18   13.10
   0  13  -2  131.19   12.60
   0  13   2  172.08   13.10
   0  13   2  138.99   12.20
   0  13  -2  152.98   12.70
   0  13  -2  123.59   13.20
  -1 -13  -2  180.98   15.00
   1 -13   2  206.78   15.90
  -1 -13  -2  186.38   15.30
   1  13   2  160.28   18.50
   1  13   2  176.88   15.00
   1  13   2  195.08   15.60
   1  13   2  203.88   16.60
  -1  13  -2  206.78   15.30
  -1  13  -2  180.58   17.10
  -2 -13  -2   52.89    8.40
  -2 -13  -2   52.99    6.40
  -2 -13  -2   37.20    6.50
   2  13   2   50.29    6.80
   2  13   2   53.19    7.80
   2  13   2   51.49    7.20
  -2 -14   2   -0.40    2.80
  -2 -14   2    1.10    2.50
   2  14  -2   -5.10    3.50
   2  14  -2    0.70    3.20
  -2  14   2   -4.20    5.70
  -1 -14   2  104.29   11.50
   1 -14  -2  153.58   16.40
  -1 -14   2  109.89   10.00
  -1 -14   2  121.19   10.70
   1  14  -2  117.59   13.20
  -1  14   2  141.49   11.30
  -1  14   2  131.29   12.10
   1  14  -2  121.19   10.50
   1  14  -2  138.49   11.00
   0 -14   2   53.59    7.00
   0 -14  -2   36.60    6.70
   0 -14  -2   49.30    7.80
   0 -14   2   52.99    5.90
   0 -14  -2   42.60    6.10
   0  14  -2   57.69    7.20
   0  14   2   63.09    8.00
   0  14  -2   51.49    8.70
   0  14   2   47.50    7.90
   0  14   2   44.30    6.90
   1 -14   2   31.00    6.80
  -1 -14  -2   30.40    6.40
  -1 -14  -2   36.40    5.60
   1 -14   2   44.00    9.00
   1  14   2   44.60    6.10
   1  14   2   43.50    6.90
  -1  14  -2   42.00    6.80
  -1  14  -2   47.50    9.00
  -2 -14  -2  103.19    8.90
  -2 -14  -2  104.89    8.70
   2 -14   2  112.79   11.10
   2  14   2   96.39    9.20
  -2  14  -2  117.69   12.30
   2  14   2  132.09    9.50
   1 -15  -2   12.90    3.80
  -1 -15   2   16.00    3.20
  -1 -15   2   15.30    3.10
  -1  15   2    3.50    7.10
  -1  15   2   28.20    6.30
  -1  15   2   12.80    5.60
   0 -15  -2   79.59    7.50
   0 -15   2   64.59    6.50
   0 -15   2   71.49    7.10
   0  15   2   75.59    7.60
   0  15  -2   83.89    7.30
   0  15   2   77.99    7.50
   0  15   2   89.89    9.30
  -1 -15  -2   71.69    6.90
  -1 -15  -2   65.79    6.30
   1  15   2   81.49    7.10
   1  15   2   74.39    7.00
  -4   0   3    0.00   10.20
   4   0  -3    1.60    6.60
   4   0  -3   15.20    8.40
  -3   0   3   -5.50   13.60
   3   0  -3    3.00    8.50
   3   0  -3    8.50    6.20
   3   0  -3    4.40    3.60
   3   0  -3   -7.20   10.40
  -2   0   3   -4.00    3.40
   2   0  -3    0.80    4.80
   2   0  -3    2.90    3.40
  -2   0   3   -0.40    3.50
   1   0  -3   -2.60    1.80
  -1   0   3   -1.30    1.40
   1   0  -3   -2.20    1.20
   1   0  -3   -3.90    1.80
  -1   0   3   -1.50    1.70
   1   0  -3   -2.40    1.00
   1   0  -3   -3.10    0.90
   0   0   3  -12.60    1.00
   0   0   3  -13.00    1.00
   0   0  -3  -14.00    2.10
   0   0   3  -13.40    1.40
   0   0  -3  -14.50    1.00
   0   0  -3  -13.70    1.30
  -1   0  -3    5.10    1.60
  -2   0  -3   -1.40    2.90
   3   0   3   15.10    9.40
   3   0   3    2.40   10.30
   3   0   3   -2.80   10.10
   4   0   3    9.40    7.10
  -4   0  -3  -11.90   12.60
   4  -1  -3   60.29   11.10
  -4  -1   3   41.60   11.00
   4  -1  -3   73.79   12.10
   4   1  -3   51.49    8.70
   4   1  -3   58.69   12.60
  -4   1   3   39.20   12.20
   3  -1  -3  106.59   14.30
   3  -1  -3   97.19   16.70
   3   1  -3   83.99    9.30
   3   1  -3  100.89   16.90
   3   1  -3   79.79   11.40
  -2  -1   3  245.48   17.70
  -2  -1   3  250.07   17.80
   2  -1  -3  235.98   18.00
   2   1  -3  225.68   18.30
   2   1  -3  249.38   18.00
  -2   1   3  238.78   17.80
  -1  -1   3  585.04   37.60
   1  -1  -3  467.55   37.20
   1  -1  -3  500.05   37.40
  -1  -1   3  543.95   37.70
   1  -1  -3  604.84   37.70
  -1  -1   3  581.24   37.70
  -1   1   3  548.85   37.50
   1   1  -3  496.75   37.50
  -1   1   3  608.54   37.40
   1   1  -3  509.85   37.60
  -1   1   3  568.34   37.70
   1   1  -3  542.35   37.30
   0  -1  -3   36.60    3.10
   0  -1   3   37.40    3.20
   0  -1   3   36.40    3.50
   0  -1  -3   38.00    3.40
   0  -1   3   41.40    3.30
   0  -1  -3   27.30    4.20
   0   1  -3   30.20    3.60
   0   1   3   34.30    3.80
   0   1   3   39.90    3.40
   0   1   3   38.80    3.30
   0   1  -3   36.70    3.20
   0   1   3   40.70    3.20
  -1  -1  -3  100.79    7.30
   1   1   3   97.59    7.00
   1   1   3   94.09    7.20
  -2  -1  -3 1119.39   74.79
  -2  -1  -3  978.80   75.89
  -2   1  -3 1196.28   75.19
   3  -1   3   61.59   17.60
   3  -1   3   46.60   11.10
   3  -1   3   46.60   11.30
  -3  -1  -3   45.60   10.20
   3   1   3   66.19   14.10
   3   1   3   56.19   12.30
   3   1   3   64.09   13.30
  -4  -1  -3   29.00   11.50
   4   1   3   28.10    8.50
  -4   1  -3    7.70   18.10
   4  -2  -3   86.99   11.70
   4  -2  -3   76.09   12.40
   4   2  -3   86.49   13.90
   4   2  -3   59.89   14.00
   3  -2  -3  680.43   46.60
   3  -2  -3  630.04   46.40
   3   2  -3  631.34   44.80
   3   2  -3  588.44   44.00
   3   2  -3  624.84   47.70
  -2  -2   3 1167.18   81.69
  -2  -2   3 1247.58   81.39
  -2  -2   3 1208.28   81.29
   2   2  -3 1143.19   81.79
  -2   2   3 1135.39   80.69
  -2   2   3 1190.98   81.59
   2   2  -3 1223.78   81.39
   1  -2  -3   25.40    3.30
  -1  -2   3   30.20    3.30
  -1  -2   3   22.70    4.00
  -1  -2   3   28.60    3.40
   1   2  -3   35.00    3.60
  -1   2   3   30.60    3.80
  -1   2   3   29.20    3.20
   1   2  -3   25.00    4.00
  -1   2   3   26.40    3.50
   0  -2  -3 3465.05  238.88
   0  -2   3 3670.63  238.68
   0  -2  -3 3584.54  238.78
   0  -2  -3 3363.66  238.88
   0   2   3 3555.74  238.78
   0   2   3 3693.03  238.78
   0   2  -3 3556.04  238.68
   0   2   3 3585.74  238.68
   0   2   3 3616.24  238.78
   0   2  -3 3166.48  238.78
  -1  -2  -3  118.69   11.10
  -1  -2  -3  141.39    9.50
   1   2   3  150.08    9.50
  -1   2  -3  117.89    9.90
   1   2   3  138.79    9.60
   1   2   3  111.79    9.10
  -2  -2  -3 1032.10   71.39
  -2  -2  -3 1108.19   72.19
  -2  -2  -3  998.50   72.29
   3  -2   3  435.96   32.20
  -3  -2  -3  412.96   30.10
   3   2   3  381.46   33.10
   3   2   3  398.86   30.90
   3   2   3  375.56   33.20
  -4  -2  -3  -15.80    9.90
   4  -2   3   15.40    7.20
   4   2   3    3.40    8.60
   4   2   3    2.60    6.30
   4  -3  -3  266.27   23.10
  -4  -3   3  290.47   22.90
   4  -3  -3  294.97   22.40
   4   3  -3  281.57   24.70
   4   3  -3  268.97   21.20
   4   3  -3  275.27   25.30
   3  -3  -3  634.44   47.90
  -3  -3   3  593.04   46.70
   3   3  -3  650.93   46.30
   3   3  -3  670.73   49.80
   3   3  -3  710.63   45.70
  -2  -3   3  721.43   58.89
  -2  -3   3  879.51   58.49
  -2  -3   3  890.21   58.09
   2   3  -3  914.01   58.29
  -2   3   3  823.92   58.69
   2   3  -3  824.52   57.59
  -2   3   3  845.52   57.79
  -1  -3   3 6259.87  392.66
  -1  -3   3 6071.99  392.66
   1  -3  -3 5267.77  392.56
  -1   3   3 6023.60  392.56
   1   3  -3 5597.54  392.86
  -1   3   3 5990.30  392.76
  -1   3   3 5781.22  392.56
   1   3  -3 5339.57  392.66
   1   3  -3 5837.62  392.66
   0  -3  -3  174.88   13.40
   0  -3  -3  189.38   13.10
   0  -3   3  184.88   12.80
   0  -3   3  193.18   12.90
   0  -3  -3  167.48   13.40
   0   3  -3  170.38   13.10
   0   3   3  188.28   13.10
   0   3   3  175.28   13.40
   0   3  -3  189.78   13.10
   0   3   3  185.38   13.10
   0   3  -3  158.38   13.40
  -1  -3  -3 3073.89  205.48
  -1  -3  -3 2903.11  204.88
   1   3   3 3279.87  204.98
   1   3   3 3189.88  204.98
  -1   3  -3 2646.34  204.98
   1   3   3 3046.20  204.98
  -2  -3  -3 1916.81  120.79
  -2  -3  -3 1737.23  121.59
  -2  -3  -3 1666.13  121.09
  -2   3  -3 1819.52  120.89
   2   3   3 1698.73  120.89
   3  -3   3  205.88   20.70
  -3  -3  -3  198.68   17.70
   3   3   3  187.98   18.70
   3   3   3  205.08   23.10
   3   3   3  192.18   22.00
  -4  -3  -3  167.88   17.80
   4  -3   3  206.88   16.40
   4   3   3  154.68   15.80
   4   3   3  188.48   18.70
  -4  -4   3   70.79   10.80
   4  -4  -3   71.39   10.60
   4  -4  -3   77.69   12.40
   4   4  -3   78.09   14.70
   4   4  -3   66.39   12.00
   4   4  -3   69.99    9.80
  -3  -4   3  587.84   43.70
   3  -4  -3  645.14   44.40
  -3  -4   3  553.24   43.20
   3  -4  -3  679.93   45.20
   3   4  -3  647.94   43.30
   3   4  -3  561.04   42.30
   3   4  -3  551.04   46.80
  -2  -4   3 1580.54  104.39
  -2  -4   3 1341.27  104.49
  -2  -4   3 1570.94  104.19
  -2   4   3 1579.24  104.29
  -2   4   3 1395.56  104.89
   2   4  -3 1573.64  104.09
   2   4  -3 1629.24  104.19
  -1  -4   3  141.99   10.70
  -1  -4   3  138.89   10.50
   1   4  -3  136.59   11.10
  -1   4   3  146.89   11.40
   1   4  -3  138.09   10.60
   1   4  -3  141.29   11.20
  -1   4   3  142.59   11.30
  -1   4   3  138.09   11.10
   1   4  -3  127.29   12.00
   0  -4  -3 8438.66  509.65
   0  -4  -3 7475.95  509.85
   0  -4  -3 7252.97  509.55
   0   4   3 7802.12  509.65
   0   4  -3 7075.59  509.65
   0   4  -3 7324.17  509.75
   0   4   3 7616.34  509.65
   0   4  -3 7430.76  509.75
   0   4   3 7335.77  509.85
  -1  -4  -3 1325.07   87.99
  -1  -4  -3 1275.97   87.59
   1   4   3 1372.96   87.59
  -1   4  -3 1139.59   87.59
   1   4   3 1335.37   87.59
   1   4   3 1254.07   87.59
  -2  -4  -3  922.51   62.99
  -2  -4  -3  973.40   62.29
   2   4   3  901.91   61.39
   2   4   3  826.22   62.99
  -2   4  -3  885.11   62.89
   2   4   3  877.41   66.29
   3  -4   3  726.73   48.10
  -3  -4  -3  681.33   46.10
   3   4   3  592.14   47.00
   3   4   3  659.03   48.70
   3   4   3  545.75   49.50
   3   4   3  684.33   47.60
  -4  -4  -3   10.20    7.70
   4   4   3    0.50    9.60
   4   4   3    2.30    6.30
   4  -5  -3  210.68   18.40
   4  -5  -3  228.48   19.00
  -4  -5   3  257.27   18.10
   4   5  -3  256.97   21.60
   4   5  -3  185.58   24.40
   4   5  -3  198.08   18.00
   3  -5  -3  283.77   24.00
  -3  -5   3  280.17   23.10
   3  -5  -3  301.77   25.00
  -3  -5   3  274.17   22.10
   3   5  -3  276.07   21.20
   3   5  -3  261.77   29.40
   3   5  -3  287.47   22.60
  -2  -5   3  453.55   30.60
  -2  -5   3  355.36   30.90
  -2  -5   3  490.95   30.40
   2  -5  -3  421.36   36.90
   2  -5  -3  437.16   34.70
   2   5  -3  414.36   33.90
  -2   5   3  448.66   32.50
   2   5  -3  422.26   30.30
   2   5  -3  401.86   30.50
  -1  -5   3 1094.39   71.99
   1  -5  -3  917.01   72.39
  -1  -5   3  981.50   72.69
  -1  -5   3 1124.09   72.09
  -1   5   3 1104.29   72.69
  -1   5   3 1055.29   72.39
   1   5  -3  998.40   72.49
   1   5  -3 1104.09   72.29
   1   5  -3 1109.99   72.69
   1   5  -3 1117.49   72.29
  -1   5   3 1059.59   72.29
   1   5  -3  890.51   72.19
   1   5  -3 1117.49   72.09
   0  -5   3  394.46   28.50
   0  -5  -3  476.75   28.90
   0  -5  -3  418.46   28.90
   0   5   3  426.06   29.00
   0   5   3  395.96   29.30
   0   5  -3  386.66   28.90
   0   5  -3  388.26   29.30
   0   5  -3  411.66   29.40
  -1  -5  -3 2331.57  168.08
  -1  -5  -3 2601.34  168.28
  -1  -5  -3 2503.95  168.08
  -1  -5  -3 2284.87  168.08
   1   5   3 2633.04  168.08
   1   5   3 2470.75  167.98
   1   5   3 2172.88  167.98
  -1   5  -3 2781.32  168.58
  -2  -5  -3  422.16   30.50
  -2  -5  -3  436.96   29.90
   2   5   3  436.36   35.00
   2   5   3  421.76   29.00
   2   5   3  388.26   31.90
  -2   5  -3  363.96   32.30
   3  -5   3   82.49   16.40
  -3  -5  -3   80.09   10.40
   3   5   3   79.89   14.20
   3   5   3   75.99   12.30
   3   5   3   48.60   10.50
   3   5   3   61.59   14.90
  -4  -5  -3  146.29   14.30
   4  -5   3  144.09   14.90
   4   5   3  164.98   16.00
   4   5   3  110.59   13.60
   4  -6  -3   20.60    6.80
  -4  -6   3   22.90    5.60
  -4  -6   3   15.80    7.10
   4   6  -3   19.40    6.20
   4   6  -3    3.20    9.60
  -3  -6   3  137.69   12.30
  -3  -6   3   99.29   16.50
  -3  -6   3  138.39   14.80
   3  -6  -3   97.69   16.20
   3  -6  -3  135.29   16.20
   3   6  -3  127.79   13.50
   3   6  -3  110.59   11.50
  -2  -6   3  507.95   34.40
  -2  -6   3  497.55   34.70
  -2  -6   3  515.65   45.10
   2  -6  -3  488.65   38.00
  -2  -6   3  461.05   34.90
   2  -6  -3  437.16   40.20
  -2  -6   3  502.25   43.90
   2   6  -3  489.75   34.60
   2   6  -3  488.75   37.10
   2   6  -3  508.35   37.60
   2   6  -3  498.85   34.90
   2   6  -3  447.66   34.70
  -1  -6   3   76.59   11.40
  -1  -6   3   84.89    6.80
  -1  -6   3   74.79    7.00
   1   6  -3   78.69   10.60
   1   6  -3   73.39    9.30
  -1   6   3   72.59   10.20
  -1   6   3   85.69   10.60
   1   6  -3   85.89    7.50
   1   6  -3   72.99    7.60
   1   6  -3   63.89    8.60
  -1   6   3   73.39   10.50
   0  -6  -3 1145.39   90.69
   0  -6   3 1374.66   90.09
   0  -6  -3 1506.45   90.39
   0   6  -3 1204.98   90.99
   0   6   3 1361.56   90.99
   0   6   3 1318.87   90.89
   0   6  -3 1524.85   91.19
   0   6  -3 1326.17   90.59
   0   6  -3 1237.08   91.09
   0   6   3 1418.96   90.79
   0   6   3 1196.08   90.79
   0   6  -3 1278.07   90.79
  -1  -6  -3  372.46   32.90
  -1  -6  -3  510.35   32.40
  -1  -6  -3  418.16   32.90
  -1  -6  -3  504.35   32.10
   1   6   3  453.95   32.30
   1   6   3  381.66   34.00
   1   6   3  509.35   32.30
   1   6   3  439.96   32.90
  -1   6  -3  500.95   33.30
  -2  -6  -3  139.29   12.70
  -2  -6  -3  136.49   13.30
   2   6   3  145.39   11.20
   2   6   3  111.79   17.40
   2   6   3  125.79   11.30
   2   6   3  118.89   19.10
   2   6   3  157.98   19.90
   2   6   3  129.79   21.90
   3  -6   3  171.68   27.60
  -3  -6  -3  143.79   14.10
  -3  -6  -3  128.79   18.70
  -3  -6  -3  137.39   17.50
   3   6   3  162.98   18.50
   3   6   3  155.78   16.80
   3   6   3  128.89   17.20
   3   6   3  149.39   20.40
  -4  -6  -3   13.30    6.30
   4   6   3    3.80    8.10
   4   6   3    4.10    5.90
   4  -7  -3    8.00    5.30
  -4  -7   3    7.80    5.40
   4  -7  -3    9.80    6.70
  -4  -7   3   10.50    6.50
   4   7  -3    5.00   11.40
   4   7  -3   12.30    6.00
   3  -7  -3    8.00    9.20
  -3  -7   3  -12.10    8.60
  -3  -7   3    0.90    6.90
   3  -7  -3    7.80    6.40
  -3  -7   3    7.40    5.60
  -3  -7   3    8.30    8.00
   3   7  -3    3.00    5.80
   3   7  -3    3.00    4.90
  -2  -7   3   53.29   12.60
   2  -7  -3   95.09   15.90
  -2  -7   3   66.29   14.10
  -2  -7   3   82.29    8.50
  -2  -7   3   92.59   10.20
   2  -7  -3   51.19   13.80
  -2  -7   3   81.69   14.30
  -2  -7   3   75.79    8.60
   2   7  -3   69.89    8.60
   2   7  -3   69.19   14.20
   2   7  -3   82.19   16.40
   2   7  -3   86.59   10.60
   2   7  -3   74.39   10.20
  -1  -7   3   21.70    4.20
  -1  -7   3   23.40    8.80
  -1  -7   3   25.90    4.70
  -1   7   3   21.20    8.20
  -1   7   3   39.20   10.00
  -1   7   3   14.80   10.00
   1   7  -3   23.40   10.50
   1   7  -3   30.90    6.40
   1   7  -3   29.80    5.30
   1   7  -3   35.20    7.10
   0  -7   3    8.50    2.50
   0  -7  -3    7.30    2.80
   0  -7  -3   15.40    3.40
   0   7  -3   19.50    5.70
   0   7  -3   18.80    6.10
   0   7   3    9.70    5.70
   0   7   3    6.40    4.10
   0   7  -3   14.50    7.50
   0   7  -3   12.00    6.00
   0   7   3    1.00    5.30
   0   7  -3   13.90    3.60
   0   7   3    4.80    6.20
  -1  -7  -3   97.89    8.30
  -1  -7  -3   77.09   12.50
  -1  -7  -3  120.99   18.30
   1   7   3   83.59    9.30
   1   7   3   94.49    9.00
  -1   7  -3   84.99   13.80
   1   7   3   79.09   13.20
   1   7   3   79.69   12.40
   1   7   3  104.69   12.80
   2  -7   3   25.80   13.70
  -2  -7  -3   52.29    9.00
  -2  -7  -3   32.00    9.80
  -2  -7  -3   52.59    8.90
  -2  -7  -3   49.70    8.20
   2   7   3   47.50    8.40
   2   7   3   33.00   15.60
   2   7   3   31.40   10.10
   2   7   3   36.20    5.90
   2   7   3   59.09   12.30
   2   7   3   54.79   10.50
  -3  -7  -3   20.80    8.10
  -3  -7  -3   20.10   11.40
  -3  -7  -3   23.20    7.30
   3   7   3   36.80   13.10
   3   7   3   18.00   12.30
   3   7   3   18.80    8.80
   4   7   3    5.50    7.20
  -4  -8   3    5.80    4.10
   4  -8  -3    6.60    4.70
  -4  -8   3    9.30    6.20
   4  -8  -3   -2.70    8.30
   4   8  -3   -2.90    9.20
   4   8  -3   15.60    5.90
  -3  -8   3   -0.80    6.40
   3  -8  -3    8.20    6.20
  -3  -8   3   17.50    9.70
   3  -8  -3  -11.60    9.50
  -3  -8   3   -4.40    6.60
  -3  -8   3   -1.80    6.00
   3   8  -3   -2.70    5.20
   3   8  -3   -2.70    5.00
  -2  -8   3    4.60    4.50
   2  -8  -3   -7.00    7.30
  -2  -8   3  -14.80    9.70
   2  -8  -3    0.50   12.70
  -2  -8   3   -5.50    9.70
  -2  -8   3    9.50    6.10
  -2  -8   3    6.20    4.90
  -2  -8   3    9.00    7.80
   2   8  -3   -3.60    5.50
   2   8  -3  -11.00    8.30
   2   8  -3  -15.60    8.80
   2   8  -3   -2.20    4.60
   2   8  -3   10.40    6.20
   1  -8  -3   -2.90    9.20
  -1  -8   3   10.60   10.30
  -1  -8   3   17.20    9.80
  -1  -8   3    2.30    3.10
  -1  -8   3   -2.70    7.90
   1  -8  -3    1.50    8.80
   1   8  -3    4.70    3.80
   1   8  -3    1.10    5.80
   1   8  -3    3.60    4.40
   1   8  -3    9.60    8.80
   1   8  -3    2.50    5.40
   1   8  -3   14.70   11.00
  -1   8   3    4.20    7.30
   0  -8   3   76.99   16.20
   0  -8  -3  115.79   20.20
   0  -8  -3   76.09    7.50
   0  -8   3   61.69   13.10
   0  -8  -3  110.99   22.70
   0  -8  -3   88.39   11.50
   0   8  -3   71.19   12.10
   0   8   3   79.09    9.10
   0   8   3   81.59    9.00
   0   8  -3   88.09    9.30
   0   8  -3   68.29    9.60
   0   8   3   61.39   10.50
   0   8  -3   71.79   11.30
   1  -8   3  163.08   18.10
  -1  -8  -3  119.09   17.60
   1  -8   3  130.79   26.80
   1  -8   3  106.49   19.90
   1  -8   3  166.38   23.90
  -1  -8  -3  155.48   17.70
  -1  -8  -3  140.49   10.90
   1   8   3  116.39   13.60
   1   8   3  129.49   12.10
   1   8   3  129.29   17.10
   1   8   3  121.49   13.50
   1   8   3  109.79   15.80
   1   8   3  133.59   11.90
  -1   8  -3  111.29   14.20
  -2  -8  -3    2.80    6.60
   2  -8   3   18.90   10.80
  -2  -8  -3   17.10    5.80
  -2  -8  -3    6.80   13.20
  -2  -8  -3    7.90    7.70
   2   8   3    2.60    8.60
   2   8   3   12.40   11.80
   2   8   3   14.80   11.50
   2   8   3    1.30    5.20
   2   8   3   -1.30    6.40
   2   8   3   15.20    7.80
  -3  -8  -3   26.90   13.00
   3  -8   3   30.70   18.00
  -3  -8  -3   11.40    6.80
  -3  -8  -3   17.30    7.40
   3   8   3   19.30   10.90
   3   8   3   15.10    7.40
   3   8   3   12.30   10.90
  -4  -8  -3   -0.80    7.20
  -4  -8  -3    2.30    3.90
   4   8   3    1.40    3.60
  -3  -9   3   80.49   10.30
   3  -9  -3   64.59   16.10
  -3  -9   3   97.49   10.90
  -3  -9   3   60.69   11.80
   3  -9  -3   84.39   11.60
   3   9  -3   80.59   10.00
   3   9  -3   68.29    9.00
  -2  -9   3   86.99    8.90
  -2  -9   3   73.79   12.80
  -2  -9   3   77.79   11.00
   2  -9  -3   65.49   14.80
  -2  -9   3   78.79   13.40
  -2  -9   3   82.39   12.60
   2   9  -3   72.99    9.20
   2   9  -3   60.99   11.50
   2   9  -3   68.19   12.10
   2   9  -3   90.99    9.90
   2   9  -3   62.49   10.90
  -1  -9   3  328.07   24.50
  -1  -9   3  318.97   25.20
  -1  -9   3  297.07   23.20
  -1  -9   3  279.27   20.80
   1  -9  -3  255.17   25.50
   1  -9  -3  280.77   22.90
   1   9  -3  286.17   23.30
  -1   9   3  278.17   22.00
   1   9  -3  299.47   22.10
   1   9  -3  276.47   21.80
   1   9  -3  308.77   22.70
   1   9  -3  261.67   22.00
   0  -9   3   20.90    6.70
   0  -9  -3   14.70    4.20
   0  -9   3   31.50    8.40
   0  -9  -3   14.50   13.00
   0  -9   3    8.60   11.00
   0  -9  -3   20.10    7.90
   0  -9   3    8.10   10.80
   0  -9  -3   16.60   10.90
   0   9  -3   14.60    5.50
   0   9   3    9.20    7.70
   0   9   3   33.00   10.10
   0   9   3   15.50    5.80
   0   9  -3    4.70    9.50
   0   9   3    3.20   11.90
   0   9  -3    6.40    7.50
   0   9  -3   14.90    6.80
   0   9  -3   15.60    5.20
  -1  -9  -3  328.67   24.30
   1  -9   3  354.26   26.80
  -1  -9  -3  342.47   24.40
  -1  -9  -3  344.17   27.60
  -1  -9  -3  353.46   26.90
   1  -9   3  431.56   56.19
   1  -9   3  309.37   30.30
   1  -9   3  355.96   28.50
  -1   9  -3  318.17   25.30
   1   9   3  352.96   25.30
   1   9   3  332.07   25.60
   1   9   3  330.97   25.60
   1   9   3  320.17   25.30
   1   9   3  339.07   26.80
   1   9   3  321.97   27.00
  -2  -9  -3   45.50    9.40
  -2  -9  -3   59.49   12.00
  -2  -9  -3   77.19   12.70
  -2  -9  -3   72.89    9.90
   2   9   3   69.69   10.60
   2   9   3   57.69    9.70
   2   9   3   45.20    9.40
   2   9   3   92.59   14.70
   3  -9   3   11.50   11.20
  -3  -9  -3   16.50    7.20
  -3  -9  -3   16.50   11.00
  -3  -9  -3   14.30    6.50
   3   9   3    5.30    9.50
   3   9   3   18.00   14.20
  -3 -10   3   34.40    9.80
   3 -10  -3   67.09    9.20
  -3 -10   3   41.10    8.20
  -3 -10   3   56.59    8.20
   3  10  -3   54.79    7.90
   3  10  -3   41.60    7.50
  -2 -10   3  625.04   45.40
  -2 -10   3  682.53   45.50
  -2 -10   3  605.74   45.10
  -2 -10   3  604.24   44.10
   2 -10  -3  601.34   45.90
   2  10  -3  643.54   45.70
  -2  10   3  620.94   44.60
   2  10  -3  622.84   45.10
   2  10  -3  638.24   44.60
   2  10  -3  655.03   44.60
  -1 -10   3   19.90    4.10
  -1 -10   3   12.80    6.20
  -1 -10   3   25.50    7.10
   1 -10  -3   25.40    6.70
   1 -10  -3   10.20   20.50
  -1 -10   3   28.30    8.20
   1 -10  -3   12.60    7.40
   1  10  -3   27.40    6.00
   1  10  -3   23.70    6.10
  -1  10   3   15.20   11.70
   1  10  -3   27.00    6.00
  -1  10   3   32.10    6.50
   1  10  -3   20.80    7.20
   0 -10  -3  942.61   63.49
   0 -10   3  976.00   65.09
   0 -10  -3  967.80   66.29
   0 -10  -3  943.71   63.99
   0 -10   3  924.81   63.79
   0 -10   3  844.92   65.69
   0 -10   3  947.51   63.09
   0  10   3  885.61   63.59
   0  10   3  795.72   64.09
   0  10   3  864.31   63.69
   0  10  -3  889.31   63.69
   0  10  -3  878.61   62.99
   0  10  -3  913.41   63.19
   0  10   3  910.31   63.69
   0  10  -3  905.61   63.59
  -1 -10  -3  440.06   31.50
   1 -10   3  424.66   33.80
  -1 -10  -3  371.36   29.40
   1 -10   3  395.86   30.40
   1 -10   3  439.46   32.00
  -1 -10  -3  342.17   38.80
  -1 -10  -3  446.36   31.30
  -1 -10  -3  419.36   29.40
   1  10   3  408.56   30.70
   1  10   3  425.76   30.50
  -1  10  -3  424.16   30.00
   1  10   3  391.66   31.10
   1  10   3  377.86   30.60
   1  10   3  442.46   30.40
   1  10   3  449.76   31.50
  -2 -10  -3  371.16   30.40
  -2 -10  -3  402.36   30.70
  -2 -10  -3  412.36   29.80
   2 -10   3  446.36   33.20
  -2 -10  -3  411.66   31.40
   2  10   3  440.76   30.30
   2  10   3  454.55   31.20
   2  10   3  412.46   30.90
   2  10   3  397.56   30.30
   2  10   3  347.67   32.10
  -3 -10  -3   81.59    9.80
  -3 -10  -3  112.89   18.00
   3 -10   3  121.59   22.40
   3  10   3   83.09    9.40
   3  10   3   92.79   13.40
  -3 -11   3   97.19   12.10
  -3 -11   3   79.19    8.20
   3 -11  -3  101.79   10.90
   3  11  -3   86.69    8.60
  -2 -11   3  175.48   15.70
  -2 -11   3  193.08   16.40
  -2 -11   3  193.38   16.90
   2 -11  -3  214.38   18.10
  -2 -11   3  191.78   16.90
  -2  11   3  199.98   16.30
   2  11  -3  190.78   15.70
   2  11  -3  197.48   16.30
   2  11  -3  210.68   16.80
   1 -11  -3  603.14   42.10
  -1 -11   3  618.14   43.00
  -1 -11   3  612.24   42.70
   1 -11  -3  553.74   44.20
   1 -11  -3  693.13   45.90
  -1 -11   3  611.64   43.40
   1  11  -3  651.73   42.70
   1  11  -3  592.04   43.10
   1  11  -3  573.94   42.30
   1  11  -3  637.44   43.20
  -1  11   3  545.55   43.40
   1  11  -3  517.25   43.10
   0 -11   3    2.10    4.70
   0 -11  -3   -4.40    7.20
   0 -11   3   -3.40    9.20
   0 -11  -3   -8.70    8.80
   0 -11   3   -0.10    6.10
   0 -11   3   -0.80    8.10
   0 -11  -3   -0.40    5.80
   0  11  -3    5.50    4.90
   0  11  -3   -7.50    6.20
   0  11   3   -3.00    4.70
   0  11   3   -1.30    4.20
   0  11   3   -2.30    8.20
   0  11   3    4.40    7.20
   0  11  -3    8.90    8.20
   0  11  -3    0.60    6.50
   0  11   3  -12.50    9.90
  -1 -11  -3  353.16   26.70
  -1 -11  -3  320.67   24.80
   1 -11   3  348.87   25.50
   1 -11   3  406.16   29.70
   1 -11   3  336.37   26.70
  -1 -11  -3  338.97   26.10
   1  11   3  364.76   25.80
  -1  11  -3  332.97   25.50
   1  11   3  342.87   26.80
  -1  11  -3  327.97   32.70
   1  11   3  362.56   26.50
   1  11   3  337.67   26.70
   1  11   3  353.96   25.90
   1  11   3  337.17   27.30
  -2 -11  -3  163.98   15.70
  -2 -11  -3  176.08   15.30
  -2 -11  -3  154.28   16.80
  -2 -11  -3  186.38   15.20
   2  11   3  172.88   14.90
   2  11   3  171.88   15.50
  -2  11  -3  215.18   17.20
   2  11   3  186.58   15.90
   2  11   3  177.28   16.10
  -3 -11  -3   17.10    5.40
  -3 -11  -3   22.20    4.50
   3  11   3   35.20    7.00
   3  11   3   24.90    4.90
  -3 -12   3   59.69    7.80
  -3 -12   3   54.49    6.10
   3 -12  -3   67.59    7.80
   3  12  -3   63.99    6.60
   2 -12  -3  175.88   16.50
  -2 -12   3  190.48   15.20
  -2 -12   3  179.48   15.10
  -2 -12   3  177.38   14.90
   2  12  -3  161.28   16.60
   2  12  -3  200.38   15.00
   2  12  -3  182.78   14.20
   1 -12  -3    9.60    9.80
  -1 -12   3    0.40    5.70
  -1 -12   3   -3.70    5.80
   1 -12  -3    1.00    4.20
   1 -12  -3   12.10    6.30
  -1 -12   3   11.00    4.50
   1  12  -3    6.10    5.70
   1  12  -3    6.70    7.70
   1  12  -3  -12.30    8.50
   1  12  -3    9.60    4.90
  -1  12   3   -7.50    7.40
   1  12  -3    4.50    5.80
   0 -12   3  177.78   15.00
   0 -12   3  171.28   17.80
   0 -12  -3  165.28   15.40
   0 -12   3  159.98   13.40
   0 -12  -3  148.09   13.90
   0  12  -3  171.58   15.30
   0  12   3  125.59   20.10
   0  12  -3  184.28   14.10
   0  12  -3  157.68   14.50
   0  12   3  187.08   14.50
   0  12   3  173.28   14.20
   0  12   3  148.59   15.30
   0  12  -3  121.99   20.80
   1 -12   3  244.38   19.40
  -1 -12  -3  217.18   18.70
  -1 -12  -3  243.78   19.60
   1  12   3  256.07   19.60
   1  12   3  241.98   18.80
  -1  12  -3  252.87   18.70
  -1  12  -3  232.68   20.10
   1  12   3  228.28   22.00
   1  12   3  226.18   21.10
   1  12   3  262.37   20.00
  -2 -12  -3  184.98   15.40
  -2 -12  -3  178.98   15.50
   2  12   3  201.48   16.00
   2  12   3  190.18   15.40
  -2  12  -3  213.68   16.80
   2  12   3  186.98   17.60
   2  12   3  177.38   15.30
  -3 -12  -3   63.49    6.10
  -3 -12  -3   77.29   11.40
  -3 -12  -3   51.99    6.70
   3  12   3   85.69    9.40
   3  12   3   67.39    6.20
  -2 -13   3   39.20    5.90
  -2 -13   3   40.50    6.40
   2 -13  -3   56.09    8.30
  -2 -13   3   40.30    6.50
   2  13  -3   37.70    6.00
  -2  13   3   40.30    6.80
  -2  13   3   50.09    9.00
   2  13  -3   43.30    6.30
  -1 -13   3  139.09   14.30
  -1 -13   3  169.48   12.90
  -1 -13   3  152.18   13.40
  -1  13   3  139.29   13.10
  -1  13   3  161.98   13.40
   1  13  -3  189.08   13.70
   1  13  -3  163.48   18.10
   1  13  -3  158.08   13.90
   1  13  -3  162.48   13.40
   0 -13  -3    5.20    4.00
   0 -13   3   -5.70    9.30
   0 -13   3   -1.20    4.70
   0 -13   3   -1.00    3.20
   0 -13  -3    1.80    6.00
   0 -13  -3   -1.40    5.20
   0  13   3    4.80    4.00
   0  13  -3   -0.20    6.30
   0  13   3    7.10    5.50
   0  13  -3   -1.80    4.70
   0  13   3    3.00    5.60
  -1 -13  -3  101.99   10.30
   1 -13   3   87.99   10.30
   1 -13   3  106.39   14.40
  -1 -13  -3   92.79    9.60
  -1  13  -3   96.49   11.80
   1  13   3  106.59   14.60
   1  13   3   97.99    9.90
   1  13   3  107.89   10.70
  -1  13  -3  115.19   10.00
   1  13   3  110.19   12.40
   1  13   3   89.69   12.90
  -2 -13  -3   29.90    5.60
  -2 -13  -3   32.20    5.50
   2  13   3   34.50    6.30
  -2  13  -3   51.69    9.70
   2  13   3   38.40    6.30
  -2 -14   3    8.40    2.30
  -2 -14   3    3.50    3.80
  -2 -14   3    7.50    3.30
   2  14  -3   10.50    3.50
   2  14  -3    7.70    3.20
  -2  14   3   13.00    5.90
  -1 -14   3    3.40    3.80
  -1 -14   3    6.50    4.90
  -1 -14   3    7.40    3.00
  -1  14   3    0.30    4.10
  -1  14   3    9.80    4.80
   1  14  -3   11.60    4.40
   1  14  -3    5.90    7.80
   1  14  -3    6.50    3.80
  -1  14   3    4.80    5.30
   0 -14  -3   48.70    9.20
   0 -14  -3   61.09    6.20
   0 -14  -3   48.30    7.60
   0 -14   3   51.09    7.20
   0 -14   3   53.09    6.00
   0  14   3   64.99    7.30
   0  14   3   69.19    8.50
   0  14  -3   73.09    7.40
   0  14   3   60.49    7.80
  -1 -14  -3    9.40    3.60
   1 -14   3   -1.60    5.00
  -1 -14  -3    0.50    3.80
   1 -14   3    2.10    3.80
   1  14   3    8.00    4.50
   1  14   3    3.90    3.30
  -1  14  -3  -10.90    5.90
  -1  14  -3   10.90    4.20
  -2 -14  -3   15.00    3.10
  -2 -14  -3   20.20    3.80
   2  14   3    9.90    4.10
   2  14   3   26.70    5.20
  -1 -15   3   -0.30    1.80
  -1 -15   3    1.30    2.60
   1 -15  -3   -3.20    3.20
  -1  15   3   -5.00    4.30
   1  15  -3    0.60    5.50
  -1  15   3   -5.50    5.10
   1  15  -3   -0.70    2.30
   0 -15  -3   -3.00    3.50
   0 -15   3    2.30    2.70
   0 -15   3    3.90    2.60
   0 -15  -3    2.70    2.30
   0  15   3    3.50    3.30
   0  15  -3    8.10    3.00
   0  15   3   -0.40    5.40
   0  15  -3    8.20    4.50
   0  15   3    0.50    2.90
  -1 -15  -3   -1.10    2.80
  -1 -15  -3   -2.40    2.20
   1  15   3    0.40    3.10
   1  15   3    3.60    3.10
  -1  15  -3    0.60    4.10
   4   0  -4  436.96   32.20
  -4   0   4  412.56   31.80
   4   0  -4  405.26   31.60
   3   0  -4  141.59   11.40
   3   0  -4  143.39   17.40
  -3   0   4  106.59   17.30
   3   0  -4  140.39   19.40
  -2   0   4 4073.29  276.47
   2   0  -4 4120.79  275.97
  -2   0   4 4025.20  276.37
  -1   0   4 4770.32  307.27
   1   0  -4 5122.99  307.47
   1   0  -4 4070.09  307.17
   1   0  -4 4262.57  306.97
  -1   0   4 4950.00  307.27
  -1   0   4 4625.94  307.27
   1   0  -4 3955.30  307.27
   0   0   4 1408.36   89.99
   0   0  -4 1335.77   89.89
   0   0   4 1349.36   89.89
   0   0  -4 1133.79   90.09
   0   0   4 1345.57   89.99
   0   0  -4 1331.67   89.99
  -1   0  -4 1783.62  139.09
  -1   0  -4 2211.68  138.99
   1   0   4 2140.09  138.59
  -2   0  -4  326.27   23.60
   3   0   4  630.54   48.80
  -3   0  -4  732.83   48.90
   3   0   4  659.43   49.10
   3   0   4  625.44   48.30
  -4   0  -4  139.99   20.40
   4   0   4  187.68   16.40
   4  -1  -4    2.20    7.90
   4  -1  -4   -2.30    5.70
  -4  -1   4   -9.90    8.30
  -4   1   4   14.70    9.10
   4   1  -4   -6.00    6.30
   4   1  -4    0.10    8.70
   3  -1  -4  818.62   57.99
   3  -1  -4  837.52   57.69
   3   1  -4  808.42   55.59
   3   1  -4  800.42   58.59
  -3   1   4  699.43   57.89
   3   1  -4  847.72   56.29
  -2  -1   4 1557.94  107.09
  -2  -1   4 1529.05  107.19
   2  -1  -4 1581.24  106.99
   2   1  -4 1637.84  106.99
  -2   1   4 1537.85  107.29
   1  -1  -4 3112.09  233.78
  -1  -1   4 3411.86  233.98
   1  -1  -4 3678.93  234.08
  -1  -1   4 3658.83  233.98
  -1  -1   4 3641.04  233.98
   1   1  -4 3636.04  234.08
  -1   1   4 3554.24  233.98
   1   1  -4 3223.48  233.68
  -1   1   4 3531.15  233.78
   1   1  -4 2951.10  233.98
  -1   1   4 3507.85  234.08
  -1   1   4 3517.55  233.98
   0  -1  -4 5967.10  382.96
   0  -1  -4 5384.56  383.06
   0  -1   4 5643.84  382.76
   0  -1   4 6052.59  382.86
   0  -1  -4 4961.50  382.96
   0   1   4 5835.02  382.96
   0   1  -4 5126.99  382.96
   0   1   4 6135.19  382.86
   0   1   4 6357.06  382.96
   0   1  -4 5091.89  382.96
  -1  -1  -4  227.08   15.20
  -1  -1  -4  169.98   15.50
   1   1   4  232.58   14.90
  -1   1  -4  191.68   15.40
   1   1   4  230.98   14.80
  -2  -1  -4 2900.81  197.08
  -2  -1  -4 2860.71  196.78
  -2   1  -4 2938.01  196.98
  -3  -1  -4  223.48   20.60
   3  -1   4  242.88   22.20
   3  -1   4  249.68   22.40
   3   1   4  204.28   22.60
   3   1   4  215.08   21.40
   3   1   4  239.48   22.60
   4  -1   4   77.89   11.10
   4   1   4   71.59   12.10
   4   1   4   77.49   12.10
  -4   1  -4   64.79   16.10
   4  -2  -4  267.27   20.30
  -4  -2   4  211.98   20.50
   4  -2  -4  262.77   20.30
   4   2  -4  238.98   21.70
   4   2  -4  231.18   21.50
  -4   2   4  238.58   22.30
   3  -2  -4   14.90    9.70
  -3  -2   4   -2.40    8.40
   3  -2  -4   11.60    7.70
   3   2  -4    6.60    5.70
   3   2  -4    8.60    3.40
   3   2  -4   11.00   12.20
  -2  -2   4  757.12   50.29
  -2  -2   4  695.03   50.79
  -2  -2   4  745.13   50.59
   2   2  -4  675.23   49.60
   2   2  -4  773.52   50.39
  -2   2   4  720.53   50.79
   1  -2  -4  466.05   36.20
  -1  -2   4  582.54   36.50
  -1  -2   4  580.34   36.40
  -1  -2   4  547.05   36.50
   1  -2  -4  491.55   36.10
   1  -2  -4  473.55   36.10
   1   2  -4  555.84   36.90
   1   2  -4  521.75   36.70
  -1   2   4  576.44   36.30
  -1   2   4  555.94   36.40
  -1   2   4  528.25   36.50
   1   2  -4  448.26   36.50
   0  -2  -4   71.69    6.70
   0  -2  -4   62.39    6.70
   0  -2  -4   78.69    6.10
   0  -2   4   82.69    6.00
   0  -2   4   73.29    5.70
   0   2   4   87.19    6.10
   0   2  -4   69.59    7.00
   0   2   4   83.39    6.00
   0   2  -4   72.79    5.90
   0   2   4   77.39    6.00
   0   2   4   70.89    6.40
  -1  -2  -4 1370.56   87.39
  -1  -2  -4 1108.39   87.59
   1   2   4 1365.86   87.19
   1   2   4 1388.66   87.19
  -1   2  -4 1085.79   87.29
  -1   2  -4 1371.86   86.99
  -2  -2  -4  428.86   31.00
   3  -2   4  202.18   22.00
   3  -2   4  211.68   20.90
  -3  -2  -4  222.28   18.10
   3   2   4  190.78   22.30
   3   2   4  194.78   19.80
   3   2   4  191.68   21.90
   4  -2   4  116.29   12.60
  -4  -2  -4   86.59   14.90
   4   2   4   68.49   13.70
   4   2   4  100.99   12.20
  -4  -3   4    3.20    7.00
   4  -3  -4    5.50    5.80
   4  -3  -4    6.80    6.80
  -4  -3   4   -9.30   22.40
   4   3  -4   -3.40    9.20
   4   3  -4    2.70    8.00
   3  -3  -4  116.09   15.80
   3  -3  -4  115.29   14.10
  -3  -3   4   74.09   12.40
  -3  -3   4   83.39   14.40
   3   3  -4   75.99   18.90
   3   3  -4   83.49    9.20
   3   3  -4  108.89   11.50
  -2  -3   4  135.79   11.40
  -2  -3   4  104.49   13.50
  -2  -3   4  140.29   10.60
  -2   3   4  118.29   12.60
   2   3  -4  126.69   10.20
   2   3  -4  142.09   11.10
  -2   3   4  118.29   11.00
  -1  -3   4   61.89    5.50
  -1  -3   4   52.99    5.10
  -1  -3   4   51.79    4.90
   1  -3  -4   46.40    5.40
  -1   3   4   50.69    5.50
  -1   3   4   55.39    5.70
  -1   3   4   52.29    5.40
   1   3  -4   43.90    5.50
   0  -3  -4  370.86   26.40
   0  -3   4  400.46   26.20
   0  -3  -4  366.76   26.70
   0  -3   4  379.56   26.20
   0  -3  -4  347.97   26.70
   0   3  -4  389.36   26.40
   0   3  -4  363.26   26.70
   0   3  -4  349.67   26.50
   0   3   4  381.86   26.50
   0   3   4  406.66   26.40
   0   3   4  373.96   26.50
   0   3   4  397.76   26.40
  -1  -3  -4    1.50    2.70
  -1  -3  -4    3.00    2.30
   1   3   4    2.10    1.70
  -1   3  -4    8.20    2.30
  -1   3  -4    7.00    3.40
   1   3   4    5.80    2.20
   1   3   4    4.60    1.90
  -2  -3  -4  377.76   29.60
  -2  -3  -4  367.26   27.20
  -3  -3  -4    7.60    7.50
   3  -3   4   13.40   10.00
   3   3   4   10.40   11.50
   3   3   4    7.80   13.60
   3   3   4   -1.80    8.40
  -4  -3  -4   -3.00    8.70
   4  -3   4   -0.50    7.20
   4   3   4    7.40    9.90
   4   3   4    8.20    6.90
  -4  -4   4    2.40    6.00
   4  -4  -4   -1.30    6.20
   4  -4  -4    4.70    6.80
  -4  -4   4   -9.30   10.60
   4   4  -4    3.50   10.10
   4   4  -4    1.60    4.60
   3  -4  -4   10.60    6.60
  -3  -4   4    0.10    7.40
  -3  -4   4    0.10    6.70
   3  -4  -4    9.70    9.50
   3   4  -4    3.10    3.70
   3   4  -4    6.10   14.20
   3   4  -4    0.80    5.70
  -2  -4   4    6.60    2.70
   2  -4  -4   13.30    9.20
   2  -4  -4   15.30   14.00
  -2  -4   4    4.10    3.80
  -2  -4   4   13.80    5.90
  -2   4   4    2.80    9.20
   2   4  -4    6.00    3.60
   2   4  -4    1.10    3.30
   2   4  -4    4.70    3.90
  -2   4   4   -1.80    5.90
  -1  -4   4    1.40    1.70
   1  -4  -4    3.80    3.40
  -1  -4   4    2.90    2.20
  -1   4   4    8.50    3.30
   1   4  -4    4.60    2.80
  -1   4   4    0.30    3.00
  -1   4   4    6.20    4.30
   1   4  -4    3.90    2.70
   0  -4   4  324.27   22.10
   0  -4   4  332.87   22.30
   0  -4  -4  334.57   22.80
   0  -4  -4  295.77   22.80
   0   4   4  343.97   22.70
   0   4   4  322.77   22.70
   0   4   4  312.97   22.80
   0   4   4  331.47   22.60
   0   4  -4  297.97   22.60
   0   4  -4  298.87   22.90
   0   4  -4  311.57   22.70
  -1  -4  -4    9.60    3.10
  -1  -4  -4   13.00    3.20
   1   4   4    9.20    2.70
  -1   4  -4    7.80    3.80
   1   4   4   11.80    2.50
   1   4   4   10.50    3.10
  -1   4  -4   12.90    3.50
  -2  -4  -4    2.20   21.30
  -2  -4  -4   15.40    6.20
  -2  -4  -4    5.40    7.60
   2   4   4    7.90    2.70
   2   4   4   21.20   13.50
   2   4   4   -5.00   13.60
   2   4   4    8.20    9.40
  -2   4  -4   11.20    7.70
  -3  -4  -4   18.90    7.60
   3  -4   4   18.20   10.70
   3   4   4   14.70   14.10
   3   4   4    1.20   10.10
   3   4   4   10.80    9.40
   4  -4   4   -1.10    7.60
  -4  -4  -4    2.60    7.90
   4   4   4    7.20    6.40
   4   4   4    6.60    9.30
   4  -5  -4    7.00    6.50
   4  -5  -4    3.10    5.70
  -4  -5   4    3.80    8.60
  -4  -5   4    7.10    5.80
   4   5  -4   -1.60   11.60
   4   5  -4    7.10    4.90
  -3  -5   4  199.48   18.60
   3  -5  -4  228.28   20.20
   3  -5  -4  205.18   20.50
  -3  -5   4  238.38   17.80
  -3  -5   4  167.68   20.00
   3   5  -4  196.68   27.30
   3   5  -4  218.68   18.30
   3   5  -4  205.88   16.60
   2  -5  -4  378.06   31.30
  -2  -5   4  403.46   26.90
   2  -5  -4  362.16   33.20
  -2  -5   4  384.86   27.10
  -2  -5   4  364.36   27.70
   2   5  -4  360.16   27.20
   2   5  -4  401.36   30.90
   2   5  -4  382.56   27.20
   2   5  -4  353.76   27.20
   2   5  -4  360.66   29.80
  -1  -5   4  564.74   43.40
  -1  -5   4  646.94   42.30
  -1  -5   4  635.04   42.20
  -1   5   4  654.63   42.80
  -1   5   4  604.24   43.20
   1   5  -4  561.14   42.50
   1   5  -4  621.14   43.10
   1   5  -4  631.54   42.70
   1   5  -4  543.25   42.60
   1   5  -4  617.44   42.50
  -1   5   4  638.04   43.00
   0  -5  -4  850.41   52.29
   0  -5   4  761.42   51.89
   0  -5  -4  760.62   52.29
   0  -5   4  739.63   51.79
   0   5   4  816.52   52.39
   0   5   4  708.43   52.49
   0   5  -4  731.13   52.39
   0   5  -4  722.63   52.49
   0   5   4  742.83   52.59
   0   5  -4  756.32   52.69
  -1  -5  -4   11.00    6.20
  -1  -5  -4   12.20    3.50
  -1  -5  -4    7.20    4.10
  -1   5  -4    2.90    4.80
   1   5   4   15.70    3.30
   1   5   4   14.10    4.60
   1   5   4    9.10    2.80
  -2  -5  -4  355.36   24.00
  -2  -5  -4  290.77   27.70
   2  -5   4  230.18   37.10
  -2  -5  -4  327.67   22.60
   2   5   4  281.27   26.30
   2   5   4  304.97   21.40
   2   5   4  249.28   28.60
   2   5   4  287.57   27.70
  -3  -5  -4   95.39   11.30
   3  -5   4  100.49   18.00
  -3  -5  -4   83.39   14.70
   3   5   4   77.09   16.20
   3   5   4   97.69   15.30
   3   5   4   83.39   17.60
  -4  -5  -4    8.00    7.30
   4  -5   4   20.10    9.10
   4   5   4   22.40    9.50
   4   5   4   15.70    6.90
  -4  -6   4  135.19   14.30
   4  -6  -4  131.59   13.10
   4   6  -4  163.48   13.00
   4   6  -4  150.28   20.00
   3  -6  -4   29.30    9.40
  -3  -6   4   22.00    9.30
  -3  -6   4   24.30    8.40
  -3  -6   4   17.30    8.50
  -3  -6   4   41.90    8.10
   3   6  -4   23.50    7.40
   3   6  -4   35.30    5.80
   2  -6  -4  588.14   44.90
  -2  -6   4  591.54   42.90
  -2  -6   4  660.63   47.30
  -2  -6   4  518.25   44.30
  -2  -6   4  633.64   42.40
  -2  -6   4  643.64   42.60
   2  -6  -4  517.05   46.20
   2   6  -4  640.14   42.70
   2   6  -4  627.94   42.60
   2   6  -4  606.54   44.00
   2   6  -4  623.44   45.20
  -1  -6   4  583.04   39.10
  -1  -6   4  554.84   40.20
  -1  -6   4  584.54   39.00
   1   6  -4  602.54   40.10
  -1   6   4  547.05   40.40
  -1   6   4  564.54   40.80
   1   6  -4  483.85   39.50
  -1   6   4  603.54   40.20
   1   6  -4  610.24   39.50
   1   6  -4  556.24   39.50
  -1   6   4  494.05   41.60
   0  -6   4   29.90    4.10
   0  -6  -4   40.10    5.50
   0  -6  -4   41.60    5.30
   0   6   4   40.40    6.60
   0   6  -4   27.90    5.70
   0   6  -4   43.60    6.10
   0   6   4   35.80    5.80
   0   6  -4   35.60    6.80
   0   6  -4   34.90    5.60
   0   6   4   34.00    7.20
  -1  -6  -4 2547.65  178.38
  -1  -6  -4 2967.50  178.48
  -1   6  -4 2908.21  179.18
   1   6   4 2863.51  178.58
  -1   6  -4 2339.97  178.78
   1   6   4 2489.15  178.78
   1   6   4 2511.55  178.98
   1   6   4 2767.12  178.48
   1   6   4 2205.48  178.98
  -2  -6  -4  137.69   13.00
  -2  -6  -4  159.98   13.50
   2   6   4  103.29   19.80
   2   6   4  152.28   19.40
   2   6   4  112.19   19.60
   2   6   4  121.69   23.80
   2   6   4  160.08   11.90
  -3  -6  -4  167.08   18.10
  -3  -6  -4  198.28   16.60
  -3  -6  -4  173.18   21.30
   3   6   4  196.28   22.10
   3   6   4  192.08   18.90
   3   6   4  197.78   21.80
  -4  -6  -4   62.89   10.00
   4   6   4   44.60    9.50
   4   6   4   79.99   10.90
  -4  -7   4    2.90    5.40
   4  -7  -4   -5.00    4.60
   4  -7  -4   10.30    6.40
  -4  -7   4    4.70    5.50
   4   7  -4    5.40    5.20
  -3  -7   4  627.94   45.60
  -3  -7   4  611.64   45.60
   3  -7  -4  651.53   45.60
  -3  -7   4  628.54   44.60
  -3  -7   4  604.74   45.60
   3   7  -4  580.84   44.50
   3   7  -4  704.53   45.00
   2  -7  -4  442.86   37.80
  -2  -7   4  495.95   35.40
  -2  -7   4  460.25   37.40
  -2  -7   4  588.94   41.90
  -2  -7   4  481.65   35.70
  -2  -7   4  506.05   35.50
  -2  -7   4  546.45   39.50
   2   7  -4  492.55   35.60
   2   7  -4  492.65   36.30
   2   7  -4  506.65   35.90
   2   7  -4  512.75   37.20
   2   7  -4  485.45   37.90
  -1  -7   4  768.12   53.39
  -1  -7   4  837.12   57.09
  -1  -7   4  774.62   53.49
  -1  -7   4  821.82   55.89
   1   7  -4  790.52   53.89
  -1   7   4  763.92   54.89
   1   7  -4  674.43   53.89
   1   7  -4  813.32   54.39
   1   7  -4  788.52   53.99
   1   7  -4  787.12   55.59
  -1   7   4  709.33   54.59
   0  -7   4 2470.15  154.48
   0  -7  -4 2484.25  154.58
   0  -7  -4 2484.85  154.28
   0   7  -4 2269.77  155.68
   0   7   4 2272.57  155.28
   0   7  -4 2303.37  155.18
   0   7  -4 2194.88  155.38
   0   7   4 2200.18  155.08
   0   7   4 2139.69  155.78
   0   7  -4 2042.70  155.18
   0   7  -4 2161.98  155.38
  -1  -7  -4   14.40    7.80
   1  -7   4   15.50   11.40
  -1  -7  -4   18.60   11.60
  -1  -7  -4   18.40   10.80
  -1  -7  -4   14.50    3.60
   1   7   4   19.90    7.30
   1   7   4   23.60    4.60
   1   7   4   39.80   11.40
   1   7   4   13.70    4.70
   1   7   4   28.60    8.60
   1   7   4    5.20   10.90
  -1   7  -4   14.20    9.30
   1   7   4   16.20    9.90
  -2  -7  -4  780.52   55.19
  -2  -7  -4  774.52   56.39
   2  -7   4  873.61   67.69
  -2  -7  -4  816.22   55.29
  -2  -7  -4  833.12   61.49
   2   7   4  672.53   54.79
   2   7   4  877.01   57.19
   2   7   4  723.43   59.09
   2   7   4  749.62   56.99
   2   7   4  826.52   54.99
  -3  -7  -4  116.69   14.10
  -3  -7  -4   96.89   17.90
   3   7   4  136.69   17.50
   3   7   4  120.19   21.90
   3   7   4  136.69   14.10
   3   7   4  124.79   16.50
  -4  -7  -4   71.29   10.00
   4   7   4   53.29    9.00
  -4  -8   4  119.89   10.60
   4  -8  -4  111.19   12.20
   4   8  -4  137.99   11.60
   4   8  -4  126.59   15.10
  -3  -8   4   61.69   12.30
  -3  -8   4   75.09   10.60
  -3  -8   4   36.20   12.30
   3  -8  -4   55.29   11.30
   3  -8  -4   59.59   10.40
  -3  -8   4   69.49    9.70
   3   8  -4   46.50    8.60
   3   8  -4   46.70    9.40
  -2  -8   4  704.73   51.89
  -2  -8   4  710.23   51.99
  -2  -8   4  756.02   52.19
  -2  -8   4  757.12   53.99
  -2  -8   4  752.32   53.89
  -2  -8   4  748.83   53.49
   2   8  -4  781.42   52.19
   2   8  -4  701.73   52.79
   2   8  -4  776.82   53.49
   2   8  -4  710.43   52.29
   2   8  -4  785.92   52.69
  -1  -8   4 1013.60   65.69
  -1  -8   4  868.81   63.49
   1  -8  -4  823.12   68.89
   1  -8  -4 1037.20   64.89
  -1  -8   4  979.70   65.99
  -1  -8   4  890.01   63.59
   1   8  -4  938.61   64.19
   1   8  -4  916.31   65.39
   1   8  -4  957.10   64.49
  -1   8   4  923.71   64.19
   1   8  -4  776.42   64.09
   1   8  -4  965.50   64.19
   0  -8  -4  157.08   22.60
   0  -8   4  140.59   18.20
   0  -8   4  121.89   19.10
   0  -8   4  161.78   15.40
   0  -8  -4  147.79   11.40
   0  -8   4  123.19   20.70
   0   8  -4  153.38   12.70
   0   8  -4  118.89   16.50
   0   8  -4  170.08   18.20
   0   8   4  139.89   12.60
   0   8   4  148.29   17.40
   0   8   4  134.79   14.00
   0   8  -4  141.39   14.60
   0   8   4  155.78   12.90
   0   8  -4  122.49   12.70
  -1  -8  -4 1581.64  102.79
   1  -8   4 1427.06  104.79
  -1  -8  -4 1522.45  102.69
  -1  -8  -4 1632.04  104.49
   1  -8   4 1457.25  106.29
  -1  -8  -4 1414.26  104.19
   1  -8   4 1376.66  103.69
   1   8   4 1498.75  103.59
   1   8   4 1402.66  103.19
   1   8   4 1608.24  103.29
   1   8   4 1663.73  103.59
   1   8   4 1464.55  103.89
   1   8   4 1458.55  103.79
  -1   8  -4 1528.55  103.29
  -2  -8  -4  171.88   22.90
   2  -8   4  171.38   27.10
  -2  -8  -4  167.98   16.20
  -2  -8  -4  203.68   15.90
  -2  -8  -4  187.88   18.10
   2   8   4  214.48   18.80
   2   8   4  197.98   20.30
   2   8   4  133.89   20.30
   2   8   4  189.28   15.70
   2   8   4  170.18   16.90
   2   8   4  190.88   21.30
  -3  -8  -4  208.28   18.60
  -3  -8  -4  236.08   23.50
  -3  -8  -4  212.78   18.70
   3   8   4  261.27   21.60
   3   8   4  197.98   24.60
   3   8   4  244.18   19.80
  -4  -8  -4   31.50    5.70
   4   8   4   48.70    6.20
  -3  -9   4  214.58   18.10
   3  -9  -4  236.18   18.80
   3  -9  -4  206.88   20.30
  -3  -9   4  231.08   18.20
   3   9  -4  244.08   17.80
   3   9  -4  194.48   17.50
  -2  -9   4   39.20    8.30
  -2  -9   4   44.80    7.40
   2  -9  -4   24.90    8.10
   2  -9  -4   48.60   12.80
  -2  -9   4   38.70    9.30
  -2  -9   4   28.40    6.80
   2   9  -4   44.60    8.30
   2   9  -4   38.90    8.00
   2   9  -4   46.70    8.50
  -2   9   4   48.10    9.60
   2   9  -4   34.50    8.40
   2   9  -4   33.00    9.80
  -1  -9   4  206.08   17.20
   1  -9  -4  210.18   16.90
  -1  -9   4  213.28   18.90
  -1  -9   4  185.18   14.30
   1  -9  -4  153.58   19.90
  -1  -9   4  207.38   18.20
   1   9  -4  181.98   15.70
   1   9  -4  165.48   15.70
   1   9  -4  181.58   16.70
   1   9  -4  188.98   17.20
  -1   9   4  186.48   15.90
  -1   9   4  185.58   22.20
   1   9  -4  189.78   15.70
   0  -9  -4  749.23   49.60
   0  -9   4  729.73   51.19
   0  -9   4  729.23   50.29
   0  -9  -4  660.23   47.60
   0  -9  -4  711.13   54.99
   0  -9   4  722.03   49.20
   0  -9  -4  714.13   51.09
   0  -9   4  626.24   53.89
   0   9  -4  685.43   49.20
   0   9  -4  676.33   50.29
   0   9   4  721.43   49.30
   0   9   4  632.64   50.39
   0   9   4  647.64   48.50
   0   9  -4  697.13   49.50
   0   9  -4  666.53   48.80
   0   9  -4  675.13   49.90
   0   9   4  739.73   49.90
   0   9   4  722.93   50.09
   1  -9   4   -5.00    8.30
   1  -9   4    1.60   13.20
   1  -9   4    2.90    7.50
  -1  -9  -4    9.60   15.60
  -1  -9  -4    4.60    4.20
  -1  -9  -4   19.50    9.00
  -1  -9  -4   -1.80    4.50
  -1  -9  -4   11.80    7.90
   1   9   4    5.00    5.50
   1   9   4    3.70    5.50
   1   9   4   -5.00    7.80
   1   9   4    0.00    7.40
   1   9   4    1.00    5.30
  -1   9  -4   -5.50    6.00
   1   9   4    6.50    7.10
  -2  -9  -4  211.48   18.20
  -2  -9  -4  238.08   21.50
   2  -9   4  216.78   25.50
  -2  -9  -4  190.88   19.10
  -2  -9  -4  224.08   18.10
   2   9   4  183.98   20.60
   2   9   4  242.38   21.30
   2   9   4  221.18   19.30
   2   9   4  219.08   20.60
   2   9   4  225.78   18.10
   2   9   4  226.28   22.50
  -3  -9  -4  105.89   12.40
  -3  -9  -4   85.89   10.90
  -3  -9  -4   88.99   17.20
   3   9   4  103.29   11.20
   3   9   4   97.39   17.70
  -3 -10   4    7.30    7.60
  -3 -10   4    5.10    4.20
  -3 -10   4    2.70    8.20
   3 -10  -4    6.40    4.90
   3  10  -4    7.50    4.20
  -2 -10   4  177.28   15.70
  -2 -10   4  164.08   16.60
   2 -10  -4  164.48   17.30
  -2 -10   4  188.78   16.00
  -2 -10   4  165.18   13.80
   2  10  -4  164.48   14.40
  -2  10   4  157.88   15.40
   2  10  -4  168.78   15.50
   2  10  -4  175.98   14.90
   2  10  -4  130.09   17.50
   1 -10  -4  144.79   18.70
  -1 -10   4  185.08   16.80
  -1 -10   4  201.48   17.80
   1 -10  -4  192.68   15.80
  -1 -10   4  171.98   13.80
  -1 -10   4  208.38   16.30
   1  10  -4  175.88   16.00
   1  10  -4  184.28   16.00
   1  10  -4  186.68   16.00
  -1  10   4  185.88   15.10
  -1  10   4  150.38   18.70
   1  10  -4  167.98   15.20
   1  10  -4  176.98   16.70
   0 -10  -4    0.30    8.60
   0 -10   4   22.60    8.70
   0 -10   4   12.30    5.30
   0 -10  -4   14.70    6.90
   0 -10   4   13.90    9.30
   0 -10   4    5.70    6.30
   0 -10  -4   15.10   10.60
   0  10   4    9.00    7.30
   0  10  -4   10.70    6.80
   0  10   4   12.30    9.40
   0  10   4    7.70    8.30
   0  10  -4    9.70    7.70
   0  10  -4   10.70    7.00
   0  10   4   13.60    7.90
   0  10  -4   11.90    5.60
   1 -10   4   93.89   20.20
  -1 -10  -4   98.19   10.50
   1 -10   4  111.79   19.70
  -1 -10  -4  107.99   12.70
   1 -10   4  122.19   12.00
  -1 -10  -4   91.39    9.60
  -1 -10  -4   80.09   13.50
   1 -10   4   97.79   14.10
   1  10   4  107.19   12.10
  -1  10  -4   90.59   11.00
   1  10   4  107.69   13.00
   1  10   4  100.69   12.10
   1  10   4  118.09   11.60
   1  10   4   98.39   12.20
   1  10   4   95.99   13.30
  -2 -10  -4   15.40    6.40
  -2 -10  -4   17.00    8.20
  -2 -10  -4   27.80    8.00
   2  10   4   15.70   12.70
   2  10   4   29.70    8.60
   2  10   4   22.10    7.70
  -3 -10  -4   40.40    7.70
  -3 -10  -4   57.39    7.90
   3  10   4   55.69    9.70
   3  10   4   53.69    7.50
  -3 -11   4    5.70    5.90
   3 -11  -4   -1.20    4.30
  -3 -11   4    0.70    3.20
   3  11  -4    4.10    3.60
  -2 -11   4   13.30    6.20
  -2 -11   4   13.00    4.80
   2 -11  -4   14.60    5.70
  -2 -11   4    2.40    5.20
   2  11  -4   13.30    6.50
   2  11  -4    9.60    5.00
  -2  11   4   11.60    6.50
   2  11  -4    7.20    4.40
  -1 -11   4   84.49    9.60
  -1 -11   4   62.19   11.20
  -1 -11   4   69.89   10.90
   1 -11  -4   74.49    9.50
   1  11  -4   64.69   11.50
   1  11  -4   78.79    9.40
   1  11  -4   77.49   10.00
   1  11  -4   62.39   12.20
  -1  11   4   90.49   12.60
   1  11  -4   66.19   10.40
   0 -11   4   11.00    8.20
   0 -11   4   10.10    6.80
   0 -11   4   14.10    4.60
   0 -11  -4    5.90    5.60
   0 -11  -4   19.10    7.90
   0 -11   4   30.50    8.40
   0  11   4   -6.00    9.70
   0  11  -4   20.60    6.80
   0  11  -4   16.00    5.50
   0  11   4   15.20    7.60
   0  11  -4   13.60    7.40
   0  11   4   18.80    5.50
   0  11   4   24.90    8.60
   0  11   4    2.80    9.10
   0  11  -4   10.00    8.60
   1 -11   4   17.80    7.00
  -1 -11  -4   16.60    6.60
   1 -11   4   21.60   12.60
  -1 -11  -4    7.60    6.60
   1  11   4    9.10    5.10
  -1  11  -4    7.00    5.10
   1  11   4   12.60    8.20
   1  11   4   12.60    7.50
   1  11   4   17.30    7.50
  -1  11  -4   19.30    8.60
   1  11   4   15.30    7.20
  -2 -11  -4    8.60    5.60
  -2 -11  -4    2.90    7.70
  -2 -11  -4    6.90    6.20
   2  11   4    7.80    6.40
  -2  11  -4    9.60    8.00
   2  11   4   19.60    7.50
   2  11   4    9.40    6.50
  -3 -11  -4    1.80    4.30
  -3 -11  -4    5.50    3.70
   3  11   4    0.60    3.20
   3  11   4   18.10    7.10
  -3 -12   4    6.60    2.80
   3 -12  -4   10.60    3.60
  -3 -12   4    1.00    4.40
  -2 -12   4   33.60    6.70
  -2 -12   4   35.60    7.30
   2 -12  -4   27.30    6.10
  -2 -12   4   38.60    7.60
   2  12  -4   48.20    8.20
   2  12  -4   38.80    7.20
   2  12  -4   27.00    4.80
  -1 -12   4   69.39    7.80
   1 -12  -4   56.09    7.80
   1 -12  -4   69.39   12.30
  -1 -12   4   61.09    9.30
  -1 -12   4   57.09    9.30
  -1  12   4   66.59   10.90
   1  12  -4   58.29    8.90
   1  12  -4   62.79    9.00
   1  12  -4   40.40    9.20
   1  12  -4   70.59    9.20
   1  12  -4   54.59   10.80
   0 -12   4    1.00    3.80
   0 -12   4   12.20    5.60
   0 -12  -4   -5.80    6.30
   0 -12   4   10.90    7.00
   0 -12  -4    8.20    5.20
   0  12   4    2.40    4.90
   0  12   4   -3.90    6.60
   0  12  -4    2.10    5.00
   0  12  -4    9.00    7.50
   0  12   4   11.80    8.50
   0  12  -4    5.40    5.00
   0  12   4    6.30    5.90
   0  12  -4   -2.90   12.10
   0  12   4    5.10   11.80
  -1 -12  -4    7.30    5.70
   1 -12   4    6.30    4.70
   1 -12   4   20.60    7.60
  -1 -12  -4   12.20    5.40
   1  12   4   15.10    8.10
   1  12   4   17.30    6.60
   1  12   4    8.90    6.20
   1  12   4    1.70    7.90
   1  12   4    8.40   10.60
  -1  12  -4   -1.70    6.70
  -1  12  -4   20.30    5.30
   1  12   4   11.70    4.80
  -2 -12  -4   40.90    7.30
  -2 -12  -4   20.20    8.30
  -2 -12  -4   46.10    7.20
  -2 -12  -4   21.10    7.80
   2  12   4   38.80    7.60
   2  12   4   33.70    7.10
  -2  12  -4   39.30    7.40
   2  12   4   30.10    8.60
  -2 -13   4   33.90    5.70
  -2 -13   4   33.30    6.00
  -2 -13   4   35.30    4.90
   2 -13  -4   48.70    7.80
   2  13  -4   32.50    5.70
   2  13  -4   36.50    6.10
  -2  13   4   40.90    8.10
  -2  13   4   25.90    5.60
  -1 -13   4   54.89    6.50
  -1 -13   4   47.40    8.80
  -1 -13   4   45.40    8.10
   1  13  -4   51.79    7.90
  -1  13   4   49.90    7.70
   1  13  -4   40.80    8.40
  -1  13   4   49.40    7.40
   1  13  -4   40.50    9.10
  -1  13   4   66.09    9.20
   0 -13   4  220.78   17.00
   0 -13   4  211.28   19.10
   0 -13  -4  200.48   17.20
   0 -13   4  226.08   17.80
   0 -13  -4  215.68   19.80
   0 -13  -4  224.48   18.20
   0  13   4  247.58   18.30
   0  13   4  248.98   17.70
   0  13  -4  224.18   17.70
   0  13  -4  263.77   18.10
   0  13   4  259.77   18.30
   1 -13   4   11.10    4.50
   1 -13   4   22.10    7.60
  -1 -13  -4   10.70    4.60
  -1 -13  -4   20.90    5.60
   1  13   4    4.60   10.50
   1  13   4   21.00    6.40
   1  13   4    8.60    4.20
  -1  13  -4    2.40    6.40
   1  13   4   14.40    8.50
  -2 -13  -4   28.60    5.50
   2 -13   4   30.40    7.70
  -2 -13  -4   27.80    5.60
   2  13   4   31.50    5.40
   2  13   4   38.80    6.20
   2  13   4   41.20    6.70
  -2 -14   4   85.19    7.50
  -2 -14   4   81.49    6.80
  -2 -14   4   71.29    7.50
   2  14  -4   90.89    8.10
   2  14  -4   94.29    7.40
  -1 -14   4   93.19    8.80
   1 -14  -4  104.19   10.20
  -1 -14   4   90.29    8.00
  -1 -14   4   86.99    8.60
  -1  14   4  108.59    9.80
   1  14  -4   88.79    9.80
  -1  14   4  101.09    8.60
   1  14  -4  100.39    8.80
   1  14  -4   96.39   15.50
  -1  14   4   86.09   10.10
   0 -14   4    4.70    3.80
   0 -14  -4    2.40    3.10
   0 -14   4    2.00    2.50
   0 -14  -4    1.10    4.70
   0  14   4   -0.40    4.00
   0  14  -4    6.10    3.40
   0  14  -4    4.70    4.30
   0  14   4    2.10    5.30
   0  14   4    0.70    3.20
  -1 -14  -4   96.99    8.20
   1 -14   4   88.19    8.40
  -1 -14  -4   85.79    8.60
  -1  14  -4   82.19   11.10
   1  14   4   96.69    8.70
   1  14   4  102.19    9.10
  -2 -14  -4   24.40    3.80
  -2  14  -4   25.10   10.10
  -1 -15   4   40.70    3.90
  -1 -15   4   30.20    4.30
   1 -15  -4   41.00    6.60
   1  15  -4   36.30    4.70
  -1  15   4   46.00    6.90
  -1  15   4   34.80    6.90
   0 -15  -4   68.99    7.40
   0 -15   4   72.29    6.70
   0 -15  -4   62.99    6.30
   0  15   4   83.49    7.20
   0  15  -4   84.69    7.10
   0  15   4   83.99   10.00
   0  15   4   93.39    7.70
  -1 -15  -4   -1.50    1.90
  -1 -15  -4    2.80    2.90
   1  15   4    5.50    3.30
   1  15   4    2.40    2.80
  -1  15  -4   -2.20    3.80
   4   0  -5   20.80    5.90
  -4   0   5    0.30    8.00
   4   0  -5   11.80    8.00
   3   0  -5    4.10   10.80
   3   0  -5   -3.30    9.00
  -3   0   5   18.30    9.90
   3   0  -5    4.10    3.40
  -2   0   5    4.70    4.70
  -2   0   5   -0.50    3.70
   2   0  -5    1.70    3.10
  -2   0   5    8.10   10.00
  -1   0   5    3.90    2.90
   1   0  -5   -1.80    1.70
   1   0  -5   -1.00    2.40
  -1   0   5   -1.70    1.80
   1   0  -5   -1.10    2.90
  -1   0   5    0.30    2.40
   0   0   5    1.00    1.80
   0   0   5    0.60    1.60
   0   0  -5    1.80    1.80
   0   0  -5   -0.60    2.40
   0   0   5    2.20    1.30
   0   0  -5   -0.30    1.40
   0   0  -5    1.20    1.70
  -1   0  -5   -1.70    4.80
   1   0   5    2.60    1.60
  -1   0  -5   -1.30    2.60
  -1   0  -5   -1.50    2.20
  -2   0  -5   -5.80    8.90
   3   0   5    9.50   10.10
   3   0   5   23.70   11.80
  -3   0  -5    5.90   10.80
  -4   0  -5    1.90   11.70
   4   0   5    4.00    8.60
   4  -1  -5   31.90    8.00
   4  -1  -5   44.70   10.60
   4   1  -5   40.30   10.40
  -4   1   5   37.40    9.40
   3  -1  -5    8.50   10.00
   3  -1  -5   -1.60    7.90
  -3  -1   5   -7.00    8.60
  -3   1   5   -2.40   10.40
   3   1  -5    2.00   11.60
   3   1  -5    4.70    3.30
  -2  -1   5  312.77   23.40
  -2  -1   5  292.27   25.80
  -2  -1   5  314.47   22.90
   2  -1  -5  333.77   22.90
  -2   1   5  276.37   27.40
  -2   1   5  350.86   23.60
  -2   1   5  301.67   23.50
   2   1  -5  342.37   22.90
  -1  -1   5   26.50    3.50
  -1  -1   5   20.90    3.60
   1  -1  -5   24.70    5.00
   1  -1  -5   19.90    3.80
   1  -1  -5   25.20    3.60
  -1  -1   5   28.30    4.60
  -1   1   5   22.10    3.80
  -1   1   5   29.00    4.10
   1   1  -5   27.90    3.40
  -1   1   5   26.80    3.70
   1   1  -5   21.20    4.50
   1   1  -5   23.80    3.80
   0  -1  -5  104.49    8.60
   0  -1  -5  115.19    9.30
   0  -1   5  115.09    8.90
   0  -1   5  127.29    8.70
   0  -1  -5  117.09    9.00
   0  -1   5  123.89    8.70
   0   1  -5   99.79    9.20
   0   1  -5  126.69    8.80
   0   1   5  120.79    9.00
   0   1   5  125.79    8.90
   0   1   5  124.49    8.70
   0   1  -5  114.99    9.10
  -1  -1  -5  767.72   54.59
  -1  -1  -5  849.41   54.39
  -1  -1  -5  739.23   54.69
   1   1   5  879.81   53.99
  -1   1  -5  663.43   54.79
  -1   1  -5  739.73   54.39
   1   1   5  891.11   53.89
  -2  -1  -5   11.20    6.40
  -2   1  -5    4.90    6.20
   3  -1   5  206.08   21.10
   3  -1   5  237.78   21.90
  -3  -1  -5  241.28   19.80
  -3   1  -5  148.69   30.90
   3   1   5  202.68   21.90
   3   1   5  204.18   22.40
   3   1   5  215.48   21.60
  -4  -1  -5   11.00   10.40
   4  -1   5   17.90    8.50
  -4   1  -5   22.20   13.90
   4   1   5   11.60    9.40
  -4  -2   5   20.20    7.70
   4  -2  -5   21.40    6.50
   4  -2  -5   28.70    6.20
   4   2  -5   19.50    7.00
   4   2  -5   24.40   10.70
  -3  -2   5  491.35   39.50
   3  -2  -5  617.14   40.10
   3  -2  -5  561.24   40.90
  -3   2   5  504.65   40.40
   3   2  -5  572.34   37.90
   3   2  -5  471.35   42.40
  -2  -2   5   16.40    5.50
  -2  -2   5   20.60    8.00
  -2  -2   5   18.60    3.60
  -2  -2   5   11.80    6.20
  -2   2   5   18.80    7.40
   2   2  -5   12.20    3.00
  -2   2   5    4.10   12.50
  -1  -2   5 3087.79  187.28
  -1  -2   5 2941.51  187.18
   1  -2  -5 2496.65  186.98
  -1  -2   5 2895.71  187.08
   1  -2  -5 2522.65  186.98
  -1   2   5 2948.41  186.98
   1   2  -5 2718.63  186.88
  -1   2   5 2940.41  187.18
   1   2  -5 2517.05  187.18
   1   2  -5 2533.95  187.38
  -1   2   5 2856.51  187.18
  -1   2   5 2618.64  187.18
   0  -2  -5 2692.13  176.18
   0  -2  -5 2332.07  176.18
   0  -2   5 2492.55  175.98
   0  -2  -5 2706.63  176.48
   0  -2   5 2614.34  175.98
   0  -2   5 2727.83  175.98
   0   2  -5 2423.76  175.98
   0   2   5 2744.63  176.18
   0   2  -5 2375.36  176.18
   0   2  -5 2303.87  176.18
   0   2   5 2724.63  176.18
   0   2   5 2856.01  176.18
   0   2   5 2752.32  176.08
  -1  -2  -5  488.95   38.10
  -1  -2  -5  508.35   38.40
  -1  -2  -5  551.24   37.90
  -1   2  -5  576.64   37.30
   1   2   5  581.54   37.50
   1   2   5  566.14   37.60
  -2  -2  -5  229.38   16.80
  -2  -2  -5  177.18   17.30
  -3  -2  -5   89.39   12.00
   3  -2   5   72.29   15.60
   3  -2   5   91.19   15.50
   3   2   5   71.39   17.30
   3   2   5   64.99   11.60
   3   2   5  105.99   17.80
   4  -2   5  115.69   13.20
  -4  -2  -5   82.09   14.50
   4   2   5  117.19   12.80
   4   2   5  106.59   15.10
   4  -3  -5  175.68   16.80
   4  -3  -5  169.28   17.10
   4   3  -5  222.58   18.90
   4   3  -5  208.78   19.70
  -4   3   5  179.28   19.20
  -3  -3   5   21.20   13.50
   3  -3  -5   11.60    6.90
  -3  -3   5    0.00    7.70
   3  -3  -5   12.80    9.70
  -3  -3   5   18.60    7.90
   3   3  -5   17.10    6.20
   3   3  -5    3.10   14.20
  -2  -3   5 3379.86  212.98
  -2  -3   5 3193.68  212.88
  -2  -3   5 3154.48  213.08
   2  -3  -5 3325.17  213.88
  -2  -3   5 2969.30  213.28
   2  -3  -5 2985.80  214.28
   2   3  -5 3323.27  212.58
  -2   3   5 2871.91  213.18
   2   3  -5 2968.70  212.58
   1  -3  -5  900.41   57.69
  -1  -3   5  938.71   58.19
  -1  -3   5  902.31   57.99
   1  -3  -5  765.12   57.89
  -1  -3   5  936.51   57.89
  -1   3   5  892.01   57.99
   1   3  -5  714.83   57.99
  -1   3   5  766.72   58.39
  -1   3   5  778.92   58.09
   1   3  -5  808.42   58.19
  -1   3   5  866.01   57.89
   0  -3   5 3428.36  226.98
   0  -3   5 3236.28  226.88
   0  -3  -5 3342.47  227.38
   0  -3  -5 3283.27  227.38
   0   3  -5 3048.20  227.18
   0   3   5 3526.65  227.18
   0   3   5 3450.25  227.18
   0   3  -5 3423.66  227.18
   0   3   5 3529.25  227.18
   0   3  -5 3117.79  227.28
   0   3   5 3466.05  227.28
  -1  -3  -5 3273.07  229.58
  -1  -3  -5 3275.47  229.38
  -1   3  -5 3053.19  229.28
   1   3   5 3644.44  229.18
  -1   3  -5 3526.15  228.98
   1   3   5 3511.35  229.18
  -2  -3  -5   23.90    6.40
   2   3   5   46.00   14.40
   2   3   5   20.50   14.40
  -3  -3  -5  782.12   48.20
   3   3   5  595.04   50.99
   3   3   5  660.53   51.79
   3   3   5  661.93   49.30
  -4  -3  -5   33.10    9.30
   4  -3   5   41.90   10.30
  -4  -3  -5   60.59   24.50
   4   3   5   51.39    9.70
   4   3   5   38.70   11.00
  -4  -4   5   45.90    9.00
   4  -4  -5   55.59   10.20
  -4  -4   5   33.00   17.20
   4  -4  -5   40.00    9.20
   4   4  -5   51.99    8.80
   4   4  -5   69.39   13.80
   4   4  -5   49.40    7.10
   3  -4  -5 1177.68   78.99
   3  -4  -5 1071.79   79.39
  -3  -4   5 1173.88   78.59
  -3  -4   5  958.20   79.99
  -3  -4   5 1116.59   78.79
   3   4  -5 1138.69   81.59
   3   4  -5 1135.09   77.79
   3   4  -5 1272.87   78.59
  -2  -4   5   27.30    4.80
  -2  -4   5   19.90   13.70
   2  -4  -5   24.90    9.20
  -2  -4   5   29.40    5.00
   2  -4  -5   46.20   13.40
   2   4  -5   22.80    4.70
   2   4  -5   33.70    6.30
   2   4  -5   24.40    5.30
   2   4  -5   41.30    9.90
  -1  -4   5 2968.60  201.68
  -1  -4   5 3179.58  201.08
   1  -4  -5 2660.53  201.18
  -1  -4   5 3128.29  200.98
   1   4  -5 2525.15  201.08
  -1   4   5 3145.69  201.18
   1   4  -5 2744.83  201.18
  -1   4   5 3029.20  201.38
   1   4  -5 2982.50  201.08
   1   4  -5 3083.19  201.38
  -1   4   5 3119.79  201.18
   0  -4  -5 1105.39   80.89
   0  -4   5 1213.88   80.49
   0  -4   5 1174.48   80.39
   0  -4  -5 1247.78   80.99
   0   4   5 1134.59   80.79
   0   4   5 1200.98   80.79
   0   4  -5 1122.99   80.89
   0   4  -5 1112.99   80.89
   0   4   5 1232.58   80.79
   0   4   5 1270.17   80.89
   0   4  -5 1182.88   80.89
  -1  -4  -5  492.85   32.70
  -1  -4  -5  424.96   32.50
  -1  -4  -5  459.55   33.00
  -1   4  -5  460.45   32.10
   1   4   5  483.75   32.20
  -1   4  -5  423.36   32.60
   1   4   5  480.55   32.20
  -2  -4  -5 1871.71  121.49
  -2  -4  -5 1801.62  120.39
  -2  -4  -5 1813.32  119.79
   2   4   5 1695.73  119.19
   2   4   5 1592.04  122.09
   3  -4   5   83.29   16.80
  -3  -4  -5   62.19   11.40
   3   4   5   74.29   16.60
  -4  -4  -5  121.49   19.20
   4  -4   5  138.69   13.40
  -4  -4  -5  140.89   13.80
   4   4   5  106.49   15.80
   4   4   5  108.89   12.90
  -4  -5   5  120.49   11.10
  -4  -5   5   70.89   14.30
   4  -5  -5  112.59   11.30
   4  -5  -5   84.09   10.60
   4   5  -5   89.79   15.00
   4   5  -5  102.19    9.70
   3  -5  -5   39.90    9.70
  -3  -5   5   30.70   10.60
  -3  -5   5   22.40    6.30
   3  -5  -5   15.80    6.70
  -3  -5   5   16.10    7.80
  -3  -5   5   32.10   10.30
   3   5  -5   25.90    6.60
   3   5  -5   23.60    4.60
   2  -5  -5 1316.77   93.59
  -2  -5   5 1275.87   94.09
   2  -5  -5 1139.79   93.99
  -2  -5   5 1421.16   92.09
  -2  -5   5 1329.77   92.39
  -2  -5   5 1406.66   92.19
   2   5  -5 1395.16   92.29
   2   5  -5 1410.66   92.09
   2   5  -5 1417.06   93.29
   2   5  -5 1298.47   92.69
  -1  -5   5  490.95   36.50
  -1  -5   5  545.15   35.40
  -1  -5   5  537.25   35.30
  -1   5   5  508.25   35.90
   1   5  -5  532.35   35.80
  -1   5   5  492.65   36.40
   1   5  -5  450.05   35.70
   1   5  -5  537.15   36.10
  -1   5   5  476.95   37.60
   1   5  -5  480.85   35.60
  -1   5   5  517.85   36.30
   0  -5   5  595.24   39.70
   0  -5  -5  571.84   40.30
   0  -5  -5  660.93   40.30
   0  -5   5  607.04   39.80
   0   5   5  609.24   40.40
   0   5   5  600.94   40.50
   0   5  -5  566.54   40.70
   0   5  -5  564.74   40.70
   0   5   5  610.44   40.60
   0   5  -5  494.55   40.50
   0   5   5  572.94   40.60
   0   5   5  484.75   41.50
   0   5  -5  580.54   40.50
  -1  -5  -5 1923.51  127.59
  -1  -5  -5 2003.30  127.49
  -1  -5  -5 1791.02  127.39
  -1   5  -5 1849.42  127.49
   1   5   5 1682.83  127.49
   1   5   5 1872.51  127.29
   1   5   5 1953.80  127.29
  -2  -5  -5    3.10    5.40
  -2  -5  -5  -13.70   11.10
   2  -5   5    0.50   14.40
   2   5   5   -7.70   12.50
   2   5   5    4.30   11.10
   2   5   5   -2.10   10.90
  -3  -5  -5  374.16   25.40
  -3  -5  -5  304.97   29.70
   3  -5   5  381.06   34.20
   3   5   5  270.57   28.10
   3   5   5  373.26   28.10
   3   5   5  271.37   30.20
  -4  -5  -5    3.30   12.50
  -4  -5  -5    6.20    7.00
   4   5   5   15.30    7.10
   4  -6  -5   21.90    5.60
  -4  -6   5   17.90    7.40
   4   6  -5   19.40   10.00
   4   6  -5   16.40    4.60
  -3  -6   5  271.07   25.20
   3  -6  -5  316.67   24.40
  -3  -6   5  297.17   24.70
  -3  -6   5  312.57   22.40
  -3  -6   5  257.67   24.10
   3   6  -5  307.17   23.20
   3   6  -5  278.77   21.90
   2  -6  -5   17.70   10.80
  -2  -6   5    3.40    8.90
   2  -6  -5    9.40    8.00
  -2  -6   5   18.30    4.30
  -2  -6   5   16.10    5.70
  -2  -6   5    8.70   10.90
  -2  -6   5   13.90    4.00
   2   6  -5   12.40    9.50
   2   6  -5   10.20    4.30
   2   6  -5    8.90    8.30
   2   6  -5    4.80    4.40
   2   6  -5    4.40    6.30
  -1  -6   5  994.50   73.99
  -1  -6   5 1101.99   73.39
  -1  -6   5 1119.29   73.49
   1   6  -5  944.21   73.69
  -1   6   5 1000.10   74.39
   1   6  -5 1050.49   73.79
  -1   6   5 1051.39   74.69
   1   6  -5 1119.69   73.99
   1   6  -5 1138.39   73.89
  -1   6   5 1189.68   74.39
   0  -6  -5   70.29    7.70
   0  -6   5   72.99    6.40
   0  -6  -5   88.79    7.10
   0   6   5   70.89    9.60
   0   6  -5   64.19    8.50
   0   6   5   73.79    8.10
   0   6  -5   77.19    7.80
   0   6  -5   73.59    9.20
   0   6   5   62.89    9.90
   0   6   5   70.29    8.80
   0   6   5   76.69   10.70
   1  -6   5  100.19   17.90
  -1  -6  -5   91.79    8.40
  -1  -6  -5   96.99    9.20
  -1  -6  -5   83.99   11.00
  -1  -6  -5   79.69   13.50
   1   6   5  110.69   21.80
   1   6   5   75.79   13.10
  -1   6  -5   71.49   12.00
   1   6   5   78.29   14.80
  -1   6  -5   90.99   14.10
   1   6   5   80.39    8.40
   1   6   5   85.19    8.10
  -2  -6  -5  561.74   36.20
  -2  -6  -5  537.35   36.30
   2   6   5  531.75   35.20
   2   6   5  473.55   46.40
   2   6   5  429.16   39.80
   2   6   5  530.65   38.50
   2   6   5  402.46   40.20
  -3  -6  -5    3.00    8.30
  -3  -6  -5   16.60    7.30
  -3  -6  -5   14.40   13.00
   3   6   5   26.30   12.20
   3   6   5    7.40    7.80
   3   6   5    7.30   10.30
  -4  -6  -5   32.30   11.50
  -4  -6  -5   44.20    9.50
   4   6   5   50.39    9.50
   4  -7  -5   -6.20    4.40
   4  -7  -5   -3.50    5.20
  -4  -7   5    6.00    6.30
  -4  -7   5    5.70    5.60
   4   7  -5   -1.70    6.50
   4   7  -5    3.90    3.40
  -3  -7   5    5.10    6.10
  -3  -7   5   11.30    7.40
  -3  -7   5   16.60    7.00
   3  -7  -5   12.00    6.30
  -3  -7   5   10.50    9.00
   3  -7  -5    8.50    7.70
   3   7  -5    2.70    6.20
  -2  -7   5   26.80   10.10
  -2  -7   5   44.80    9.20
  -2  -7   5   38.30    6.90
  -2  -7   5   51.09    8.60
   2  -7  -5   28.10    8.20
   2  -7  -5   46.30   11.20
  -2  -7   5   43.60    6.80
   2   7  -5   28.10    5.30
   2   7  -5   38.20    7.70
   2   7  -5   37.30    7.60
   2   7  -5   31.80    8.30
  -2   7   5   51.69   11.70
   2   7  -5   20.80   10.40
  -1  -7   5   -0.80    2.70
  -1  -7   5    5.40   12.50
  -1  -7   5    1.00    7.90
  -1  -7   5   18.80    9.50
   1  -7  -5    8.00   14.20
  -1  -7   5    2.00    2.70
   1   7  -5   -4.20    5.10
  -1   7   5    1.70    7.40
   1   7  -5    4.00    8.40
   1   7  -5    7.10    8.30
   1   7  -5    0.60    3.40
   1   7  -5    4.00    3.70
  -1   7   5    3.60    8.10
   1   7  -5   -3.70    4.80
   0  -7  -5   21.70    4.10
   0  -7   5   22.60    3.40
   0  -7   5   15.30    7.90
   0  -7   5   25.20   12.30
   0  -7   5   36.70   10.90
   0   7  -5   17.20    7.80
   0   7  -5   12.90    5.70
   0   7   5   13.90    5.10
   0   7   5   24.80    6.00
   0   7   5   29.10    6.30
   0   7  -5   25.80    5.00
   0   7  -5   15.50    5.80
   0   7   5   30.50   10.20
   1  -7   5  118.29   18.50
  -1  -7  -5  100.29   13.20
   1  -7   5  105.59   13.50
  -1  -7  -5   80.29   17.20
  -1  -7  -5  116.19   10.00
   1  -7   5  145.09   31.20
  -1  -7  -5  118.19   17.40
  -1  -7  -5  128.59   10.70
   1   7   5  124.49   16.30
   1   7   5  121.89   14.10
   1   7   5  102.29   15.10
   1   7   5   95.49   17.60
   1   7   5  105.39   10.70
   1   7   5  103.69   10.30
  -1   7  -5  108.99   13.60
  -2  -7  -5   -0.10    8.50
  -2  -7  -5   17.20    6.70
  -2  -7  -5   -1.10   17.10
  -2  -7  -5   17.90    6.20
   2  -7   5  -18.70   14.50
   2   7   5    9.80   12.20
   2   7   5    5.70    8.90
   2   7   5   24.50   10.20
   2   7   5   18.40   15.60
  -3  -7  -5   10.90    6.90
  -3  -7  -5   14.20    7.50
  -3  -7  -5    1.80   13.60
  -3  -7  -5  -14.00   15.20
   3   7   5   18.80   11.40
   3   7   5    7.40    9.40
   3   7   5    1.20    7.00
  -4  -7  -5    6.70    6.80
  -4  -7  -5    4.80   13.30
   4   7   5   -4.50    6.40
   4   7   5    6.80    5.10
  -4  -8   5    6.80    4.80
   4  -8  -5   -1.50    5.60
   4  -8  -5    3.30    3.80
   4   8  -5    1.10    3.90
   4   8  -5    0.10    6.40
  -3  -8   5   26.60    6.70
  -3  -8   5   22.40    8.10
   3  -8  -5   14.00    8.00
   3  -8  -5   28.30    6.10
  -3  -8   5   28.90    6.80
   3   8  -5   36.70    6.30
   3   8  -5   32.00    6.40
  -2  -8   5   15.90    4.60
  -2  -8   5   11.50    7.90
  -2  -8   5    4.60    7.00
  -2  -8   5    1.00   11.60
   2  -8  -5    5.90    9.20
  -2  -8   5   15.10    4.90
  -2  -8   5   10.70    6.70
   2   8  -5   14.10    5.00
   2   8  -5   15.50    7.30
   2   8  -5   17.60    7.60
  -2   8   5   23.50    9.60
   2   8  -5   11.10    9.90
  -1  -8   5   13.10    7.20
  -1  -8   5   15.90    8.60
  -1  -8   5    4.30    3.30
   1  -8  -5    4.80    9.10
  -1  -8   5   -2.90    8.90
   1  -8  -5    2.70    7.60
  -1  -8   5    6.30    3.20
   1  -8  -5    0.10   13.30
   1   8  -5   -5.90    5.60
  -1   8   5    5.30    6.70
   1   8  -5    2.80    7.90
   1   8  -5    7.80    4.70
   1   8  -5    8.60    4.40
  -1   8   5   -5.10   14.20
   1   8  -5    3.30    5.80
   0  -8   5   -4.70   10.10
   0  -8  -5    7.70    8.10
   0  -8  -5   12.10   13.90
   0  -8   5    3.10   13.40
   0  -8   5    7.50    6.40
   0  -8  -5    1.40    3.60
   0  -8   5   12.30    9.30
   0   8   5    3.60    6.60
   0   8   5   29.80   11.40
   0   8  -5    3.00    5.20
   0   8   5    5.50    5.60
   0   8  -5   15.90   10.10
   0   8  -5    2.60    9.80
   0   8  -5    6.20    4.70
   0   8   5    1.90    5.60
   0   8  -5   10.30    7.00
  -1  -8  -5  -15.40    8.40
   1  -8   5   -7.50    8.40
   1  -8   5   -1.60   13.90
   1  -8   5    5.20    9.20
  -1  -8  -5   13.40    9.60
  -1  -8  -5    1.10    4.20
  -1  -8  -5   10.00    4.10
   1   8   5    1.40    4.80
   1   8   5   18.40    8.50
   1   8   5   -0.80    4.90
  -1   8  -5    0.40    6.70
   1   8   5    1.30    8.60
   1   8   5   15.10    8.50
   1   8   5   12.20    6.90
  -2  -8  -5  118.39   11.90
  -2  -8  -5   78.99   14.90
  -2  -8  -5   75.99   11.90
  -2  -8  -5   87.39   13.60
   2  -8   5   61.99   15.90
  -2  -8  -5   97.89   11.40
   2   8   5   86.29   14.40
   2   8   5  117.59   14.70
   2   8   5  107.79   11.10
   2   8   5   83.29   13.80
  -3  -8  -5  -14.80   13.60
  -3  -8  -5    6.10    6.70
  -3  -8  -5    3.80    6.30
   3   8   5   13.00   24.30
   3   8   5   27.90   10.70
   3   8   5    8.80    7.00
   3   8   5    7.30    6.30
   3  -9  -5   13.70    5.80
   3  -9  -5   11.80    8.30
  -3  -9   5   13.60   10.90
  -3  -9   5    8.60    9.00
  -3  -9   5   21.20    5.80
  -3  -9   5    0.10    6.40
   3   9  -5   14.10    4.80
  -2  -9   5  185.78   19.40
  -2  -9   5  176.78   14.80
   2  -9  -5  152.98   19.30
   2  -9  -5  157.18   18.70
  -2  -9   5  180.98   15.90
  -2  -9   5  195.88   17.30
  -2  -9   5  199.98   17.30
  -2   9   5  198.38   16.50
   2   9  -5  165.18   15.20
   2   9  -5  184.78   15.30
   2   9  -5  173.78   16.70
   2   9  -5  154.58   17.50
  -1  -9   5  130.59   14.80
   1  -9  -5   93.79   16.70
   1  -9  -5  123.39   21.70
   1  -9  -5  135.39   13.10
  -1  -9   5  121.89   10.20
  -1  -9   5  125.49   12.90
   1   9  -5  112.89   13.30
  -1   9   5  115.59   11.90
  -1   9   5  161.58   18.20
   1   9  -5  127.89   12.10
   1   9  -5  103.19   13.10
   1   9  -5  100.89   12.00
   1   9  -5  131.59   12.20
   0  -9   5   92.09   14.40
   0  -9   5  114.89   12.10
   0  -9   5  133.29   16.20
   0  -9  -5  116.19   13.40
   0  -9  -5  101.89    9.00
   0  -9  -5  120.99   18.60
   0  -9   5  109.69   22.90
   0  -9  -5  125.29   26.70
   0   9  -5  112.39   12.80
   0   9   5  109.29   10.80
   0   9  -5   84.89   14.40
   0   9   5  110.99   13.70
   0   9  -5   96.09   16.60
   0   9   5  100.69   15.70
   0   9  -5  106.49   14.70
   0   9   5  120.09   13.00
   0   9  -5  111.09   11.20
   0   9   5   87.59   14.70
   1  -9   5  236.58   20.90
  -1  -9  -5  251.07   21.30
  -1  -9  -5  225.18   18.60
   1  -9   5  282.47   26.00
  -1  -9  -5  244.48   18.50
  -1  -9  -5  246.88   21.70
   1  -9   5  255.77   22.20
   1  -9   5  228.68   29.30
   1   9   5  233.38   19.70
   1   9   5  265.57   20.40
  -1   9  -5  227.18   19.40
   1   9   5  245.38   21.30
   1   9   5  249.68   19.70
   1   9   5  262.47   20.70
   1   9   5  239.58   20.70
  -2  -9  -5    2.70    6.50
   2  -9   5    0.00   13.50
  -2  -9  -5   17.10    6.80
  -2  -9  -5    6.00   10.00
  -2  -9  -5   10.10    7.70
   2  -9   5   13.30   13.20
  -2  -9  -5   18.10    9.60
   2   9   5  -16.80   13.20
   2   9   5   14.80    9.10
   2   9   5    0.10    9.60
   2   9   5   17.60    6.80
   2   9   5   13.90    9.70
   2   9   5    9.70    6.60
  -3  -9  -5  126.09   13.60
  -3  -9  -5   93.79   10.90
  -3  -9  -5   98.59   17.40
   3   9   5  104.99   11.60
   3   9   5   88.99   16.20
   3   9   5  126.89   14.40
   3 -10  -5  231.68   17.30
  -3 -10   5  199.48   19.30
  -3 -10   5  197.88   16.40
   3  10  -5  217.38   16.20
   2 -10  -5   79.19   13.40
  -2 -10   5   81.39   13.10
   2 -10  -5   91.59   12.70
  -2 -10   5   75.69   10.60
  -2 -10   5   59.59    8.80
  -2 -10   5   76.69   10.50
   2  10  -5   73.09   10.80
   2  10  -5   52.79   11.20
   2  10  -5   77.29   10.30
  -2  10   5   88.69   10.60
   2  10  -5   68.09    9.20
   1 -10  -5  962.70   77.29
   1 -10  -5 1037.80   76.19
  -1 -10   5 1096.59   75.69
  -1 -10   5 1148.19   76.79
  -1 -10   5 1169.98   77.29
  -1 -10   5 1163.58   76.99
   1  10  -5 1106.19   76.79
   1  10  -5 1159.48   77.09
   1  10  -5 1037.90   76.49
   1  10  -5 1143.29   76.89
  -1  10   5 1031.10   77.09
  -1  10   5 1171.08   76.29
   1  10  -5 1148.49   76.59
   0 -10  -5  287.17   28.40
   0 -10  -5  280.37   24.20
   0 -10   5  320.07   23.90
   0 -10  -5  297.27   22.50
   0 -10   5  283.67   21.80
   0 -10   5  292.97   23.20
   0 -10   5  255.67   28.40
   0  10   5  290.57   23.70
   0  10  -5  305.27   21.80
   0  10   5  285.37   23.10
   0  10  -5  288.47   23.60
   0  10  -5  256.57   30.10
   0  10   5  290.87   23.80
   0  10   5  264.07   23.80
   0  10  -5  248.38   22.50
  -1 -10  -5  153.48   13.90
  -1 -10  -5  168.68   16.40
   1 -10   5  176.48   17.00
   1 -10   5  201.38   20.50
  -1 -10  -5  166.68   17.00
   1 -10   5  155.88   15.50
  -1  10  -5  125.99   20.40
   1  10   5  190.08   16.20
   1  10   5  172.68   15.30
   1  10   5  171.68   16.20
   1  10   5  186.78   16.50
  -1  10  -5  185.38   14.80
   1  10   5  159.28   15.80
   1  10   5  182.18   16.40
  -2 -10  -5  349.17   26.90
  -2 -10  -5  303.07   25.90
   2 -10   5  382.56   32.40
  -2 -10  -5  327.97   25.60
   2  10   5  335.77   26.00
   2  10   5  332.97   25.90
  -2  10  -5  381.46   27.40
   2  10   5  334.67   26.40
   2  10   5  350.96   27.50
  -3 -10  -5    2.20    4.30
  -3 -10  -5    3.80    4.40
   3  10   5    1.30    4.10
   3  10   5   34.70   13.50
   3 -11  -5   -4.50    4.00
  -3 -11   5   -2.60    3.10
  -3 -11   5    5.20    5.90
   3  11  -5    4.70    3.50
  -2 -11   5  294.17   21.70
  -2 -11   5  263.97   22.50
   2 -11  -5  280.17   22.70
  -2 -11   5  278.37   21.80
  -2 -11   5  268.27   21.40
  -2  11   5  301.17   21.50
   2  11  -5  294.97   21.40
   2  11  -5  288.07   21.70
   2  11  -5  299.17   22.60
  -1 -11   5   97.19   11.80
  -1 -11   5   96.49   12.00
   1 -11  -5   95.09   10.70
  -1 -11   5   91.89   10.70
   1 -11  -5  113.19   15.30
  -1  11   5  110.49   13.80
   1  11  -5  131.49   12.20
   1  11  -5   95.59   10.70
  -1  11   5   94.49   14.90
   1  11  -5  108.29   11.60
  -1  11   5  116.99   10.40
   1  11  -5  109.59   14.10
   1  11  -5  104.59   13.30
   0 -11  -5  288.47   22.80
   0 -11   5  297.27   22.80
   0 -11   5  315.17   22.40
   0 -11   5  293.27   20.80
   0 -11  -5  279.97   21.60
   0  11   5  254.67   22.00
   0  11   5  267.57   24.30
   0  11   5  232.18   24.20
   0  11  -5  249.48   24.40
   0  11  -5  292.27   21.00
   0  11   5  267.27   22.30
   0  11  -5  270.77   21.70
   1 -11   5  283.97   22.20
   1 -11   5  303.17   24.80
  -1 -11  -5  298.17   22.40
   1 -11   5  285.47   27.10
  -1 -11  -5  266.87   21.80
   1 -11   5  294.67   23.20
  -1 -11  -5  268.67   20.70
  -1  11  -5  301.87   21.30
   1  11   5  283.87   22.60
   1  11   5  293.17   21.70
   1  11   5  267.67   22.60
   1  11   5  281.47   22.20
  -1  11  -5  242.18   23.50
   1  11   5  252.67   22.80
  -2 -11  -5   -1.20    8.30
  -2 -11  -5    0.20    5.90
   2 -11   5  -14.30   10.30
  -2 -11  -5   -7.50    6.80
  -2 -11  -5    7.50    5.30
   2  11   5    3.70    5.30
   2  11   5    9.60    6.50
   2  11   5    1.90    7.40
   2  11   5    3.40    6.00
  -2  11  -5    2.80    7.30
  -3 -11  -5  111.39    9.90
   3  11   5  131.89    9.80
  -2 -12   5    7.90    3.70
  -2 -12   5   12.70    5.50
  -2 -12   5   14.30    4.40
   2 -12  -5    1.90    5.10
   2  12  -5    0.90    4.30
   2  12  -5    4.70    7.70
   2  12  -5    1.10    3.60
   1 -12  -5  358.16   28.60
  -1 -12   5  384.96   27.10
  -1 -12   5  383.76   27.70
  -1 -12   5  384.96   27.70
   1 -12  -5  350.46   26.80
   1  12  -5  371.56   27.50
   1  12  -5  428.86   27.80
  -1  12   5  375.96   28.10
   1  12  -5  364.46   29.10
   1  12  -5  366.76   27.50
   0 -12  -5  197.78   15.70
   0 -12  -5  204.88   17.00
   0 -12   5  184.28   16.00
   0 -12   5  206.98   16.70
   0 -12   5  187.98   14.80
   0  12   5  219.28   16.20
   0  12  -5  177.18   25.40
   0  12  -5  165.58   15.70
   0  12   5  178.48   17.00
   0  12   5  153.78   22.90
   0  12   5  197.98   15.90
   0  12   5  219.38   17.00
  -1 -12  -5   22.90    5.90
   1 -12   5   25.80    5.40
  -1 -12  -5   22.90    5.30
   1 -12   5   16.20    8.10
   1 -12   5   27.60   10.80
   1  12   5   35.30    6.00
  -1  12  -5   26.20    5.40
   1  12   5   24.90    6.60
   1  12   5   27.70    6.70
   1  12   5   16.60    8.80
   1  12   5   27.40    8.50
  -1  12  -5   20.90    6.90
   2 -12   5  164.18   18.10
  -2 -12  -5  137.49   12.20
  -2 -12  -5  138.19   12.70
   2  12   5  160.98   12.30
   2  12   5  146.69   13.00
   2  12   5  145.49   13.10
  -2 -13   5   86.89    7.70
  -2 -13   5   82.29    8.20
  -2 -13   5   84.19    7.90
   2  13  -5   78.49    8.30
   2  13  -5   94.69    8.20
  -2  13   5   95.99    9.90
  -2  13   5   88.49    9.10
  -1 -13   5   15.30    3.90
  -1 -13   5   16.10    5.50
  -1 -13   5   23.40    4.70
   1  13  -5   15.50    6.40
  -1  13   5   13.40    5.90
   1  13  -5   11.40   10.00
  -1  13   5   19.10    5.00
   1  13  -5   13.00    4.80
   1  13  -5   11.20    5.30
  -1  13   5   17.50    4.10
   0 -13  -5  105.19    9.60
   0 -13   5  104.99   10.10
   0 -13  -5   85.09   10.80
   0 -13  -5  107.39   13.30
   0 -13   5   92.39   11.00
   0 -13   5  102.69    9.00
   0  13   5   79.79   12.30
   0  13   5   99.99    9.60
   0  13   5  127.99   10.90
   0  13  -5  115.49   10.20
   0  13  -5   95.69    9.90
  -1 -13  -5   46.30    8.00
   1 -13   5   55.49    7.40
  -1 -13  -5   51.19    7.00
  -1  13  -5   67.19    7.50
   1  13   5   52.09    8.40
   1  13   5   67.09    8.50
  -1  13  -5   34.40    7.40
   1  13   5   45.10    7.40
  -2 -13  -5    1.20    3.30
  -2 -13  -5    3.30    3.50
   2  13   5    0.20    4.20
   2  13   5    0.70    3.60
   2  13   5    3.40    4.30
  -2  13  -5   -8.30    5.90
  -1 -14   5   18.20    3.20
  -1 -14   5   26.30    4.60
  -1 -14   5   30.40    5.70
   1  14  -5   27.40    5.20
  -1  14   5   15.20    5.10
  -1  14   5   17.30    5.30
  -1  14   5   26.60    5.30
   0 -14  -5    2.40    2.90
   0 -14   5    1.60    6.30
   0 -14   5    2.20    3.20
   0 -14  -5   13.00    4.60
   0 -14   5    2.90    2.40
   0  14  -5    4.80    3.60
   0  14   5    1.80    3.70
   0  14   5    5.20    5.50
   0  14  -5    5.20    4.10
  -1 -14  -5    7.60    3.60
  -1 -14  -5   12.00    3.10
   1  14   5    8.40    3.90
  -1  14  -5   16.40    6.20
   1  14   5    5.80    3.60
   0 -15  -5    0.00    2.30
   0 -15   5    2.20    2.40
   0  15  -5    3.70    2.80
   0  15   5    3.20    3.20
   0  15  -5    0.50    4.90
   0  15   5   -2.80    3.00
   0  15   5   -4.60    6.60
   4   0  -6  190.88   16.40
   4   0  -6  157.38   17.40
  -4   0   6  197.58   16.60
  -3   0   6  396.06   33.10
   3   0  -6  419.06   35.30
   3   0  -6  515.65   34.80
  -2   0   6 1771.42  130.89
  -2   0   6 1948.41  130.29
  -2   0   6 1840.12  130.49
   2   0  -6 2074.19  129.99
  -1   0   6   15.50    3.00
  -1   0   6   15.90    3.90
   1   0  -6    8.80    3.10
   1   0  -6   18.80    4.10
  -1   0   6   17.50    3.70
   1   0  -6   12.20    3.80
   0   0   6 9486.15  600.74
   0   0  -6 8743.53  600.44
   0   0  -6 9079.59  600.94
   0   0   6 8682.83  600.44
   0   0  -6 8047.29  600.74
   0   0   6 9209.38  600.64
   0   0  -6 8881.51  600.94
  -1   0  -6 1448.66  101.59
   1   0   6 1610.84  100.99
  -1   0  -6 1331.87  101.69
  -1   0  -6 1556.04  101.59
  -2   0  -6  347.87   24.70
   2   0   6  274.27   31.70
  -3   0  -6  612.74   42.10
   3   0   6  584.24   43.70
   3   0   6  520.75   43.30
   4   0   6    4.30    7.90
  -4   0  -6   -8.50   10.60
   4  -1  -6  180.28   18.80
   4  -1  -6  235.08   18.30
  -4  -1   6  218.08   18.70
  -4   1   6  231.28   18.60
   4   1  -6  194.78   20.20
   4   1  -6  229.18   18.40
   3  -1  -6  739.13   46.70
   3  -1  -6  631.64   47.50
  -3  -1   6  574.34   46.00
  -3   1   6  608.04   46.00
   3   1  -6  604.24   48.50
   3   1  -6  675.73   44.60
  -2  -1   6   76.89   13.10
  -2  -1   6   96.39   11.00
  -2  -1   6   99.59   11.40
   2  -1  -6  117.59   22.90
  -2  -1   6   99.79    9.20
  -2   1   6  112.89   14.30
  -2   1   6  115.79   10.80
   2   1  -6  105.29    9.10
  -1  -1   6 6250.37  390.36
  -1  -1   6 6209.38  390.46
   1  -1  -6 5450.25  390.26
   1  -1  -6 5562.84  390.46
   1  -1  -6 5558.74  390.46
  -1  -1   6 6127.89  390.26
  -1   1   6 6053.09  390.36
  -1   1   6 5873.61  390.26
   1   1  -6 5575.74  390.16
   1   1  -6 5255.27  390.46
   1   1  -6 5154.98  390.76
  -1   1   6 6070.79  390.36
   0  -1   6   21.70    3.00
   0  -1  -6   16.70    3.00
   0  -1  -6   19.30    3.30
   0  -1  -6   17.30    3.50
   0  -1   6   20.00    3.20
   0  -1   6   19.40    3.40
   0   1  -6   23.20    3.50
   0   1  -6   16.10    3.60
   0   1  -6   26.90    3.60
   0   1   6   18.70    3.10
   0   1  -6   24.20    3.30
  -1  -1  -6 1953.90  136.59
   1  -1   6 2005.40  135.69
  -1  -1  -6 1863.91  136.59
  -1  -1  -6 2019.10  136.39
  -1  -1  -6 2145.89  136.69
   1   1   6 2127.49  135.99
  -1   1  -6 1989.90  136.49
  -1   1  -6 1777.12  136.39
   1   1   6 2150.98  135.89
  -2  -1  -6  875.61   58.59
  -2  -1  -6  847.62   59.49
  -2   1  -6  950.90   59.29
   2   1   6  687.93   60.89
   3  -1   6   27.80   10.60
  -3  -1  -6   57.19   12.60
   3  -1   6   42.50   12.00
   3   1   6   54.09   14.20
   3   1   6   32.40   11.90
  -3   1  -6   44.50   12.20
   3   1   6   45.60   11.70
   4  -1   6  175.58   15.70
  -4  -1  -6  147.49   17.20
   4   1   6  149.88   16.40
   4  -2  -6   45.20    9.90
   4  -2  -6   38.50    9.20
  -4  -2   6   32.50    8.70
   4   2  -6   35.50   10.80
   4   2  -6   34.80    7.00
  -4   2   6   47.10   10.70
   3  -2  -6  213.58   21.10
   3   2  -6  215.68   24.80
   3   2  -6  228.58   16.70
  -3   2   6  212.08   19.80
  -2  -2   6  530.45   36.90
   2  -2  -6  450.85   41.40
  -2  -2   6  557.84   36.30
  -2  -2   6  459.35   37.50
   2  -2  -6  505.55   40.20
   2   2  -6  550.24   36.20
   2   2  -6  539.45   36.00
  -2   2   6  516.25   38.40
  -1  -2   6  114.99    8.80
   1  -2  -6   89.09    9.90
  -1  -2   6  119.69    9.30
  -1  -2   6  119.19    8.60
   1  -2  -6   95.69    9.00
   1   2  -6   96.39    9.10
  -1   2   6  104.99    9.10
  -1   2   6  116.49    9.00
   1   2  -6   89.49    9.40
   1   2  -6  103.59    8.80
  -1   2   6  109.39    9.80
   0  -2   6 1240.38   81.89
   0  -2  -6 1120.39   82.19
   0  -2  -6 1330.67   82.49
   0  -2   6 1216.58   81.89
   0  -2   6 1113.49   81.89
   0   2   6 1263.37   82.09
   0   2  -6 1130.69   82.19
   0   2   6 1181.98   81.99
   0   2   6 1236.58   81.99
   0   2  -6 1257.57   82.09
   0   2  -6 1130.29   82.19
  -1  -2  -6  523.05   39.10
  -1  -2  -6  558.64   39.40
  -1  -2  -6  547.25   39.50
  -1  -2  -6  565.94   39.50
  -1   2  -6  568.54   38.30
   1   2   6  596.44   38.70
  -2  -2  -6   54.19   10.90
  -2  -2  -6   58.89    8.60
   2   2   6   34.10   16.40
  -3  -2  -6  437.76   43.70
  -3  -2  -6  500.75   34.60
   3  -2   6  482.35   36.40
   3  -2   6  485.05   36.50
   3   2   6  466.05   38.50
   3   2   6  435.06   35.80
  -4  -2  -6   -0.30    8.50
  -4  -2  -6   40.50   12.90
  -4   2  -6   15.80   13.50
   4   2   6    6.10    9.30
  -4  -3   6    4.00    6.80
   4  -3  -6   -1.90    4.70
   4  -3  -6    7.30    6.80
  -4   3   6    5.50    8.50
   4   3  -6    4.00    6.20
   4   3  -6   13.30   10.60
  -3  -3   6   99.39   14.40
  -3  -3   6  106.99   12.30
  -3  -3   6   85.09   17.40
   3  -3  -6  103.99   15.30
   3  -3  -6  122.09   13.70
  -3   3   6   76.19   14.60
   3   3  -6  101.39   17.50
   3   3  -6  104.39    9.50
  -2  -3   6  125.89   11.50
   2  -3  -6  140.99   19.00
  -2  -3   6  127.89   13.20
  -2  -3   6  138.59   10.60
   2  -3  -6  122.99   19.50
  -2   3   6  121.79   16.60
   2   3  -6  125.19   16.40
   2   3  -6  115.09   11.50
   2   3  -6  124.19   11.10
  -1  -3   6  490.75   30.60
  -1  -3   6  413.76   32.40
   1  -3  -6  372.46   30.80
  -1  -3   6  479.55   31.00
   1  -3  -6  466.35   30.90
  -1  -3   6  476.65   30.60
  -1   3   6  456.05   30.80
   1   3  -6  383.86   30.70
   1   3  -6  410.46   31.00
  -1   3   6  432.66   30.80
   1   3  -6  445.86   31.10
  -1   3   6  434.06   31.00
  -1   3   6  384.96   31.20
   0  -3   6  104.89    8.00
   0  -3  -6  107.59    9.20
   0  -3  -6   94.89    9.20
   0  -3   6  106.69    8.10
   0   3   6  100.29    9.00
   0   3  -6  108.19    8.90
   0   3   6  108.89    8.60
   0   3   6  108.39    8.50
   0   3   6   99.69    8.80
   0   3  -6  108.59    8.70
  -1  -3  -6  179.18   14.80
  -1  -3  -6  169.48   14.40
  -1  -3  -6  168.38   14.00
  -1  -3  -6  163.68   13.90
   1   3   6  186.78   12.90
   1   3   6  182.48   12.90
  -1   3  -6  175.78   12.70
  -1   3  -6  160.98   13.80
  -2  -3  -6   52.09   10.10
  -2  -3  -6   67.49    9.10
  -2  -3  -6   54.59   14.80
  -2  -3  -6   43.70   10.80
   2   3   6   58.49   15.00
   2   3   6   69.09   17.70
  -3  -3  -6   10.30    7.20
   3  -3   6   -2.70   10.70
   3   3   6   19.80    9.80
   3   3   6    2.20   12.10
   4  -3   6    6.40    7.60
  -4  -3  -6   32.20   12.50
   4   3   6   15.30   10.50
   4   3   6   17.80    6.80
   4  -4  -6    2.20    5.60
   4  -4  -6    6.30    4.80
  -4  -4   6    6.20    6.10
  -4   4   6   17.00    9.90
   4   4  -6    2.80    6.50
   4   4  -6   -8.20   12.60
   3  -4  -6   21.80    8.90
   3  -4  -6   10.90    6.30
  -3  -4   6    5.40   11.90
  -3  -4   6   11.70    6.40
  -3  -4   6   19.40    8.40
   3   4  -6    7.70    3.40
   3   4  -6   -3.00   16.70
  -3   4   6    0.40   10.80
   2  -4  -6   13.10   11.90
  -2  -4   6    3.60    4.10
  -2  -4   6   -2.20    5.80
  -2  -4   6   -2.70   13.40
  -2  -4   6    5.30    3.20
   2  -4  -6    3.10    8.30
   2   4  -6    1.40    3.10
   2   4  -6    2.10    9.20
   2   4  -6   -4.60    5.00
   2   4  -6  -15.40    8.90
  -2   4   6   10.00   10.80
   2   4  -6   -4.00    4.40
  -1  -4   6   30.10    4.00
  -1  -4   6   38.20    7.90
  -1  -4   6   28.40    4.20
   1   4  -6   22.40    6.30
   1   4  -6   27.00    5.40
  -1   4   6   19.50    6.00
  -1   4   6   27.20    6.10
  -1   4   6   26.00    8.90
  -1   4   6   40.60    7.30
   1   4  -6   20.00    4.50
   1   4  -6   36.10    5.40
  -1   4   6   30.50    5.60
   0  -4   6   12.50    2.70
   0  -4   6   11.10    2.10
   0  -4  -6    9.30    3.90
   0  -4  -6   13.40    3.50
   0   4  -6   14.30    4.80
   0   4   6   13.20    4.10
   0   4   6    7.10    4.00
   0   4  -6   15.40    4.00
   0   4  -6   19.90    4.40
   0   4   6    8.00    3.60
   0   4  -6   14.10    3.40
   0   4   6   10.80    2.90
  -1  -4  -6  208.68   17.00
  -1  -4  -6  190.88   16.60
  -1  -4  -6  243.08   16.30
  -1   4  -6  205.18   15.70
  -1   4  -6  181.68   16.40
   1   4   6  219.98   15.60
   1   4   6  217.08   15.40
  -2  -4  -6   35.30   12.00
  -2  -4  -6   16.20    6.30
  -2  -4  -6   12.70    6.60
   2  -4   6   -3.90   11.50
  -2  -4  -6    3.80    8.90
   2   4   6    8.20   15.50
   2   4   6   15.10   12.60
   2   4   6   11.40    3.30
  -3  -4  -6   20.80    7.60
   3  -4   6   12.70   11.70
   3   4   6   10.70   10.80
   3   4   6   23.20   10.90
  -4  -4  -6   21.00    7.20
  -4  -4  -6   25.40   10.40
   4  -4   6    7.80    9.00
   4   4   6   17.60    6.70
   4  -5  -6   43.60    8.40
   4  -5  -6   48.90    8.00
   4   5  -6   47.70   11.00
   4   5  -6   47.40    6.70
  -3  -5   6  123.49   12.50
   3  -5  -6  139.79   15.00
  -3  -5   6  115.49   17.50
  -3  -5   6  119.59   17.00
   3  -5  -6  105.99   15.10
  -3  -5   6  138.39   15.20
   3   5  -6  130.49   11.20
  -3   5   6  104.49   16.40
   2  -5  -6   38.30   11.20
  -2  -5   6   38.40   12.60
  -2  -5   6   55.79   12.40
  -2  -5   6   32.90    6.90
  -2  -5   6   52.49    6.60
  -2  -5   6   53.69    7.90
   2  -5  -6   50.89    9.50
   2   5  -6   55.29    7.50
   2   5  -6   48.40   10.30
   2   5  -6   46.50    7.80
   2   5  -6   61.69   12.10
  -2   5   6   39.10   10.80
  -1  -5   6  878.31   62.29
  -1  -5   6  989.80   61.69
  -1  -5   6  922.51   61.49
  -1   5   6  939.51   62.09
  -1   5   6  887.01   62.39
   1   5  -6  811.82   61.89
   1   5  -6  812.62   61.79
  -1   5   6  853.21   62.69
   1   5  -6  916.81   61.99
  -1   5   6  863.21   62.59
   1   5  -6  967.50   61.89
   0  -5   6    9.70    2.20
   0  -5   6    5.10    2.10
   0  -5  -6   10.70    3.10
   0  -5  -6    2.70    3.70
   0   5  -6    2.20    3.10
   0   5  -6   10.10    4.90
   0   5   6    9.90    7.10
   0   5   6    1.60    4.80
   0   5  -6    1.20    6.50
   0   5   6    5.90    5.70
   0   5  -6    7.00    3.90
   0   5   6    6.30    3.90
   0   5   6    3.40    3.00
  -1  -5  -6  122.39    9.80
  -1  -5  -6  105.09   10.50
  -1  -5  -6  112.59   11.30
   1   5   6   96.99    9.30
  -1   5  -6   87.19   15.50
  -1   5  -6   98.59   12.70
   1   5   6  108.29    9.10
  -2  -5  -6  274.97   20.70
  -2  -5  -6  245.88   24.20
  -2  -5  -6  268.07   21.20
  -2  -5  -6  289.57   22.60
   2   5   6  254.87   19.20
   2   5   6  263.27   24.90
  -3  -5  -6   29.80   14.90
  -3  -5  -6   14.40    7.40
   3   5   6   -7.60   10.70
   3   5   6   20.80    9.90
  -4  -5  -6   25.70    7.60
   4   5   6   23.70    6.60
   4  -6  -6   36.10    7.30
   4  -6  -6   43.50    7.30
   4   6  -6   26.10    8.30
  -3  -6   6   81.29   13.60
  -3  -6   6   60.89   10.40
  -3  -6   6   57.19   10.20
  -3  -6   6   70.19   10.00
   3  -6  -6   67.89   10.80
   3   6  -6   64.99    8.60
  -2  -6   6 1203.08   82.19
  -2  -6   6 1186.08   80.39
  -2  -6   6 1157.58   80.59
   2  -6  -6 1096.89   81.39
  -2  -6   6 1185.68   80.39
  -2  -6   6 1260.17   82.19
   2   6  -6 1128.09   80.79
   2   6  -6 1274.17   80.69
  -2   6   6 1111.39   80.99
   2   6  -6 1135.89   81.39
   2   6  -6 1020.40   80.99
   2   6  -6 1244.88   80.49
   1  -6  -6   63.09   15.90
  -1  -6   6   41.70    5.30
  -1  -6   6   76.19   12.90
  -1  -6   6   60.89   12.50
   1  -6  -6   49.99   13.80
  -1  -6   6   47.10    5.40
   1   6  -6   48.70    6.80
   1   6  -6   42.20    7.00
   1   6  -6   38.80    7.40
  -1   6   6   46.60   10.70
   1   6  -6   46.10    9.00
   1   6  -6   52.49    8.30
  -1   6   6   59.89    9.60
   0  -6  -6 1479.25   95.69
   0  -6   6 1395.66   95.29
   0   6   6 1285.57   96.59
   0   6   6 1330.77   96.09
   0   6  -6 1429.26   96.19
   0   6   6 1432.26   96.09
   0   6  -6 1354.56   96.19
   0   6   6 1376.66   96.49
   0   6   6 1499.75   96.09
   0   6  -6 1413.76   96.09
   1  -6   6  365.66   36.70
  -1  -6  -6  445.36   31.80
  -1  -6  -6  420.76   28.30
  -1  -6  -6  421.86   28.10
   1  -6   6  357.46   31.40
  -1  -6  -6  382.86   33.20
  -1  -6  -6  363.36   28.70
   1  -6   6  405.76   31.90
   1   6   6  379.76   27.90
   1   6   6  380.96   32.50
   1   6   6  330.27   33.50
   1   6   6  399.46   28.10
   1   6   6  389.36   33.00
  -1   6  -6  393.76   29.20
  -2  -6  -6  260.77   21.90
  -2  -6  -6  253.17   19.90
  -2  -6  -6  262.37   20.60
  -2  -6  -6  251.47   19.80
   2   6   6  241.78   18.40
   2   6   6  207.88   28.40
   2   6   6  215.58   35.40
   2   6   6  237.78   22.60
  -3  -6  -6  243.18   21.40
  -3  -6  -6  283.07   21.30
   3   6   6  253.17   25.10
   3   6   6  274.47   22.60
  -4  -6  -6    8.50    7.90
  -4  -6  -6   -1.30    6.30
   4   6   6    8.40    5.80
   4   6   6    9.80    6.70
  -4  -7   6  101.39   10.90
  -4  -7   6  114.29   10.90
   4  -7  -6  102.99    9.50
   4  -7  -6  103.79    9.70
   4   7  -6   77.49    9.00
   4   7  -6   92.39   12.70
  -3  -7   6  381.36   28.80
  -3  -7   6  347.87   29.20
   3  -7  -6  382.86   28.50
   3  -7  -6  311.27   28.50
  -3  -7   6  398.26   27.80
  -3  -7   6  356.96   29.60
   3   7  -6  402.36   27.60
  -3   7   6  432.76   31.40
  -2  -7   6  251.77   18.80
   2  -7  -6  240.58   22.00
  -2  -7   6  259.57   22.00
  -2  -7   6  241.48   19.20
   2  -7  -6  196.18   22.20
  -2  -7   6  226.88   22.30
  -2  -7   6  259.47   18.80
   2   7  -6  256.57   23.00
   2   7  -6  239.68   21.00
   2   7  -6  254.47   19.30
   2   7  -6  248.98   20.50
  -2   7   6  242.38   21.00
   2   7  -6  245.68   19.20
  -1  -7   6 1944.21  134.99
   1  -7  -6 1873.21  136.69
  -1  -7   6 1924.71  134.89
  -1  -7   6 2173.48  136.39
  -1  -7   6 2145.29  136.79
   1   7  -6 1792.12  135.29
   1   7  -6 1982.70  135.79
  -1   7   6 2067.39  135.99
  -1   7   6 1905.51  135.49
   1   7  -6 1851.41  135.39
   1   7  -6 2051.39  135.29
   1   7  -6 2057.49  135.59
   0  -7  -6  120.19   10.30
   0  -7   6  122.59    9.40
   0  -7   6  136.69   20.20
   0  -7   6  132.19   21.00
   0  -7  -6  128.99    9.50
   0  -7   6   86.39   18.40
   0  -7   6  111.39   14.00
   0   7  -6  115.69   17.00
   0   7  -6  125.49   11.30
   0   7  -6  129.39   11.40
   0   7   6  110.89   11.50
   0   7  -6   93.99   12.40
   0   7   6   87.19   16.40
   0   7   6  123.49   11.40
   0   7   6  117.39   12.30
  -1  -7  -6  629.74   46.10
  -1  -7  -6  661.13   43.80
   1  -7   6  562.04   45.60
  -1  -7  -6  649.04   45.90
   1  -7   6  647.04   50.19
   1  -7   6  615.04   46.40
  -1  -7  -6  655.73   43.80
  -1   7  -6  613.04   44.40
   1   7   6  596.14   45.90
   1   7   6  619.24   47.20
   1   7   6  578.94   45.30
   1   7   6  612.94   44.00
   1   7   6  630.04   44.00
   1   7   6  669.23   45.90
   1   7   6  630.74   46.40
  -2  -7  -6  522.65   44.00
  -2  -7  -6  520.15   37.10
  -2  -7  -6  491.25   37.30
  -2  -7  -6  544.95   37.70
   2   7   6  543.25   38.80
   2   7   6  506.55   40.20
   2   7   6  543.65   43.10
   2   7   6  513.45   36.60
   2   7   6  460.55   42.30
  -3  -7  -6    4.90    6.80
  -3  -7  -6   -3.90    6.20
  -3  -7  -6   20.40   16.80
   3   7   6   11.20    8.30
   3   7   6    4.90    6.50
   3   7   6   13.30   10.80
  -4  -7  -6   84.79   11.90
  -4  -7  -6   98.39   12.10
   4   7   6   96.09    9.40
   3  -8  -6   79.99   10.70
  -3  -8   6   55.89   12.50
   3  -8  -6   70.29   11.60
  -3  -8   6   94.49   10.30
  -3  -8   6   73.09   10.10
   3   8  -6   66.49    8.80
  -3   8   6   72.09   14.20
  -2  -8   6 1030.90   74.49
   2  -8  -6  919.21   75.09
  -2  -8   6 1035.70   74.49
  -2  -8   6 1106.09   75.59
  -2  -8   6 1111.39   78.09
   2  -8  -6  984.60   75.39
  -2  -8   6 1192.88   75.59
  -2  -8   6 1060.59   74.29
   2   8  -6 1141.39   74.59
  -2   8   6 1068.99   74.59
   2   8  -6 1235.58   74.79
   2   8  -6 1034.10   74.89
   1  -8  -6   14.30    7.20
  -1  -8   6   10.30    3.50
  -1  -8   6   17.80    9.50
   1  -8  -6   10.30   11.50
   1  -8  -6   14.50    8.90
  -1  -8   6   11.10    6.50
  -1  -8   6    0.50    7.10
  -1  -8   6   10.60    3.80
  -1   8   6    4.50    6.40
   1   8  -6    3.70    5.20
   1   8  -6    9.20    4.80
   1   8  -6   -0.10    4.40
  -1   8   6   -1.50    9.50
   1   8  -6    6.20    7.10
   1   8  -6    7.50    5.70
   0  -8  -6 1495.95  100.69
   0  -8  -6 1542.05  105.89
   0  -8  -6 1532.65   99.19
   0  -8   6 1486.75  101.19
   0  -8   6 1497.15  100.49
   0  -8   6 1628.84  101.89
   0  -8   6 1349.86  104.19
   0  -8  -6 1372.06  102.19
   0   8   6 1429.66  100.99
   0   8  -6 1351.96  100.49
   0   8  -6 1428.96  100.89
   0   8  -6 1356.16  100.09
   0   8   6 1456.85  100.49
   0   8   6 1443.96  100.39
   0   8   6 1474.55   99.99
   0   8  -6 1446.56  100.29
   1  -8   6  277.87   29.30
  -1  -8  -6  283.47   21.30
  -1  -8  -6  283.37   24.20
   1  -8   6  279.97   23.90
   1  -8   6  279.17   24.80
  -1  -8  -6  255.47   24.70
  -1  -8  -6  291.67   21.20
   1   8   6  262.57   22.00
   1   8   6  286.77   21.90
   1   8   6  306.07   24.00
   1   8   6  278.47   23.90
   1   8   6  275.97   27.80
   1   8   6  316.17   23.70
  -1   8  -6  296.97   22.40
   1   8   6  294.27   23.80
   2  -8   6  174.28   28.00
  -2  -8  -6  240.08   19.00
  -2  -8  -6  211.78   25.10
  -2  -8  -6  238.48   19.30
  -2  -8  -6  206.48   19.80
  -2  -8  -6  222.38   19.20
   2   8   6  226.58   20.60
   2   8   6  238.38   23.70
   2   8   6  234.88   18.30
   2   8   6  225.08   25.50
   2   8   6  236.38   21.00
  -3  -8  -6  244.18   23.60
  -3  -8  -6  155.18   16.00
  -3  -8  -6  170.58   16.80
   3   8   6  228.78   19.10
   3   8   6  174.38   17.80
   3   8   6  210.78   16.90
   3  -9  -6   95.59   11.50
   3  -9  -6  102.39   11.10
  -3  -9   6   88.09   10.00
   3   9  -6   91.09    9.40
  -3   9   6   93.19   13.50
  -2  -9   6   16.20    4.90
   2  -9  -6   32.10    9.20
  -2  -9   6   34.90    7.50
  -2  -9   6   16.30    6.30
  -2  -9   6   24.90    7.20
   2  -9  -6   28.10    7.30
   2   9  -6   27.30    9.40
   2   9  -6   14.40    6.80
   2   9  -6   15.40    5.80
   2   9  -6   28.70    5.90
  -2   9   6   44.90    9.50
  -1  -9   6  358.26   26.20
   1  -9  -6  392.56   27.50
  -1  -9   6  398.06   27.80
  -1  -9   6  390.56   28.90
   1  -9  -6  315.57   30.00
  -1  -9   6  352.46   28.70
   1  -9  -6  364.96   30.80
  -1   9   6  379.86   27.00
   1   9  -6  366.36   27.70
   1   9  -6  379.86   28.00
  -1   9   6  347.47   29.70
   1   9  -6  380.86   27.60
   1   9  -6  388.86   27.60
   1   9  -6  320.77   27.10
   0  -9  -6  115.39   10.00
   0  -9   6  135.69   15.20
   0  -9   6  112.49   12.20
   0  -9  -6  129.39   18.50
   0  -9   6  117.09   14.90
   0  -9  -6   96.09   16.70
   0   9   6  124.39   14.40
   0   9  -6  117.79   14.80
   0   9  -6  123.29   12.00
   0   9  -6  108.19   14.20
   0   9   6  124.59   15.10
   0   9  -6  141.09   14.00
   0   9   6  126.29   15.00
   0   9   6  141.39   14.10
   0   9   6  120.89   11.80
   1  -9   6  226.38   34.40
   1  -9   6  257.17   20.90
  -1  -9  -6  254.57   21.50
  -1  -9  -6  245.98   19.00
  -1  -9  -6  238.58   22.20
  -1  -9  -6  220.78   19.10
   1  -9   6  255.97   22.00
  -1   9  -6  228.98   24.20
   1   9   6  260.17   21.10
  -1   9  -6  265.37   19.90
   1   9   6  278.57   20.90
   1   9   6  270.27   21.30
   1   9   6  239.78   21.80
   1   9   6  249.48   20.50
   1   9   6  257.57   20.30
   2  -9   6  115.39   21.80
  -2  -9  -6  146.99   15.40
  -2  -9  -6  144.19   16.20
  -2  -9  -6  169.88   15.00
  -2  -9  -6  140.29   17.50
   2   9   6  167.18   19.90
   2   9   6  157.28   18.00
   2   9   6  166.28   17.20
  -2   9  -6  161.48   18.90
   2   9   6  169.48   16.00
   2   9   6  170.58   14.90
  -3  -9  -6    7.40   10.30
   3   9   6   10.20    8.60
   3 -10  -6   34.30    8.50
   3 -10  -6   15.20    4.70
  -3 -10   6   21.50    4.80
   3  10  -6   24.60    4.40
  -3  10   6   21.80    8.50
   2 -10  -6   62.59   12.40
  -2 -10   6   74.09    9.90
  -2 -10   6   86.99    9.30
   2 -10  -6   75.79   14.20
  -2 -10   6   92.89   10.40
  -2 -10   6   84.59   13.40
   2  10  -6   78.79   10.70
   2  10  -6   75.09   10.30
   2  10  -6   58.09   14.60
  -2  10   6   77.99   10.00
   2  10  -6   76.59    9.50
   1 -10  -6   19.10    7.90
   1 -10  -6   14.20    5.80
  -1 -10   6   16.50    7.30
  -1 -10   6   22.40    5.40
  -1 -10   6   30.10    5.90
  -1 -10   6   25.20    7.20
   1  10  -6   24.20    5.80
   1  10  -6   20.60    7.20
  -1  10   6   26.40    6.20
   1  10  -6    9.60    6.90
   1  10  -6   24.60    5.90
  -1  10   6   15.80    9.20
   0 -10  -6  293.67   22.50
   0 -10   6  288.47   21.60
   0 -10  -6  274.37   24.70
   0 -10   6  293.47   23.20
   0 -10   6  291.17   22.90
   0  10   6  283.97   23.00
   0  10  -6  260.17   22.70
   0  10   6  262.17   24.00
   0  10   6  275.37   23.70
   0  10   6  290.67   23.30
   0  10  -6  296.57   21.80
   0  10  -6  295.87   24.00
   1 -10   6   96.39   14.60
   1 -10   6   90.99   12.30
   1 -10   6   83.39   10.80
  -1 -10  -6  101.39   12.80
  -1 -10  -6   95.39   11.90
  -1 -10  -6   82.09    9.40
   1 -10   6  107.29   24.10
  -1  10  -6   82.89   12.10
   1  10   6   94.69   12.10
   1  10   6   76.99   10.90
  -1  10  -6   86.99   10.20
   1  10   6   92.59   12.40
   1  10   6   58.39   13.00
   1  10   6   97.49   12.90
   1  10   6   84.09   11.80
  -2 -10  -6   39.70    8.80
  -2 -10  -6   43.70    9.30
   2  10   6   44.40    9.00
  -2  10  -6   56.39    9.50
   2  10   6   58.49   10.90
   2  10   6   43.60    9.50
   2  10   6   25.40    8.50
  -3 -10  -6   19.40    4.30
  -3 -10  -6   10.90    5.50
   3  10   6   20.00    4.50
  -3 -11   6   -8.60    5.40
  -3 -11   6   -0.30    3.00
   3  11  -6   -0.40    3.20
  -2 -11   6    0.40    4.00
   2 -11  -6    6.60    5.30
  -2 -11   6   -3.10    5.10
  -2 -11   6    2.60    4.30
  -2 -11   6   -5.60    6.60
  -2  11   6   11.00    5.70
   2  11  -6    6.60    5.40
   2  11  -6    2.40    4.00
   2  11  -6   10.50    6.80
  -1 -11   6   53.79    9.40
   1 -11  -6   37.70    7.70
  -1 -11   6   56.39    7.80
   1 -11  -6   35.40    8.00
   1  11  -6   42.80    7.70
   1  11  -6   55.19    9.30
   1  11  -6   50.49    9.40
   1  11  -6   47.80    8.80
  -1  11   6   49.70    9.10
  -1  11   6   53.59    8.20
   1  11  -6   42.00    9.40
  -1  11   6   46.50    9.00
   0 -11   6   20.70    4.80
   0 -11   6   17.60    5.50
   0 -11  -6   15.70    5.80
   0 -11  -6   35.40    8.80
   0 -11   6   22.70    6.40
   0  11   6   28.60    7.80
   0  11   6   27.90    7.70
   0  11   6   13.30   10.20
   0  11   6   20.80   10.50
   0  11  -6   15.00    5.90
   0  11  -6   27.30   10.60
   1 -11   6    7.40    5.20
  -1 -11  -6    2.40    5.80
  -1 -11  -6   15.70    5.80
   1 -11   6    9.20    9.90
  -1 -11  -6   17.00    6.40
   1 -11   6   29.80    7.70
   1 -11   6   21.30    7.80
   1  11   6   27.60    8.10
  -1  11  -6   13.00    7.70
   1  11   6   10.30    9.70
   1  11   6   20.70    5.80
   1  11   6    9.20    9.50
   1  11   6   14.40    6.70
   1  11   6    1.10    6.90
  -1  11  -6   13.30    5.30
  -2 -11  -6   -4.90    5.50
  -2 -11  -6   10.50    6.00
  -2 -11  -6   -7.60    7.30
  -2 -11  -6  -18.00   11.40
   2  11   6   14.80    6.50
   2  11   6    4.10    8.60
   2  11   6   -6.20    6.30
  -2  11  -6    0.70    6.70
   2  11   6   -1.50    5.00
  -3 -11  -6    2.80    4.70
  -3 -11  -6    1.50    3.00
   3  11   6    4.00    2.90
   2 -12  -6   44.00    8.30
  -2 -12   6   32.10    6.10
  -2 -12   6   29.40    6.00
  -2 -12   6   31.30    5.90
   2  12  -6   24.70    5.00
   2  12  -6   35.10    5.30
  -1 -12   6    2.30    4.50
   1 -12  -6    7.00    4.30
   1 -12  -6    7.50    5.50
  -1 -12   6    5.10    3.20
  -1 -12   6   -6.20    4.40
   1  12  -6   -5.40    8.30
   1  12  -6    7.90    4.70
   1  12  -6   -3.90    5.60
  -1  12   6   -8.10    7.80
  -1  12   6   -1.20    6.40
   1  12  -6    5.70    6.20
   0 -12  -6   57.19   10.10
   0 -12   6   41.40    6.70
   0 -12  -6   36.90    7.50
   0 -12   6   43.70    8.40
   0 -12   6   38.00    5.80
   0  12   6   49.50    8.60
   0  12   6   45.80    8.00
   0  12  -6   44.40    7.80
   0  12   6   32.70    7.30
   0  12   6   41.30    7.50
   0  12  -6   52.79    7.60
  -1 -12  -6   31.20    5.90
   1 -12   6   16.80    7.40
  -1 -12  -6   25.80    6.00
   1 -12   6   33.50    5.70
  -1  12  -6   39.80    7.50
   1  12   6   29.90    6.60
   1  12   6   29.80    5.80
   1  12   6   19.30    8.70
   1  12   6   43.90    6.80
  -2 -12  -6    5.20    3.90
  -2 -12  -6   10.90    4.60
   2  12   6    9.90    5.10
   2  12   6    1.50    5.00
   2  12   6    6.90    3.90
  -2  12  -6   13.80    6.30
   2 -13  -6    7.00    3.60
  -2 -13   6   -2.50    4.40
  -2 -13   6   -1.70    2.10
   2  13  -6    0.10    4.10
  -2  13   6   -3.90    3.90
   2  13  -6    3.80    3.30
  -2  13   6   -1.70    5.00
  -1 -13   6  141.29   11.80
   1 -13  -6  116.59   13.50
  -1 -13   6  132.19   11.00
  -1 -13   6  145.59   11.80
   1  13  -6  145.29   11.80
  -1  13   6  160.98   12.10
  -1  13   6  133.89   12.70
   0 -13   6   10.20    3.20
   0 -13   6   10.30    4.50
   0 -13   6   18.10    4.90
   0 -13  -6    9.90    5.70
   0 -13  -6   13.00    6.00
   0 -13  -6   13.00    3.90
   0  13   6   15.30    5.90
   0  13   6   10.60    5.90
   0  13  -6    7.90    4.20
   0  13   6    5.50    5.90
   0  13  -6    9.70    4.20
   0  13   6   10.30    4.00
  -1 -13  -6   60.39    8.30
  -1 -13  -6   71.99    7.70
   1  13   6   68.79    8.20
  -1  13  -6   64.89   10.00
   1  13   6   82.49    8.40
   1  13   6   81.29    8.60
  -2 -13  -6    7.40    3.20
  -2 -13  -6    2.20    3.00
   2  13   6   11.50    3.50
   2  13   6    8.70    5.00
  -2  13  -6   21.70    6.40
   2  13   6    7.00    4.60
   1 -14  -6   -1.30    3.90
  -1 -14   6   -1.20    2.00
  -1 -14   6    1.40    3.50
  -1 -14   6    1.50    3.00
  -1  14   6    8.50    4.70
   1  14  -6    8.40    3.30
  -1  14   6   -3.50    4.20
  -1  14   6   -1.70    3.20
   0 -14   6  137.49   12.60
   0 -14  -6  131.59   11.50
   0 -14   6  136.99   11.70
   0 -14   6  153.38   11.10
   0  14   6  178.28   12.20
   0  14   6  159.68   12.20
   0  14  -6  169.88   12.60
   0  14  -6  150.88   11.80
  -1 -14  -6   47.80    5.40
  -1 -14  -6   46.60    6.00
   1  14   6   48.00    6.40
   1  14   6   55.69    6.30
   1  14   6   55.79    6.90
   0 -15  -6   -1.40    2.90
   0  15   6    1.90    2.90
   0  15  -6    3.00    5.20
   4   0  -7   -0.50    4.20
   4   0  -7    1.70    8.50
  -4   0   7    2.50    6.70
   3   0  -7    6.90   11.00
  -3   0   7   -0.70    7.50
   2   0  -7   -4.60    3.00
  -2   0   7    0.90    3.70
   2   0  -7   16.40   14.70
  -2   0   7   -4.10    7.20
  -1   0   7    0.10    2.90
  -1   0   7    0.00    2.20
   1   0  -7   -2.20    3.60
   1   0  -7   -4.40    5.70
   1   0  -7   -3.80    3.60
   1   0  -7   -1.80    3.80
  -1   0   7    0.30    4.20
  -1   0   7    2.60    8.00
   0   0   7    1.40    1.70
   0   0  -7    1.50    2.40
   0   0  -7    0.10    3.00
   0   0   7    1.90    2.20
   0   0  -7    1.90    2.90
   0   0  -7    2.20    6.10
   0   0  -7    3.60    2.50
   0   0   7    1.20    2.60
  -1   0  -7   -4.20    5.20
  -1   0  -7    1.60    5.20
   1   0   7    2.30    2.00
  -1   0  -7    5.00    3.70
   2   0   7    7.00   14.90
   2   0   7  -17.60   12.80
  -2   0  -7   13.10    6.40
  -3   0  -7   -2.50    8.70
   3   0   7    2.00   11.70
   3   0   7   -6.20   10.60
  -4   0  -7   -8.00    9.30
   4   0   7    6.30    7.70
   4  -1  -7    2.60    7.10
   4  -1  -7    4.70    4.20
  -4  -1   7   -2.20    6.50
   4   1  -7    0.70    4.30
  -4   1   7   -1.00    6.80
   4   1  -7    2.70    8.60
  -3  -1   7  101.99   13.50
   3  -1  -7  137.09   14.80
   3  -1  -7  120.49   16.70
   3   1  -7  129.79   10.50
  -3   1   7  114.09   13.80
   3   1  -7  113.59   19.30
  -2  -1   7  116.99   14.50
  -2  -1   7  149.88   11.80
   2  -1  -7  119.89   23.00
  -2  -1   7  141.49   13.90
   2   1  -7  153.48   27.30
  -2   1   7  164.18   13.40
  -2   1   7  129.89   14.80
   2   1  -7  148.99   11.70
   1  -1  -7   10.20    4.60
  -1  -1   7   13.80    2.70
   1  -1  -7    4.30    4.00
  -1  -1   7   13.10    3.40
  -1  -1   7   15.60    8.50
  -1  -1   7    6.80    3.90
   1   1  -7    7.40    4.20
   1   1  -7    9.80    4.00
  -1   1   7    9.10    4.30
   1   1  -7   16.70    4.10
  -1   1   7    8.80    3.50
  -1   1   7    1.50    7.60
  -1   1   7   10.60    2.80
   0  -1  -7  496.95   38.20
   0  -1   7  570.44   38.00
   0  -1   7  567.24   37.90
   0  -1  -7  588.24   38.50
   0  -1   7  543.45   37.90
   0   1   7  584.94   38.00
   0   1  -7  514.75   38.20
   0   1  -7  538.75   38.20
   0   1  -7  555.74   38.00
   0   1  -7  529.25   38.40
   0   1   7  544.65   37.90
   0   1   7  544.45   38.00
  -1  -1  -7   78.59    8.50
  -1  -1  -7   85.09    9.40
  -1  -1  -7   66.89    9.40
   1  -1   7   75.59    6.30
  -1   1  -7   71.99   10.90
   1   1   7   86.39    6.40
  -1   1  -7   71.69    9.20
  -1   1  -7   66.59    8.30
   1   1   7   87.29    6.60
  -2  -1  -7  324.07   32.30
   2  -1   7  244.38   31.00
   2  -1   7  266.67   29.20
  -2  -1  -7  278.27   21.70
  -2  -1  -7  276.17   23.40
  -2   1  -7  320.37   22.50
   3  -1   7   44.90   11.80
  -3  -1  -7   33.00   28.20
   3  -1   7   19.90   10.20
  -3  -1  -7   38.70    9.20
  -3   1  -7   27.80   10.20
   3   1   7   24.40   12.10
   3   1   7   41.70   12.80
   4  -1   7   12.20    7.50
  -4  -1  -7    7.40    8.60
   4   1   7   10.70    8.50
  -4   1  -7   -6.20    9.90
   4  -2  -7  174.58   17.50
   4  -2  -7  248.88   17.40
  -4  -2   7  211.08   17.70
   4   2  -7  186.68   20.60
  -4   2   7  212.88   17.70
   4   2  -7  235.28   17.50
  -3  -2   7  103.09   13.30
   3  -2  -7  124.79   16.10
   3  -2  -7  139.39   14.30
   3   2  -7  141.19   10.60
  -3   2   7   97.69   13.80
   3   2  -7  109.69   20.40
   2  -2  -7  300.37   31.00
   2  -2  -7  371.86   29.20
  -2  -2   7  340.97   25.30
  -2  -2   7  298.47   26.00
  -2  -2   7  362.86   24.70
   2   2  -7  294.87   43.00
   2   2  -7  367.96   25.10
   2   2  -7  357.76   24.50
  -2   2   7  312.67   26.30
  -2   2   7  362.16   26.00
   1  -2  -7 1202.38   86.89
  -1  -2   7 1350.26   86.59
  -1  -2   7 1408.46   86.89
  -1  -2   7 1426.26   86.59
   1  -2  -7 1211.98   86.39
   1  -2  -7 1138.39   86.69
   1   2  -7 1279.97   86.59
  -1   2   7 1304.97   86.89
   1   2  -7 1184.98   86.79
  -1   2   7 1274.47   86.69
  -1   2   7 1067.19   87.09
  -1   2   7 1426.56   86.69
   1   2  -7 1171.38   86.99
   0  -2  -7   43.10    6.00
   0  -2  -7   52.99    6.30
   0  -2   7   46.90    4.80
   0  -2   7   46.50    4.60
   0   2  -7   43.80    5.50
   0   2   7   47.90    5.30
   0   2   7   45.30    5.00
   0   2  -7   43.00    5.40
   0   2   7   44.10   10.30
   0   2   7   48.80    5.20
   0   2  -7   42.30    6.20
  -1  -2  -7 1847.72  125.39
  -1  -2  -7 1820.22  125.69
  -1  -2  -7 1909.51  125.79
  -1   2  -7 1667.83  125.39
   1   2   7 1950.70  124.99
   1   2   7 1798.72  124.89
  -1   2  -7 1888.51  125.39
  -1   2  -7 1824.42  124.69
  -2  -2  -7  261.07   21.90
  -2  -2  -7  260.07   20.20
   2  -2   7  232.58   30.60
   2  -2   7  258.97   29.90
  -2  -2  -7  275.17   27.90
   2   2   7  242.78   29.20
  -2   2  -7  296.87   22.00
  -3  -2  -7   30.40   19.10
   3  -2   7   71.19   14.70
  -3  -2  -7   60.39   11.30
   3  -2   7   50.79   11.50
  -3   2  -7   42.30   12.20
   3   2   7   43.10   14.20
   4  -2   7   99.89   11.40
  -4  -2  -7   79.99   12.40
  -4  -2  -7   84.49   14.30
   4   2   7   68.19   13.60
  -4  -3   7   -1.20    6.30
   4  -3  -7    6.90    5.40
   4  -3  -7    2.70    4.40
  -4   3   7    8.10    7.40
   4   3  -7    3.10    5.50
   4   3  -7  -13.70   10.90
  -3  -3   7  572.84   38.80
   3  -3  -7  590.64   39.20
   3  -3  -7  457.65   39.80
   3   3  -7  511.85   43.00
   3   3  -7  580.04   37.60
  -3   3   7  477.95   38.80
   2  -3  -7 1466.25   99.69
  -2  -3   7 1457.85  102.89
  -2  -3   7 1448.06   98.59
  -2  -3   7 1427.96   99.09
  -2  -3   7 1530.65   98.49
   2   3  -7 1537.45   98.29
   2   3  -7 1350.46   98.59
  -2   3   7 1269.97   98.99
  -1  -3   7 1350.36   84.59
  -1  -3   7 1393.96   84.59
   1  -3  -7 1359.26   84.99
  -1  -3   7 1353.26   84.99
  -1  -3   7 1156.28   85.39
   1   3  -7 1165.08   84.99
  -1   3   7 1131.69   85.19
  -1   3   7 1177.78   84.89
   1   3  -7 1172.58   84.79
  -1   3   7 1204.78   84.99
   1   3  -7 1225.18   84.59
   1   3  -7 1122.39   84.69
  -1   3   7 1365.76   84.79
   1   3  -7 1114.79   84.79
   0  -3  -7 4224.88  262.67
   0  -3   7 3910.11  262.17
   0  -3   7 3650.63  262.07
   0   3  -7 3799.92  262.47
   0   3   7 3966.40  262.47
   0   3  -7 3765.82  262.57
   0   3   7 3903.51  262.37
   0   3  -7 3867.61  262.57
   0   3   7 4031.90  262.47
   0   3   7 3612.74  262.87
   0   3  -7 3813.92  262.47
  -1  -3  -7   10.40    5.60
  -1  -3  -7    3.10    3.90
  -1  -3  -7    2.60    5.00
  -1   3  -7    4.40    4.10
   1   3   7    5.90    2.80
  -1   3  -7    7.50    6.10
  -2  -3  -7  912.71   63.69
  -2  -3  -7 1022.10   65.09
  -2  -3  -7  926.21   62.69
  -2  -3  -7  958.80   64.69
   2   3   7  800.02   66.59
   2   3   7  755.92   66.79
  -2   3  -7  938.81   63.29
   3  -3   7  158.78   18.70
   3   3   7  155.68   18.80
  -3   3  -7  111.69   22.20
  -4  -3  -7   23.60    9.70
  -4  -3  -7    0.30    7.20
   4  -3   7   22.80    7.60
   4   3   7   12.40   10.50
   4  -4  -7  300.67   22.40
  -4   4   7  295.77   23.50
   4   4  -7  302.37   23.20
   3  -4  -7   68.29   13.10
  -3  -4   7   86.79   14.30
  -3  -4   7   76.99   14.60
  -3  -4   7  112.59   11.60
   3  -4  -7   94.49   12.90
  -3   4   7   95.49   13.30
   3   4  -7   92.09    9.10
  -2  -4   7  906.11   67.69
  -2  -4   7  957.20   64.39
  -2  -4   7  930.51   63.89
   2  -4  -7  960.90   65.49
  -2  -4   7  935.71   63.69
   2   4  -7  940.01   64.29
  -2   4   7  843.12   64.49
   2   4  -7  859.81   64.29
   2   4  -7  957.00   63.69
  -1  -4   7 2484.45  167.08
  -1   4   7 2317.97  166.68
  -1   4   7 2470.15  166.98
   1   4  -7 2335.27  166.68
   1   4  -7 2570.14  166.28
   1   4  -7 2225.28  166.38
   1   4  -7 2469.25  166.88
  -1   4   7 2700.33  166.78
   0  -4   7   16.60    3.20
   0  -4  -7   16.00    4.30
   0  -4   7   15.30    3.40
   0  -4  -7   22.00    5.00
   0   4  -7   17.30    4.00
   0   4   7   23.80    7.50
   0   4   7   13.50    4.80
   0   4   7   20.60    5.10
   0   4  -7   26.30    6.00
   0   4   7   26.50    4.30
   0   4  -7   17.40    4.70
   0   4   7   17.40    3.60
   0   4  -7   11.70    4.10
  -1  -4  -7 1797.92  116.39
  -1  -4  -7 1657.93  116.09
   1  -4   7 1739.93  120.29
  -1  -4  -7 1688.43  116.39
  -1   4  -7 1629.94  116.19
  -1   4  -7 1736.23  116.09
   1   4   7 1647.04  115.79
   1   4   7 1698.73  115.79
  -2  -4  -7  319.07   25.40
  -2  -4  -7  387.76   28.50
  -2  -4  -7  350.26   26.60
  -2  -4  -7  339.17   28.40
  -2   4  -7  353.56   27.10
   2   4   7  303.97   30.60
   3  -4   7  192.88   20.80
  -3  -4  -7  194.68   16.80
   3   4   7  130.79   19.70
   3   4   7  139.79   20.20
  -4  -4  -7  132.99   13.50
   4   4   7   98.49   14.50
   4   4   7  128.59   12.60
   4  -5  -7    4.60    3.90
  -4  -5   7    4.90    5.50
  -4   5   7   23.20    9.20
  -3  -5   7  210.58   22.70
  -3  -5   7  211.18   20.70
  -3  -5   7  210.78   21.60
  -3  -5   7  254.17   18.90
   3  -5  -7  241.28   19.60
  -3   5   7  222.98   20.20
   3   5  -7  232.18   17.60
  -2  -5   7  782.12   55.09
  -2  -5   7  758.52   52.89
  -2  -5   7  792.92   56.09
   2  -5  -7  726.03   54.29
  -2  -5   7  760.22   52.79
  -2  -5   7  755.32   53.19
  -2   5   7  710.43   53.59
   2   5  -7  725.83   53.39
   2   5  -7  800.52   53.39
   2   5  -7  776.72   52.89
  -1  -5   7  568.84   37.70
  -1  -5   7  583.14   37.80
  -1  -5   7  574.44   39.80
   1  -5  -7  472.15   42.20
  -1  -5   7  539.05   39.10
  -1  -5   7  532.55   42.40
   1   5  -7  570.04   39.40
   1   5  -7  567.64   38.20
  -1   5   7  533.85   38.80
   1   5  -7  477.45   38.10
  -1   5   7  510.95   39.80
  -1   5   7  549.15   38.50
   1   5  -7  487.95   38.10
  -1   5   7  614.44   40.20
   1   5  -7  519.35   38.30
   0  -5   7 2337.37  158.28
   0  -5   7 2416.56  158.08
   0  -5  -7 2504.45  158.78
   0   5   7 2035.50  159.08
   0   5   7 2494.45  158.88
   0   5  -7 2250.47  158.98
   0   5  -7 2348.86  158.78
   0   5   7 2177.48  158.88
   0   5   7 2309.57  158.98
   0   5   7 2438.26  158.88
  -1  -5  -7   11.50    4.40
  -1  -5  -7   13.60    5.20
   1  -5   7   17.50   11.80
  -1  -5  -7   37.10   10.90
   1  -5   7   29.00    9.50
  -1  -5  -7   23.00    6.40
   1   5   7    3.80   16.40
   1   5   7   -7.10   11.40
  -1   5  -7   14.80    6.30
  -1   5  -7   21.70    6.30
   1   5   7   22.70   12.90
   1   5   7   24.40   15.00
   1   5   7   15.50    3.60
   1   5   7   13.60    3.60
  -2  -5  -7  408.16   30.40
  -2  -5  -7  389.76   29.70
  -2  -5  -7  394.86   29.00
  -2  -5  -7  380.76   28.30
   2   5   7  372.86   31.50
   2   5   7  382.36   26.90
  -2   5  -7  346.47   30.40
  -3  -5  -7  196.48   27.70
  -3  -5  -7  199.08   17.90
   3   5   7  199.78   20.40
  -4  -5  -7    5.20    6.70
  -4  -5  -7   12.10    8.30
   4   5   7   14.70    7.80
   4   5   7   21.90    6.40
   4  -6  -7   85.19    9.00
  -4  -6   7   95.89    9.50
   4  -6  -7   81.59    8.40
   4   6  -7   76.19   10.70
  -3  -6   7   -4.70    8.80
   3  -6  -7    8.90    5.80
  -3  -6   7    5.00    5.90
  -3  -6   7   -4.00    7.80
  -3  -6   7    9.60    8.80
   3  -6  -7    3.90    7.00
   3   6  -7   -1.30    3.40
  -3   6   7    4.60    8.70
  -2  -6   7  228.68   20.90
  -2  -6   7  220.48   17.30
  -2  -6   7  237.88   17.50
  -2  -6   7  251.37   21.70
  -2  -6   7  226.48   18.00
   2  -6  -7  216.38   21.00
   2   6  -7  202.38   18.80
  -2   6   7  220.08   19.40
   2   6  -7  230.78   18.10
   2   6  -7  234.68   17.70
   2   6  -7  192.78   20.40
  -1  -6   7  743.03   47.60
  -1  -6   7  735.33   49.40
  -1  -6   7  725.53   52.69
   1  -6  -7  640.74   51.09
  -1  -6   7  671.83   47.50
   1  -6  -7  575.14   52.09
  -1  -6   7  732.23   51.09
   1   6  -7  664.33   48.20
   1   6  -7  705.73   48.30
   1   6  -7  683.83   48.70
   1   6  -7  700.73   48.10
  -1   6   7  742.93   48.80
   1   6  -7  622.04   48.00
  -1   6   7  653.33   48.40
   0  -6   7   86.59   17.20
   0  -6  -7  110.69    8.40
   0  -6  -7  105.19    9.30
   0  -6   7  111.39   13.10
   0  -6   7   92.39    7.90
   0  -6   7  113.99   18.90
   0   6   7   96.49    9.40
   0   6   7   91.29   10.60
   0   6  -7   75.49    9.50
   0   6  -7   87.59    9.60
   0   6  -7  100.39   14.50
   0   6  -7   73.09   10.10
   0   6   7   90.39   10.60
   1  -6   7  198.38   20.30
   1  -6   7  196.28   24.90
  -1  -6  -7  234.48   21.00
  -1  -6  -7  222.38   17.00
  -1  -6  -7  240.78   17.30
  -1  -6  -7  203.28   18.00
   1  -6   7  212.88   20.90
   1   6   7  222.58   22.60
   1   6   7  226.88   22.50
  -1   6  -7  217.68   17.80
   1   6   7  185.18   23.60
   1   6   7  212.28   16.60
   1   6   7  211.88   16.60
  -2  -6  -7   88.99   13.30
  -2  -6  -7   89.39   13.30
  -2  -6  -7   92.89   11.50
  -2  -6  -7   93.79   11.70
   2   6   7   70.99   12.10
   2   6   7   79.79   16.80
   2   6   7   78.39   21.90
  -2   6  -7   95.39   15.30
   2   6   7   77.89    8.80
  -3  -6  -7   36.90    7.90
   3   6   7   14.50   10.20
  -4  -6  -7   36.60    8.30
   4   6   7   34.80    8.30
   4  -7  -7   -1.60    4.10
   4  -7  -7    3.10    3.30
   4   7  -7   -1.40    5.30
   3  -7  -7   46.50    9.60
  -3  -7   7   38.30    8.40
  -3  -7   7   37.20    7.90
  -3   7   7   34.80    9.10
   3   7  -7   39.60    5.90
  -2  -7   7   25.70    5.10
  -2  -7   7   14.60    5.10
  -2  -7   7    9.70    7.60
  -2  -7   7   19.60    6.30
   2  -7  -7   14.80    7.40
   2  -7  -7   15.60    7.00
   2  -7  -7   19.10    8.80
  -2  -7   7   19.10    7.40
   2   7  -7   20.60    5.10
   2   7  -7   12.30    5.70
   2   7  -7   15.10    8.40
   2   7  -7    9.10    6.80
  -2   7   7   24.80    7.90
   1  -7  -7   -0.80    9.70
  -1  -7   7    9.60    3.30
  -1  -7   7   17.30   11.60
  -1  -7   7    1.40    6.10
  -1  -7   7    3.60    2.70
   1  -7  -7   -6.00    9.60
  -1  -7   7   18.20    8.90
   1   7  -7    7.40    5.60
   1   7  -7    1.60    5.20
  -1   7   7    5.80    6.50
  -1   7   7   -2.80    8.20
   1   7  -7    9.40    6.80
   1   7  -7    9.40    5.00
   1   7  -7    0.10    4.40
   0  -7  -7  103.79   20.10
   0  -7   7  116.79   16.80
   0  -7   7  126.39   13.20
   0  -7  -7  132.59   27.80
   0  -7   7  120.19    9.40
   0  -7   7  130.89   17.70
   0   7   7  112.59   11.60
   0   7  -7  110.49   11.80
   0   7  -7   96.29   12.80
   0   7   7  120.29   21.20
   0   7  -7  109.39   15.10
   0   7   7  117.29   11.80
   0   7  -7  121.69   11.40
   0   7   7  111.19   12.90
  -1  -7  -7   12.90   10.00
   1  -7   7    8.70   10.10
  -1  -7  -7   15.40    9.00
  -1  -7  -7   -9.00    9.50
   1  -7   7    0.00    8.20
   1  -7   7    5.20    6.80
  -1  -7  -7    5.20    4.80
  -1  -7  -7   -3.40    4.50
   1   7   7   10.70   10.00
   1   7   7    7.00    4.90
   1   7   7   -4.30   10.70
   1   7   7   10.00   11.20
  -1   7  -7    7.60    6.40
  -1   7  -7   -6.10   12.30
   1   7   7    5.70    8.40
   1   7   7    8.80    5.10
   1   7   7   -7.30   10.20
  -2  -7  -7   58.79   11.50
  -2  -7  -7   44.60    8.50
  -2  -7  -7   49.60   17.00
  -2  -7  -7   35.20    7.90
   2  -7   7   25.30   12.60
   2   7   7   46.80   15.30
   2   7   7   53.09    8.50
   2   7   7   46.50   11.30
   2   7   7   32.00   16.80
   2   7   7   70.99   12.50
  -3  -7  -7  -10.10    6.20
  -3  -7  -7   -8.70    6.60
  -3  -7  -7   34.20   18.50
   3   7   7   -8.40    8.10
   3   7   7   -2.60    6.00
   3   7   7   12.30   10.10
  -3  -8   7   36.40    8.50
  -3  -8   7   25.80    6.80
   3  -8  -7   37.70    8.00
  -3  -8   7   21.30    6.10
   3  -8  -7   13.50    5.50
  -3   8   7   20.40    8.10
   3   8  -7   26.40    5.10
  -2  -8   7   17.70    6.30
  -2  -8   7   12.60    7.00
  -2  -8   7   23.00    6.80
   2  -8  -7   11.90    6.80
   2  -8  -7   25.90    8.30
   2   8  -7   20.90    6.10
   2   8  -7   12.30    9.70
   2   8  -7   13.90    4.80
  -2   8   7   28.20    7.30
   2   8  -7   20.10    7.20
  -1  -8   7   49.30   10.20
  -1  -8   7   40.40    7.40
  -1  -8   7   46.00    6.30
  -1  -8   7   56.99    9.50
   1  -8  -7   57.39   11.60
  -1  -8   7   56.89    7.10
   1  -8  -7   53.69   10.00
   1   8  -7   34.10    7.40
   1   8  -7   43.00    9.00
   1   8  -7   63.79   10.50
  -1   8   7   49.99    9.00
   1   8  -7   46.10    8.60
   1   8  -7   47.40    8.70
   0  -8  -7   67.79   16.20
   0  -8   7   85.19   14.20
   0  -8  -7  106.09   12.50
   0  -8   7   69.49   11.00
   0  -8   7  113.09   14.80
   0  -8  -7   84.99    8.00
   0   8  -7   91.19   13.10
   0   8   7   89.49   12.10
   0   8  -7   76.99   11.30
   0   8   7   87.59   10.10
   0   8  -7   76.59   10.10
   0   8  -7   70.79   12.40
   0   8   7   78.09   14.60
   0   8   7   75.39   11.30
  -1  -8  -7    8.20    5.00
  -1  -8  -7   -4.90    8.50
  -1  -8  -7   11.20    8.50
   1  -8   7   20.80    7.60
   1  -8   7    7.10    7.10
   1  -8   7   16.20    9.90
  -1  -8  -7   11.60    5.50
   1   8   7   21.00   10.60
   1   8   7   25.60    8.20
   1   8   7   12.20    6.20
   1   8   7   12.90    9.70
  -1   8  -7   18.50    6.30
  -1   8  -7   16.80   11.20
   1   8   7   30.40    8.00
   1   8   7   23.10   11.10
   1   8   7   15.90    6.00
  -2  -8  -7   13.70    7.70
  -2  -8  -7    0.60    8.30
   2  -8   7   -7.60   11.20
  -2  -8  -7   10.40   12.70
  -2  -8  -7    5.20    8.30
  -2  -8  -7    0.30    7.30
   2   8   7   13.10    8.20
  -2   8  -7    3.60    8.90
   2   8   7   31.30   13.10
   2   8   7   10.20    7.30
   2   8   7   15.90   12.40
  -3  -8  -7   -0.60    5.30
  -3  -8  -7   -2.00    7.70
   3   8   7    3.40    9.10
   3   8   7   -1.60    6.90
   3   8   7   11.00    5.60
  -3  -9   7   31.70    7.40
   3  -9  -7   48.10    8.30
  -3  -9   7   44.30    9.20
   3  -9  -7   48.50    8.90
  -3   9   7   57.19    8.40
   3   9  -7   35.80    6.30
  -2  -9   7   88.49    9.80
   2  -9  -7   75.99   12.90
  -2  -9   7   90.19   11.30
  -2  -9   7   82.99   12.50
   2  -9  -7   88.89   12.80
  -2  -9   7  102.69   11.40
  -2  -9   7  111.19   17.50
   2   9  -7   89.39   10.70
   2   9  -7   66.49   12.50
  -2   9   7  100.29   11.00
   2   9  -7   86.59   10.80
   2   9  -7   79.49   11.20
  -1  -9   7    8.80    6.10
  -1  -9   7   17.40    8.20
   1  -9  -7   -1.40    7.80
   1  -9  -7   17.30    6.40
  -1  -9   7   11.40    5.50
  -1   9   7    2.90    9.70
   1   9  -7    7.20    6.20
  -1   9   7   10.30    5.70
   1   9  -7   14.00    6.20
   1   9  -7    6.40    5.70
  -1   9   7   13.60   19.70
   0  -9   7  515.35   35.50
   0  -9  -7  481.15   38.30
   0  -9  -7  476.55   35.80
   0  -9   7  502.35   36.50
   0  -9  -7  422.56   44.80
   0  -9   7  545.35   36.90
   0   9   7  515.85   36.50
   0   9  -7  515.65   36.50
   0   9  -7  506.05   35.50
   0   9   7  511.45   36.40
   0   9  -7  465.35   36.00
   0   9   7  504.85   35.10
   0   9   7  457.35   36.40
   0   9  -7  461.85   36.90
   0   9   7  460.05   36.70
   1  -9   7    5.40    6.30
  -1  -9  -7   16.70    5.40
   1  -9   7   22.40    8.30
  -1  -9  -7   11.50    6.20
   1  -9   7   20.00    6.40
  -1  -9  -7    1.30    8.30
  -1  -9  -7   12.80    7.70
  -1   9  -7   15.80   10.00
   1   9   7   18.60    6.60
   1   9   7    3.70    8.20
  -1   9  -7   14.60    6.40
   1   9   7   14.50    6.50
   1   9   7    1.30    7.20
   1   9   7   21.20    9.70
   1   9   7   16.80    7.00
  -2  -9  -7   46.80   10.30
   2  -9   7   67.09   15.50
  -2  -9  -7   54.19   10.90
  -2  -9  -7   49.60   10.90
   2   9   7   81.89   11.30
   2   9   7   63.29   12.50
  -2   9  -7   77.29   10.50
   2   9   7   76.99   12.20
   2   9   7   76.99   14.50
  -3  -9  -7   50.19    6.90
   3   9   7   68.09   10.90
   3   9   7   44.70    7.70
  -3 -10   7   57.49   10.90
  -3 -10   7   42.30    5.90
   3 -10  -7   48.30    6.90
  -3  10   7   55.99    9.80
   2 -10  -7  217.88   19.80
   2 -10  -7  255.67   20.60
  -2 -10   7  240.08   21.70
  -2 -10   7  228.58   18.40
  -2 -10   7  257.37   18.90
  -2 -10   7  240.78   18.60
  -2  10   7  237.88   18.30
   2  10  -7  224.28   19.30
   2  10  -7  224.28   18.80
   2  10  -7  239.38   18.50
  -1 -10   7  578.94   41.00
  -1 -10   7  570.74   40.30
  -1 -10   7  602.74   41.10
   1 -10  -7  557.24   40.10
   1 -10  -7  572.94   42.10
  -1 -10   7  549.35   39.30
   1  10  -7  564.34   41.50
  -1  10   7  533.05   41.10
   1  10  -7  539.05   40.50
  -1  10   7  584.54   40.10
   1  10  -7  619.84   41.10
   1  10  -7  564.44   41.10
   1  10  -7  542.75   40.50
   0 -10  -7  112.99   12.60
   0 -10   7  120.69   13.30
   0 -10  -7  100.69   16.50
   0 -10   7  115.49   11.30
   0 -10   7  117.29   13.30
   0  10  -7  124.59   12.90
   0  10  -7  140.89   11.70
   0  10   7  108.09   15.90
   0  10   7  105.89   13.80
   0  10   7  104.29   16.60
   0  10   7  123.49   13.60
   0  10  -7  101.19   16.40
   1 -10   7  352.06   25.70
   1 -10   7  295.07   24.80
  -1 -10  -7  299.87   24.80
  -1 -10  -7  305.07   24.60
  -1 -10  -7  289.17   23.30
   1 -10   7  338.27   23.60
   1  10   7  321.87   25.20
   1  10   7  330.57   24.90
   1  10   7  353.76   24.50
   1  10   7  350.06   26.00
  -1  10  -7  321.57   24.00
  -1  10  -7  288.67   26.10
   1  10   7  314.57   25.00
   1  10   7  282.67   26.00
  -2 -10  -7   26.90    8.20
  -2 -10  -7   37.00    6.90
  -2 -10  -7   30.10    8.90
  -2  10  -7   34.30    8.00
   2  10   7   29.80    9.10
   2  10   7   18.30    8.40
   2  10   7   35.60    9.40
   2  10   7   30.50    6.20
   2  10   7   18.10    8.20
  -3 -10  -7   21.50    4.10
  -3 -10  -7   16.70    6.20
   3  10   7   31.10    4.90
  -3 -11   7  179.58   13.20
   3 -11  -7  157.28   12.00
  -3 -11   7  135.49   11.50
   3  11  -7  138.49   11.40
  -2 -11   7  139.09   14.10
  -2 -11   7  105.59   12.60
  -2 -11   7  127.99   11.70
   2 -11  -7  132.89   13.20
  -2 -11   7  132.39   11.60
  -2  11   7  140.59   11.70
   2  11  -7  134.29   12.10
   2  11  -7  149.88   14.40
   2  11  -7  124.49   11.60
  -1 -11   7    5.40    5.30
  -1 -11   7   21.80    5.80
   1 -11  -7   14.90    6.60
   1 -11  -7    9.40    4.60
  -1 -11   7   14.00    4.10
  -1  11   7   11.90    7.50
  -1  11   7   15.30    5.10
   1  11  -7   18.60    6.40
   1  11  -7   19.50    6.10
   1  11  -7   -1.40    8.00
   1  11  -7   17.80    9.40
  -1  11   7    4.10    7.10
   1  11  -7   11.80    6.10
   0 -11  -7  541.65   48.60
   0 -11  -7  686.03   46.60
   0 -11   7  685.83   46.10
   0 -11   7  677.63   45.40
   0 -11  -7  624.64   45.70
   0 -11   7  687.23   46.10
   0  11   7  545.45   48.00
   0  11  -7  648.64   45.80
   0  11   7  709.13   46.40
   0  11  -7  624.84   48.50
   0  11   7  619.74   48.20
   0  11  -7  677.23   45.70
   0  11   7  692.13   46.00
  -1 -11  -7   -3.50    5.30
   1 -11   7    1.60    5.10
   1 -11   7   13.70    6.00
  -1 -11  -7   17.60    6.30
  -1 -11  -7    7.30    5.90
   1  11   7   33.70   18.80
   1  11   7   11.60    7.10
   1  11   7    8.00    6.40
   1  11   7   10.30    8.00
   1  11   7    2.10    5.40
  -1  11  -7   -2.90    7.20
  -1  11  -7    9.50    5.00
  -2 -11  -7  123.89   13.90
  -2 -11  -7  132.49   12.90
  -2 -11  -7  113.39   11.60
   2  11   7  129.99   13.20
   2  11   7  149.39   13.70
   2  11   7  134.79   12.00
  -2  11  -7  165.18   14.10
   2 -12  -7   66.59    8.70
  -2 -12   7   59.79    9.10
  -2 -12   7   73.79    7.00
  -2 -12   7   70.49    7.40
   2  12  -7   71.79    7.40
   2  12  -7   63.29    8.00
  -1 -12   7  166.28   13.70
   1 -12  -7  151.58   15.00
  -1 -12   7  168.48   13.70
   1 -12  -7  132.29   12.50
  -1 -12   7  157.78   12.60
  -1  12   7  127.49   14.10
   1  12  -7  176.28   13.50
  -1  12   7  157.38   14.20
   1  12  -7  184.18   14.30
   1  12  -7  151.98   17.70
   0 -12   7    9.00    4.10
   0 -12   7   11.40    4.60
   0 -12   7   14.80    3.60
   0 -12  -7    1.60    8.20
   0 -12  -7   18.10    7.30
   0 -12  -7   10.70    4.50
   0  12   7   20.80    6.40
   0  12   7   20.90    6.00
   0  12  -7   14.40    4.70
   0  12  -7   16.70    4.60
   0  12   7   19.70    5.90
   0  12   7   18.20    5.30
   0  12   7   17.40   12.00
  -1 -12  -7  199.18   17.50
  -1 -12  -7  215.68   17.80
   1 -12   7  236.58   18.40
   1  12   7  216.78   20.40
   1  12   7  221.28   17.70
  -1  12  -7  240.58   18.80
   1  12   7  237.68   17.60
  -1  12  -7  232.58   17.20
   1  12   7  240.38   18.40
  -2 -12  -7   27.70    5.00
  -2 -12  -7   20.80    5.00
   2  12   7   31.50    5.10
   2  12   7   17.80    5.70
   2 -13  -7   42.40    6.10
  -2 -13   7   32.80    4.40
  -2 -13   7   28.00    4.40
  -2  13   7   23.40    4.70
   2  13  -7   32.20    4.80
  -2  13   7   36.20    5.60
  -1 -13   7   27.80    4.80
  -1 -13   7   36.90    5.80
  -1 -13   7   32.30    4.60
   1 -13  -7   20.10    5.60
  -1  13   7   32.30    5.70
   1  13  -7    5.10   12.90
   1  13  -7   44.80    6.00
  -1  13   7   43.70    6.80
  -1  13   7   27.60    5.80
   0 -13   7  134.79   11.20
   0 -13  -7  116.19   10.90
   0 -13   7  136.39   10.50
   0 -13  -7  131.89   12.70
   0 -13   7  145.99   11.90
   0  13   7  124.79   11.10
   0  13   7  124.29   12.00
   0  13  -7  147.89   11.70
   0  13   7  132.89   12.00
   0  13   7  155.58   12.80
   0  13  -7  137.09   11.20
  -1 -13  -7   -4.50    4.00
   1 -13   7   11.10    7.90
  -1 -13  -7    0.70    3.40
   1  13   7   -0.30    3.90
   1  13   7    0.00    4.40
   1  13   7    1.30    4.20
  -1  13  -7    3.30    3.60
  -1  13  -7    1.30    5.60
  -2 -13  -7   12.80    3.20
  -2 -13  -7   21.40    3.90
  -1 -14   7   27.50    4.50
  -1 -14   7   22.10    3.40
   1 -14  -7   19.20    4.60
  -1 -14   7   25.90    4.50
  -1  14   7   23.70    4.60
   1  14  -7   26.10    4.40
  -1  14   7   20.90    5.10
   0 -14   7    2.60    2.60
   0 -14   7    7.40    2.10
   0 -14   7   -0.70    3.30
   0 -14  -7    2.00    2.50
   0  14   7    4.60    3.40
   0  14  -7    9.40    4.50
   0  14   7    8.20    6.20
   0  14   7    1.60    3.30
   0  14  -7    3.20    3.00
  -1 -14  -7   12.00    4.00
  -1 -14  -7   16.30    2.90
   1  14   7   12.40    3.40
   1  14   7   23.80    4.90
   4   0  -8   34.20    9.10
   4   0  -8   45.00    7.70
  -4   0   8   31.40    7.10
  -3   0   8 1240.08   81.99
   3   0  -8 1118.69   83.69
  -2   0   8  195.48   18.50
  -2   0   8  226.98   17.10
  -2   0   8  260.67   19.70
   2   0  -8  172.88   27.10
  -1   0   8 1289.97   98.79
   1   0  -8 1521.35   98.59
  -1   0   8 1399.16   98.29
   1   0  -8 1477.85   98.79
  -1   0   8 1497.95   98.19
   1   0  -8 1426.16   98.69
   0   0   8 3465.75  263.27
   0   0  -8 3802.02  263.57
   0   0  -8 4250.57  263.87
   0   0  -8 3810.52  263.67
   0   0   8 4198.18  263.57
   0   0   8 4090.39  263.47
   0   0  -8 3671.73  263.37
   0   0   8 3797.82  264.47
  -1   0  -8 1055.49   69.09
   1   0   8 1075.89   68.49
  -1   0  -8  901.41   69.39
  -1   0  -8  977.10   69.39
  -2   0  -8 1004.00   70.49
   2   0   8  851.61   70.59
  -2   0  -8 1010.40   68.39
   2   0   8  933.11   67.89
   3   0   8   56.69   12.40
   3   0   8   74.19   15.80
  -3   0  -8   89.19   12.70
   4   0   8   65.79   10.10
  -4  -1   8  154.98   14.10
   4  -1  -8  185.28   13.80
   4  -1  -8  133.19   14.90
   4   1  -8  126.89   16.40
  -4   1   8  161.78   14.00
   4   1  -8  182.78   13.80
   3  -1  -8    3.20    6.00
  -3  -1   8   -7.90    6.80
   3  -1  -8    8.20   10.10
  -3   1   8    2.40    6.80
   3   1  -8    8.60    7.70
   3   1  -8   -6.70   12.20
  -2  -1   8 1870.21  121.99
  -2  -1   8 1640.54  122.09
   2  -1  -8 1873.81  122.89
  -2  -1   8 1893.21  121.79
  -2   1   8 1554.94  121.99
  -2   1   8 1908.31  121.89
   2   1  -8 1626.94  120.99
   2   1  -8 1870.51  121.39
   1  -1  -8  789.42   52.29
  -1  -1   8  813.02   51.79
   1  -1  -8  856.11   52.49
  -1  -1   8  637.24   52.69
  -1  -1   8  758.62   52.09
  -1  -1   8  815.42   51.69
   1   1  -8  751.22   52.19
  -1   1   8  727.73   52.09
  -1   1   8  655.93   52.59
  -1   1   8  783.12   51.89
   1   1  -8  684.93   52.09
   1   1  -8  731.53   51.69
  -1   1   8  739.33   51.79
   1   1  -8  728.43   52.39
   0  -1   8  836.62   59.29
   0  -1   8  937.11   59.19
   0  -1  -8  804.42   59.59
   0  -1  -8  797.82   59.59
   0  -1   8  933.21   59.29
   0  -1  -8  865.91   59.59
   0   1   8  802.72   60.89
   0   1  -8  834.22   59.49
   0   1  -8  903.81   59.69
   0   1   8  956.70   59.39
   0   1   8  849.12   59.29
   0   1  -8  809.62   59.39
   0   1  -8  825.22   59.49
   0   1   8  922.71   59.39
   1  -1   8 1702.43  113.39
  -1  -1  -8 1516.75  114.39
  -1  -1  -8 1743.23  113.99
  -1  -1  -8 1593.44  114.39
  -1   1  -8 1546.65  114.39
  -1   1  -8 1598.04  114.19
   1   1   8 1809.62  113.49
  -1   1  -8 1734.03  113.99
   1   1   8 1782.02  113.59
   2  -1   8   13.90   12.70
  -2  -1  -8   13.30   14.60
  -2  -1  -8    2.80    8.20
   2  -1   8  -11.10   14.20
  -2  -1  -8    1.10    5.70
   2   1   8    0.50   15.40
  -2   1  -8  -12.00   23.50
   2   1   8  -13.90   10.00
  -2   1  -8   10.90    6.40
  -3  -1  -8  218.88   31.00
   3  -1   8  245.58   23.00
   3  -1   8  236.88   23.40
  -3   1  -8  265.27   21.40
   3   1   8  251.57   24.20
  -4  -1  -8   32.30    8.60
   4  -1   8   50.99    9.50
  -4   1  -8   27.10    9.40
   4   1   8   53.79   10.40
   4  -2  -8   49.90    7.80
   4  -2  -8   38.90    9.00
  -4   2   8   48.70    7.60
   4   2  -8   40.00    7.70
   4   2  -8   34.20    9.90
  -3  -2   8  189.58   18.20
  -3  -2   8  226.48   21.50
   3  -2  -8  233.78   18.60
   3  -2  -8  184.28   20.40
   3   2  -8  206.88   25.30
  -3   2   8  201.38   18.20
   3   2  -8  227.18   16.20
  -2  -2   8   74.59    9.70
   2  -2  -8   84.79   16.10
  -2  -2   8   82.39    8.00
  -2  -2   8   53.69   10.70
   2  -2  -8   70.59   13.00
   2   2  -8   73.99    9.90
   2   2  -8   68.09   20.60
   2   2  -8   77.69    8.00
  -2   2   8   70.89   11.30
  -2   2   8   65.89   10.30
   1  -2  -8  510.05   31.80
  -1  -2   8  367.46   32.20
  -1  -2   8  444.16   31.50
   1  -2  -8  456.85   30.90
  -1  -2   8  462.85   30.80
  -1  -2   8  478.05   30.70
  -1   2   8  443.26   30.90
   1   2  -8  435.66   31.40
  -1   2   8  433.46   31.00
  -1   2   8  386.56   31.40
   1   2  -8  440.86   31.00
  -1   2   8  425.46   31.90
   1   2  -8  414.46   31.10
   1   2  -8  393.16   31.50
   0  -2  -8 1810.82  119.99
   0  -2   8 1801.12  119.49
   0  -2   8 1820.82  119.59
   0  -2  -8 1573.54  119.79
   0   2   8 1681.93  119.69
   0   2  -8 1695.83  119.89
   0   2   8 1912.91  119.79
   0   2   8 1851.61  119.79
   0   2  -8 1790.82  119.99
   0   2  -8 1749.53  119.89
   0   2   8 1680.53  120.59
   0   2  -8 1713.73  119.89
  -1  -2  -8   66.19    8.60
  -1  -2  -8   69.69    8.60
  -1  -2  -8   51.99    9.60
  -1   2  -8   63.99    8.80
   1   2   8   65.39    6.30
   1   2   8   70.69    6.00
  -1   2  -8   66.99   12.00
  -1   2  -8   61.69    8.20
  -2  -2  -8  469.05   33.30
  -2  -2  -8  469.75   31.40
   2  -2   8  352.06   37.00
  -2  -2  -8  470.35   35.20
   2  -2   8  431.86   38.30
   2   2   8  365.76   33.30
   2   2   8  391.86   37.80
  -2   2  -8  480.25   32.00
   3  -2   8   25.10   11.10
   3  -2   8   54.09   11.20
  -3  -2  -8   39.80    8.70
  -3  -2  -8   22.80   16.50
   3   2   8   12.70   11.00
  -4  -2  -8   26.80    7.40
  -4  -2  -8   34.30    8.60
   4   2   8   45.70   11.10
  -4   2  -8   10.80    9.70
   4  -3  -8   33.50    8.10
   4  -3  -8   34.10    7.10
  -4  -3   8   42.10    8.30
  -4   3   8   37.70    7.20
   4   3  -8   33.40    8.00
   4   3  -8   34.10   14.10
   3  -3  -8    8.90    5.30
  -3  -3   8   13.00    9.50
   3  -3  -8   13.40    8.30
  -3  -3   8    2.50    6.70
  -3   3   8   -0.20    7.20
   3   3  -8   11.50    3.90
   3   3  -8    1.80   15.70
  -2  -3   8  181.68   13.60
  -2  -3   8  192.98   14.20
  -2  -3   8  156.08   27.10
   2  -3  -8  131.69   19.10
   2  -3  -8  169.08   18.10
  -2  -3   8  155.28   15.10
  -2   3   8  187.28   18.10
  -2   3   8  137.69   15.50
   2   3  -8  161.18   13.30
   2   3  -8  176.78   17.00
   2   3  -8  162.58   15.30
  -1  -3   8   42.20    9.00
  -1  -3   8   49.90    9.10
  -1  -3   8   32.50    4.50
  -1  -3   8   35.80    5.40
   1  -3  -8   39.10    6.50
   1  -3  -8   52.69   13.70
   1   3  -8   20.40    4.80
  -1   3   8   32.80    6.10
   1   3  -8   24.00    4.60
  -1   3   8   30.20    7.60
  -1   3   8   34.20    6.10
   1   3  -8   28.90    6.00
   1   3  -8   44.00    7.00
  -1   3   8   23.30    7.70
   0  -3   8  207.98   14.30
   0  -3  -8  197.48   17.70
   0  -3   8  209.08   14.60
   0  -3  -8  224.58   15.70
   0   3   8  204.88   17.80
   0   3   8  192.88   15.10
   0   3  -8  190.88   15.50
   0   3  -8  183.08   15.50
   0   3  -8  191.48   15.30
   0   3   8  191.98   15.50
   0   3   8  204.58   14.90
   0   3  -8  183.88   15.90
   1  -3   8  230.68   23.70
  -1  -3  -8  236.68   22.70
   1  -3   8  206.08   21.70
  -1  -3  -8  243.08   18.80
  -1  -3  -8  234.38   19.00
  -1  -3  -8  251.77   19.40
   1   3   8  264.97   17.80
   1   3   8  255.27   17.60
  -1   3  -8  238.68   18.80
  -1   3  -8  251.07   18.90
   1   3   8  231.98   23.60
  -2  -3  -8   28.80   12.10
  -2  -3  -8   16.60   10.50
  -2  -3  -8   22.60    6.50
   2  -3   8   -7.20   15.30
   2   3   8   22.00   14.40
   2   3   8   31.20   15.80
   3  -3   8    5.30   10.90
  -3  -3  -8  -16.60   13.60
   3   3   8   -0.30    9.90
  -3   3  -8   -3.90   10.90
   3   3   8  -11.40   11.70
  -4  -3  -8   20.30    7.10
  -4  -3  -8   21.80    8.10
  -4   3  -8    9.60   11.70
   4   3   8   19.70    9.10
   4  -4  -8   11.80    5.20
   4  -4  -8    4.00    3.80
  -4  -4   8    7.70    5.50
  -4   4   8   19.50    7.10
   4   4  -8    9.10    4.30
  -3  -4   8   39.60    9.80
  -3  -4   8   33.90    7.70
  -3  -4   8   16.40   12.80
   3  -4  -8   48.60   10.40
   3  -4  -8   25.50    8.30
  -3   4   8   53.69   10.70
   3   4  -8   39.90    6.60
  -2  -4   8   14.80    4.30
  -2  -4   8   17.50    6.80
  -2  -4   8  -14.10   13.70
   2  -4  -8    9.70    7.00
  -2  -4   8    8.80    4.40
   2   4  -8   -7.30    7.60
  -2   4   8   12.80    7.70
   2   4  -8    8.90    3.50
   2   4  -8   10.60    7.20
   2   4  -8   11.00    6.20
  -1  -4   8   49.90    5.90
   1  -4  -8   63.29    8.00
   1  -4  -8   68.99   17.20
  -1  -4   8   60.69   14.70
  -1  -4   8   54.29   10.90
  -1  -4   8   54.59    5.70
  -1   4   8   43.40    9.30
   1   4  -8   39.30    7.70
   1   4  -8   48.50    8.40
  -1   4   8   55.29    7.50
   1   4  -8   62.39   11.10
  -1   4   8   55.09   10.10
   1   4  -8   37.70    7.50
   0  -4   8   55.59    4.90
   0  -4   8   46.80    5.00
   0  -4  -8   56.49    6.40
   0  -4  -8   52.69    7.60
   0   4  -8   37.20    7.00
   0   4   8   46.60    8.60
   0   4   8   51.99    6.70
   0   4  -8   50.79    7.50
   0   4   8   42.70    5.80
   0   4   8   61.09   10.10
   0   4  -8   51.69    6.80
  -1  -4  -8    2.90    5.50
  -1  -4  -8    5.50    5.90
   1  -4   8    1.60    8.70
  -1  -4  -8   14.20    9.40
   1  -4   8    1.90    8.50
  -1  -4  -8    0.00    4.60
  -1   4  -8   -1.50    5.20
   1   4   8   27.10   16.70
  -1   4  -8    3.00    5.30
   1   4   8    4.70   13.10
   1   4   8    6.10    3.40
   1   4   8    9.20   20.20
   1   4   8    8.80    3.20
   1   4   8   23.10   11.10
  -2  -4  -8   24.10    6.90
  -2  -4  -8   17.70    8.50
   2  -4   8    4.80   10.10
  -2  -4  -8   40.70   10.10
  -2  -4  -8   27.50    9.60
   2   4   8   17.70   16.10
  -2   4  -8   37.40    8.70
   2   4   8   20.30   12.00
   3   4   8    0.00    9.90
  -3   4  -8    5.00   11.80
   3   4   8   -6.90   10.60
  -4  -4  -8   -1.40    7.10
  -4  -4  -8   12.80    6.00
   4   4   8    4.10    7.40
  -4  -5   8   84.29    8.80
   4  -5  -8   62.49    8.20
   4  -5  -8   65.19    7.80
  -4   5   8   62.89   11.10
   4   5  -8   71.09    9.30
  -3  -5   8    4.00    9.70
   3  -5  -8   12.70    5.20
  -3  -5   8    6.80    5.90
   3  -5  -8    6.30    7.50
  -3  -5   8   14.00    9.40
  -3  -5   8   -4.40    8.70
   3   5  -8    6.60    3.70
  -3   5   8    5.80    7.60
  -2  -5   8   78.49   17.80
  -2  -5   8  104.59   10.10
  -2  -5   8   94.99   10.30
  -2  -5   8  122.79   15.80
  -2  -5   8  104.99   11.30
   2  -5  -8   85.29   14.50
   2   5  -8  108.79   10.30
   2   5  -8  122.99   12.20
   2   5  -8  117.19   12.10
  -2   5   8  110.29   12.60
  -1  -5   8  249.58   21.00
   1  -5  -8  250.77   24.40
  -1  -5   8  221.48   24.80
  -1  -5   8  258.87   20.90
  -1  -5   8  256.17   18.00
  -1  -5   8  272.47   18.20
   1  -5  -8  229.08   29.80
   1   5  -8  258.47   20.30
   1   5  -8  225.18   18.90
   1   5  -8  221.68   18.80
   1   5  -8  233.78   18.90
  -1   5   8  262.67   19.40
  -1   5   8  230.88   21.30
  -1   5   8  242.88   19.70
   1   5  -8  238.18   19.00
   0  -5   8  169.18   12.60
   0  -5   8  163.58   20.10
   0  -5   8  202.88   20.00
   0  -5   8  171.58   16.20
   0  -5  -8  177.98   14.20
   0  -5  -8  187.98   20.50
   0   5  -8  161.18   13.90
   0   5  -8  170.38   14.30
   0   5   8  140.59   16.20
   0   5   8  150.68   14.90
   0   5   8  175.48   13.70
   0   5  -8  193.48   14.20
   0   5   8  166.78   13.90
   0   5  -8  194.28   17.30
   0   5   8  156.98   21.00
  -1  -5  -8  218.58   19.10
  -1  -5  -8  195.38   17.20
  -1  -5  -8  225.98   16.90
   1  -5   8  191.38   22.60
  -1  -5  -8  195.48   17.20
   1  -5   8  214.48   19.80
   1   5   8  196.98   22.20
   1   5   8  183.78   21.90
   1   5   8  167.98   26.40
  -1   5  -8  192.88   17.70
   1   5   8  217.68   15.90
   1   5   8  210.58   15.80
  -1   5  -8  220.98   16.80
   1   5   8  243.88   23.90
  -1   5  -8  213.28   23.20
  -2  -5  -8    9.40    9.20
  -2  -5  -8   15.10    6.60
   2  -5   8    2.00   10.30
  -2  -5  -8   10.40    9.70
  -2  -5  -8   16.60    8.50
   2   5   8   12.20   10.70
   2   5   8    7.50   15.00
  -2   5  -8   27.00    8.80
   2   5   8   11.40    4.40
  -3  -5  -8   77.99   12.00
   3   5   8   85.39   15.60
  -3   5  -8   83.99   15.70
   3   5   8   84.39   14.10
  -4  -5  -8    7.50    6.80
   4   5   8   20.10    7.70
  -4  -6   8    6.60    5.70
   4  -6  -8    7.30    3.30
   4   6  -8   17.50    5.10
  -3  -6   8  254.67   24.40
   3  -6  -8  245.08   22.10
  -3  -6   8  278.07   21.30
  -3  -6   8  282.67   23.40
   3  -6  -8  312.87   22.20
   3   6  -8  272.57   20.70
  -3   6   8  293.77   21.90
  -2  -6   8  160.58   13.80
  -2  -6   8  192.58   17.40
  -2  -6   8  153.68   13.90
  -2  -6   8  179.68   18.40
  -2  -6   8  171.48   14.70
   2  -6  -8  144.69   17.70
   2  -6  -8  149.29   17.70
   2   6  -8  164.28   14.20
  -2   6   8  162.68   15.30
   2   6  -8  188.98   15.30
   2   6  -8  156.68   18.10
   2   6  -8  173.88   15.20
   1  -6  -8 1225.58   81.49
  -1  -6   8 1186.78   82.19
  -1  -6   8 1146.19   78.99
  -1  -6   8 1179.38   79.09
   1  -6  -8 1002.70   81.99
  -1  -6   8 1274.97   80.49
  -1  -6   8 1193.58   81.39
   1   6  -8 1153.38   79.79
  -1   6   8 1180.48   80.19
   1   6  -8 1158.18   79.39
   1   6  -8 1218.78   79.99
   1   6  -8 1038.60   79.39
   1   6  -8 1098.99   79.69
  -1   6   8 1158.58   79.69
  -1   6   8 1069.89   81.49
   0  -6  -8 1267.17   76.59
   0  -6   8 1060.39   79.09
   0  -6  -8 1158.78   78.49
   0  -6   8 1127.09   77.49
   0  -6  -8 1230.38   76.29
   0  -6   8 1099.09   78.09
   0   6   8 1039.50   78.69
   0   6   8 1028.20   76.89
   0   6  -8 1002.00   77.09
   0   6  -8 1098.99   76.79
   0   6   8 1151.38   76.99
   0   6  -8 1088.59   77.49
   0   6   8 1149.98   77.09
   0   6  -8 1091.59   77.19
   0   6   8 1112.39   84.09
  -1  -6  -8  109.59   10.60
  -1  -6  -8   72.59   12.50
  -1  -6  -8  103.59   14.10
   1  -6   8  102.89   18.80
  -1  -6  -8   98.39   10.40
  -1   6  -8   85.19   16.70
   1   6   8  101.79   17.40
   1   6   8   98.59   19.60
   1   6   8  100.69    9.30
  -1   6  -8   92.89   10.70
   1   6   8  116.19   16.40
   1   6   8   78.19    9.60
   1   6   8  129.69   16.10
  -2  -6  -8  288.87   22.70
  -2  -6  -8  330.37   24.70
  -2  -6  -8  298.57   23.90
   2  -6   8  232.38   29.20
  -2  -6  -8  265.97   23.70
   2   6   8  290.97   21.40
   2   6   8  305.87   25.20
  -2   6  -8  299.97   24.40
  -3  -6  -8   22.70    7.00
  -3  -6  -8   -1.00    6.20
   3   6   8    9.70    9.60
   3   6   8   18.50    7.10
  -3  -7   8   -4.30    7.40
  -3  -7   8    7.80    5.50
   3  -7  -8    6.40    4.70
  -3  -7   8    0.10    7.00
   3  -7  -8   11.90    6.90
  -3   7   8    6.00    7.00
   3   7  -8    2.20    3.80
  -2  -7   8  432.96   33.30
  -2  -7   8  472.25   34.60
   2  -7  -8  437.06   34.50
  -2  -7   8  440.06   33.00
  -2  -7   8  485.35   34.80
   2  -7  -8  464.35   35.00
  -2  -7   8  451.95   33.30
   2   7  -8  482.85   33.30
  -2   7   8  469.95   33.40
   2   7  -8  454.45   33.60
   2   7  -8  484.65   33.70
   2   7  -8  451.35   35.60
  -1  -7   8  628.74   43.80
   1  -7  -8  642.54   45.40
  -1  -7   8  571.54   42.30
  -1  -7   8  573.84   42.30
  -1  -7   8  620.14   45.80
  -1  -7   8  614.04   44.60
  -1   7   8  604.74   44.60
   1   7  -8  643.54   43.80
   1   7  -8  648.84   43.50
   1   7  -8  643.64   43.50
  -1   7   8  550.84   49.00
  -1   7   8  618.44   43.10
   1   7  -8  606.74   43.20
   1   7  -8  535.65   43.00
   0  -7  -8  490.75   40.70
   0  -7  -8  592.74   37.30
   0  -7   8  524.95   38.50
   0  -7   8  528.85   39.80
   0  -7   8  587.84   40.50
   0  -7  -8  505.25   45.40
   0   7  -8  516.45   37.90
   0   7   8  494.15   38.30
   0   7   8  486.35   40.80
   0   7   8  563.94   38.00
   0   7   8  561.74   38.60
   0   7  -8  544.15   39.00
   0   7  -8  511.55   38.50
   1  -7   8 1134.99   77.29
  -1  -7  -8 1101.29   75.99
  -1  -7  -8  999.30   74.99
   1  -7   8 1061.19   74.99
  -1  -7  -8 1016.10   74.19
  -1  -7  -8 1125.79   74.39
  -1   7  -8 1116.99   74.59
   1   7   8 1055.09   74.29
  -1   7  -8  968.90   75.59
   1   7   8 1122.09   75.69
   1   7   8 1076.39   75.69
   1   7   8  982.90   74.39
   1   7   8 1255.17   76.99
   1   7   8 1056.89   75.69
  -2  -7  -8   40.30   17.90
   2  -7   8   -3.70   11.80
  -2  -7  -8   -3.60    8.40
  -2  -7  -8    5.40    7.00
  -2  -7  -8   -5.50    8.70
   2   7   8   -3.10    9.50
   2   7   8   -2.10    5.50
   2   7   8   13.50   16.10
  -2   7  -8   -2.40    8.70
   2   7   8    1.80    7.30
  -3  -7  -8  111.09   13.10
  -3  -7  -8  152.58   13.40
   3   7   8  109.69   15.40
   3   7   8  150.58   13.40
  -3  -8   8  261.37   20.20
   3  -8  -8  254.87   20.30
   3  -8  -8  283.67   20.50
  -3  -8   8  253.87   21.70
  -3   8   8  272.77   20.30
   3   8  -8  244.68   19.40
  -2  -8   8   93.09   12.10
   2  -8  -8   84.09   12.90
  -2  -8   8   92.99   12.50
  -2  -8   8  100.09   12.30
   2  -8  -8  125.19   14.40
   2  -8  -8   79.49   13.50
  -2  -8   8   98.69   10.20
   2   8  -8   84.79   11.60
   2   8  -8  103.99   17.40
   2   8  -8   94.19   11.60
   2   8  -8  108.79   11.30
  -2   8   8  121.39   11.20
  -1  -8   8 1103.49   71.59
  -1  -8   8  954.60   69.79
   1  -8  -8  953.70   71.99
  -1  -8   8 1061.39   70.99
  -1  -8   8 1040.90   71.79
  -1  -8   8  915.11   69.59
   1  -8  -8 1084.99   71.69
   1   8  -8 1028.20   70.49
   1   8  -8  983.70   70.69
  -1   8   8 1103.59   70.39
  -1   8   8  959.00   72.39
   1   8  -8 1050.79   70.89
   1   8  -8  881.81   70.29
   1   8  -8 1092.29   70.99
   0  -8  -8  555.64   36.60
   0  -8   8  506.35   38.90
   0  -8   8  596.64   39.70
   0  -8  -8  468.45   42.20
   0  -8   8  496.25   37.90
   0   8   8  559.24   37.60
   0   8  -8  527.15   37.70
   0   8   8  534.75   39.10
   0   8   8  533.65   38.80
   0   8  -8  511.85   38.50
   0   8   8  559.44   46.10
   0   8  -8  492.45   38.60
   0   8   8  503.75   38.50
   0   8  -8  516.65   38.50
  -1  -8  -8  126.69   14.70
   1  -8   8  120.99   16.50
   1  -8   8  126.49   13.60
  -1  -8  -8   80.79   15.60
  -1  -8  -8  128.39   11.50
  -1  -8  -8  121.09   11.40
   1   8   8  108.19   16.40
   1   8   8  105.39   11.90
   1   8   8  127.39   15.00
   1   8   8  112.89   14.30
   1   8   8  150.38   18.80
  -1   8  -8  102.79   16.70
   1   8   8  125.79   15.00
   1   8   8   88.09   12.60
  -1   8  -8  108.49   11.90
  -2  -8  -8  214.38   21.00
  -2  -8  -8  261.67   26.20
   2  -8   8  266.97   25.50
  -2  -8  -8  274.27   21.60
  -2  -8  -8  236.18   22.40
   2   8   8  279.87   21.70
   2   8   8  276.17   22.10
   2   8   8  256.17   20.50
   2   8   8  282.47   40.40
   2   8   8  235.78   25.00
  -2   8  -8  280.97   22.80
  -3  -8  -8    5.10    4.90
  -3  -8  -8   16.30    8.90
   3   8   8    2.20    5.50
   3   8   8   14.00    5.10
  -3  -9   8    7.00    5.00
   3  -9  -8    7.30    3.90
   3  -9  -8    7.50    5.60
   3   9  -8    5.40    3.60
  -3   9   8   15.90    6.40
   2  -9  -8  238.38   19.70
  -2  -9   8  230.78   18.80
  -2  -9   8  237.58   18.30
   2  -9  -8  220.48   19.70
  -2  -9   8  247.98   19.30
   2   9  -8  232.18   19.20
  -2   9   8  256.57   18.40
  -2   9   8  229.28   22.00
   2   9  -8  208.68   18.80
   2   9  -8  236.58   18.50
  -1  -9   8  219.88   16.60
  -1  -9   8  231.18   18.00
   1  -9  -8  186.78   21.60
  -1  -9   8  251.77   19.20
   1  -9  -8  237.18   17.90
  -1  -9   8  233.38   20.80
   1   9  -8  239.48   18.90
   1   9  -8  221.88   18.70
  -1   9   8  177.98   26.10
  -1   9   8  256.47   17.40
   1   9  -8  203.38   17.90
  -1   9   8  177.98   19.80
   1   9  -8  202.78   18.30
   1   9  -8  200.08   19.20
   0  -9   8   50.29    9.30
   0  -9   8   69.09   11.90
   0  -9  -8   63.19   10.60
   0  -9   8   56.89   11.50
   0  -9  -8   69.99   13.30
   0   9   8   79.39   12.10
   0   9  -8   68.69    9.60
   0   9  -8   75.59   12.90
   0   9  -8   59.09    8.80
   0   9  -8   70.79   11.90
   0   9   8   64.59   13.10
   0   9   8   71.29   12.70
   0   9   8   80.59   14.20
  -1  -9  -8  421.76   36.20
  -1  -9  -8  481.55   35.90
   1  -9   8  569.94   37.40
   1  -9   8  552.34   35.30
  -1  -9  -8  485.15   34.90
  -1   9  -8  437.56   37.00
   1   9   8  542.25   35.90
   1   9   8  501.45   37.40
  -1   9  -8  483.55   35.40
   1   9   8  460.15   35.70
   1   9   8  409.46   36.30
   1   9   8  512.95   36.20
   1   9   8  525.15   36.60
  -2  -9  -8   -0.10    8.00
  -2  -9  -8  -16.10    8.90
  -2   9  -8    5.30    8.00
   2   9   8    2.90    6.10
   2   9   8   10.00   11.70
   2   9   8    3.10    7.60
   2   9   8   -9.10    9.00
   2   9   8   13.50    6.70
   3   9   8   96.69   11.00
   3   9   8   79.19    8.60
   3 -10  -8   56.69    6.50
  -3 -10   8   45.80    6.00
  -3  10   8   52.49    8.80
   3  10  -8   53.79    6.40
   2 -10  -8    3.10    5.30
  -2 -10   8   -0.30    4.50
  -2 -10   8    6.40    4.40
  -2 -10   8    0.70    5.20
   2  10  -8   -7.50    5.40
   2  10  -8    2.90    4.80
  -2  10   8   -9.70   15.40
  -2  10   8    5.90    5.10
   1 -10  -8   76.69    9.40
   1 -10  -8   76.99   14.80
  -1 -10   8   75.99   12.00
  -1 -10   8   75.09    9.10
  -1 -10   8   89.39   10.60
   1  10  -8   86.69   12.40
  -1  10   8   93.69    9.50
   1  10  -8   68.69   11.10
   1  10  -8   80.69   13.90
  -1  10   8   58.19   12.10
   1  10  -8  103.49   18.10
   1  10  -8   76.09   10.90
   0 -10  -8   54.59    9.20
   0 -10  -8   42.80   11.30
   0 -10   8   49.99    9.80
   0 -10   8   47.70    9.50
   0 -10   8   52.99    7.70
   0  10  -8   48.20    9.50
   0  10  -8   57.89    8.00
   0  10   8   41.60    8.70
   0  10   8   44.90   11.30
   0  10  -8   36.90   11.00
   0  10   8   60.39   11.30
   1 -10   8   51.39    9.70
  -1 -10  -8   37.30    8.20
  -1 -10  -8   37.70    7.70
   1 -10   8   48.50    8.10
  -1 -10  -8   43.20    8.60
   1  10   8   27.10    7.60
   1  10   8   53.09    9.90
  -1  10  -8   40.50    8.60
   1  10   8   48.40    8.90
  -1  10  -8   45.30    8.30
  -2 -10  -8   48.20    9.30
  -2 -10  -8   58.59    9.20
  -2 -10  -8   48.70    9.20
   2  10   8   58.39    8.90
   2  10   8   64.69   10.40
  -2  10  -8   60.19   11.70
   2  10   8   60.59   11.30
   2  10   8   50.09    8.50
   2  10   8   77.39   15.00
  -3 -10  -8   -8.60    6.70
  -3 -10  -8    1.40    3.20
   3  10   8   19.20    9.50
   3  10   8    4.10    3.20
   2 -11  -8   12.70    5.00
  -2 -11   8   14.80    4.20
  -2 -11   8   19.70    4.60
   2  11  -8   16.40    4.90
  -2  11   8   25.30    5.00
   2  11  -8   21.40    4.90
   1 -11  -8   -2.40    4.20
   1 -11  -8   -1.90    6.20
  -1 -11   8    4.50    4.60
  -1 -11   8   -4.20    3.30
  -1  11   8    2.80    6.30
   1  11  -8   -0.60    6.50
   1  11  -8   -0.80    5.00
  -1  11   8    9.60    4.90
  -1  11   8    3.30    5.70
   1  11  -8    3.30    7.40
   0 -11  -8   33.40    6.50
   0 -11   8   43.90    6.30
   0 -11   8   53.09    8.30
   0 -11   8   35.80    8.00
   0 -11  -8   59.89   11.80
   0  11  -8   49.10    8.30
   0  11   8   35.20    7.80
   0  11   8   54.69    8.80
   0  11  -8   49.60    7.40
   0  11   8   51.69   12.10
  -1 -11  -8   -5.00    7.00
  -1 -11  -8    5.40    5.90
   1 -11   8   -3.50    5.00
  -1 -11  -8   -4.10    4.70
  -1  11  -8    2.40    6.90
   1  11   8    8.30    5.70
   1  11   8    3.90    6.40
   1  11   8   -6.60    8.10
  -1  11  -8    0.00    4.20
  -2 -11  -8    8.20    4.40
  -2 -11  -8    8.20    5.20
   2  11   8    6.90    4.30
   2  11   8    4.80    5.60
  -2  11  -8    1.10    6.50
   2  11   8    5.00    8.00
  -2 -12   8    7.00    2.60
   2 -12  -8    5.60    3.90
  -2 -12   8    4.40    3.00
   2  12  -8    6.20    3.50
  -1 -12   8    8.80    3.40
  -1 -12   8   11.90    4.10
  -1 -12   8   12.10    4.50
   1 -12  -8   -0.60    5.70
   1 -12  -8    4.40    3.40
  -1  12   8    6.80    5.60
   1  12  -8   36.10   15.90
   1  12  -8    5.80    7.80
  -1  12   8    9.10    5.70
   1  12  -8   14.60    4.70
   0 -12   8   19.60    4.90
   0 -12  -8   25.90   12.90
   0 -12  -8   11.40    5.00
   0 -12   8   25.90    5.00
   0 -12   8   22.30    5.30
   0  12   8   11.40    5.50
   0  12  -8   16.80    4.90
   0  12  -8   22.60    5.00
   0  12   8   14.20    4.80
   0  12   8   19.50    6.40
   0  12   8   25.90   11.90
   0  12   8   16.20    6.00
  -1 -12  -8    5.70    4.70
   1 -12   8    6.20    4.50
  -1 -12  -8    4.00    4.30
   1  12   8   -0.90    4.40
  -1  12  -8    1.50    3.90
   1  12   8   20.80   14.60
   1  12   8   11.10    5.90
   1  12   8   13.10    4.90
  -1  12  -8    5.60    5.60
  -2 -12  -8   11.10    3.30
  -2 -12  -8    4.70    4.10
  -2  12  -8   23.70    6.30
   2  12   8   -4.40    8.40
   2  12   8    8.10    3.20
  -1 -13   8   45.60    5.70
  -1 -13   8   40.10    5.70
  -1 -13   8   45.40    4.90
   1  13  -8   52.89    5.90
  -1  13   8   38.00    7.30
  -1  13   8   52.49    6.40
  -1  13   8   52.09    7.20
   0 -13   8   18.00    4.30
   0 -13  -8   12.80    3.50
   0 -13   8   17.70    3.70
   0  13   8   16.20    4.70
   0  13   8   24.60    6.60
   0  13  -8   18.90    4.00
   0  13   8   15.70    4.70
  -1 -13  -8   64.59    7.20
   1 -13   8   93.79    9.20
  -1  13  -8   87.49    8.10
  -1  13  -8   97.19    9.50
   1  13   8   87.29    8.50
   1  13   8   69.49    7.60
   0 -14   8   61.09    6.80
   0  14   8   58.29    8.90
   0  14  -8   69.89    6.10
   0  14   8   60.29    6.50
   0  14  -8   73.39    8.50
   0  14   8   69.19    6.60
   4   0  -9    7.20    8.00
   4   0  -9    1.50    4.00
  -3   0   9    1.20    6.40
   3   0  -9   -0.70    5.30
   3   0  -9   -3.30   10.90
  -2   0   9   -0.10    6.30
  -2   0   9   13.90    7.60
   2   0  -9   -5.70   12.90
  -2   0   9   -2.80    4.40
   1   0  -9   -6.30    4.40
  -1   0   9   -0.50    6.70
  -1   0   9   -3.20    3.40
  -1   0   9   -4.10    2.50
   1   0  -9   -1.80    4.40
  -1   0   9   -9.60   10.00
   0   0   9    1.20    2.60
   0   0  -9    2.40    5.20
   0   0   9    2.00   12.40
   0   0   9   -1.80    1.90
   0   0  -9   -1.10    3.00
   0   0  -9    1.70    3.40
   0   0  -9   -0.80    4.80
   0   0   9    0.00    5.20
   1   0   9   10.50   20.70
  -1   0  -9    5.40    4.30
  -1   0  -9    2.80   10.00
   1   0   9    1.80    2.50
  -1   0  -9    1.10    4.60
   1   0   9   -3.80    9.20
  -1   0  -9   -1.90    6.10
   1   0   9    1.50   10.10
  -2   0  -9    4.40    5.60
   2   0   9   -1.50   14.30
  -2   0  -9   21.80   11.00
  -2   0  -9  -26.70   14.50
   2   0   9   18.50   10.60
  -3   0  -9    9.10    7.80
   3   0   9   13.50   10.30
   3   0   9    1.90   10.50
   4   0   9    0.20    6.50
  -4   0  -9   -1.20    7.20
  -4  -1   9   28.50    6.40
   4  -1  -9   17.90    7.30
   4  -1  -9   18.40    4.40
  -4   1   9   16.70    5.70
   4   1  -9   22.20    4.50
   4   1  -9   15.70    9.40
   3  -1  -9   36.20    7.00
  -3  -1   9   41.10    8.00
   3   1  -9   26.00    7.40
  -3   1   9   35.30    7.80
  -2  -1   9   -8.60    6.50
   2  -1  -9   10.40    8.30
  -2  -1   9   -2.30    4.20
  -2  -1   9   -2.30    5.70
   2  -1  -9   -7.60   11.90
  -2   1   9   -8.50    5.00
   2   1  -9    9.90   15.00
   2   1  -9    5.70    5.00
  -2   1   9    1.20    6.60
   1  -1  -9  363.36   24.90
  -1  -1   9  329.77   23.80
  -1  -1   9  344.07   23.70
   1  -1  -9  268.07   37.70
  -1  -1   9  292.47   25.20
   1  -1  -9  367.76   24.70
   1   1  -9  367.16   25.00
  -1   1   9  285.07   24.90
  -1   1   9  307.37   23.70
   1   1  -9  348.37   24.60
   1   1  -9  339.57   25.60
  -1   1   9  316.17   24.00
   0  -1  -9  196.78   16.90
   0  -1   9  226.48   15.70
   0  -1  -9  224.58   16.70
   0  -1  -9  243.88   16.70
   0  -1   9  220.48   15.90
   0   1   9  227.48   16.10
   0   1  -9  215.08   16.80
   0   1  -9  212.68   16.50
   0   1  -9  182.58   16.90
   0   1  -9  231.48   16.60
   0   1   9  204.78   20.50
   0   1   9  207.68   15.80
   1  -1   9   26.90    9.30
  -1  -1  -9   41.20    7.40
  -1  -1  -9   58.39   10.70
   1  -1   9   47.80    5.00
   1  -1   9   22.80    9.70
   1  -1   9   28.50   19.20
  -1  -1  -9   43.00    8.10
  -1  -1  -9   41.80    7.30
  -1   1  -9   36.00    7.60
   1   1   9   45.30   10.70
   1   1   9   36.90   19.90
  -1   1  -9   36.50    7.30
  -1   1  -9   50.89    8.40
  -1   1  -9   58.09   10.80
   1   1   9   46.10    5.20
  -2  -1  -9  139.09   18.20
  -2  -1  -9  130.29   20.30
   2  -1   9  102.19   20.00
  -2   1  -9  171.68   13.60
  -2   1  -9  144.09   24.20
   3  -1   9   11.00    9.90
  -3  -1  -9  -10.30   16.90
  -3  -1  -9   11.40    8.10
   3  -1   9  -11.20    9.50
  -3   1  -9    4.40    7.70
   3   1   9  -11.70   10.50
   4  -1   9   16.40    6.70
  -4  -1  -9   14.20    6.90
   4   1   9   16.20    7.00
  -4   1  -9    7.10    7.70
  -4  -2   9   81.79   10.40
   4  -2  -9   95.09   11.30
   4  -2  -9  100.59    9.20
  -4   2   9  105.09   10.30
   4   2  -9   91.99    9.30
  -3  -2   9   87.79   11.90
  -3   2   9   87.19   11.10
   3   2  -9  101.69   15.90
  -2  -2   9 1137.79   73.09
   2  -2  -9 1098.19   74.09
  -2  -2   9 1094.89   72.79
  -2  -2   9  894.21   73.19
  -2   2   9  979.90   73.09
  -2   2   9 1053.29   73.29
   2   2  -9 1103.49   72.49
   2   2  -9 1067.79   72.99
  -1  -2   9  115.99   13.50
   1  -2  -9  139.89   23.00
   1  -2  -9  119.09   10.80
  -1  -2   9  120.89   10.00
   1  -2  -9  132.19   12.20
  -1  -2   9  119.59   10.20
   1   2  -9  103.69   13.50
  -1   2   9  108.79   12.30
  -1   2   9  145.89   10.70
   1   2  -9  116.39   13.00
   1   2  -9  117.39   11.10
  -1   2   9  120.99   11.10
   1   2  -9  119.69   11.30
   1   2  -9  123.89   11.70
   0  -2   9  693.03   49.00
   0  -2   9  713.53   49.20
   0  -2  -9  764.32   49.90
   0  -2  -9  831.82   49.99
   0  -2  -9  622.64   49.70
   0   2   9  697.33   49.40
   0   2  -9  723.53   49.70
   0   2   9  726.53   50.69
   0   2   9  704.53   49.30
   0   2  -9  700.43   49.50
   0   2  -9  673.33   49.70
  -1  -2  -9  751.92   52.19
   1  -2   9  690.03   59.59
   1  -2   9  722.83   54.79
   1  -2   9  753.52   53.69
  -1  -2  -9  771.62   53.89
  -1  -2  -9  754.72   52.89
  -1  -2  -9  721.03   52.89
  -1   2  -9  763.52   52.49
  -1   2  -9  789.02   52.29
   1   2   9  926.21   76.19
   1   2   9  652.73   57.79
   1   2   9  749.92   51.49
   1   2   9  800.32   51.79
  -1   2  -9  724.33   54.09
  -1   2  -9  730.03   53.29
   1   2   9  781.42   54.39
   2  -2   9  144.89   22.80
  -2  -2  -9  136.79   18.50
   2  -2   9  119.19   21.40
  -2  -2  -9  172.78   13.90
  -2  -2  -9  134.69   18.30
  -2   2  -9  155.58   24.80
  -2   2  -9  178.08   14.20
   2   2   9  113.29   18.80
  -3  -2  -9  229.68   18.60
   3  -2   9  181.78   20.90
   3  -2   9  210.28   20.10
  -3   2  -9  235.58   19.20
   3   2   9  205.38   22.50
   4  -2   9   10.60    9.00
  -4  -2  -9    9.50    6.90
   4   2   9    7.70    7.30
  -4   2  -9   -1.30    8.40
   4  -3  -9  147.79   12.40
  -4  -3   9  182.28   13.40
   4  -3  -9  145.49   13.50
  -4   3   9  148.29   13.70
   4   3  -9  143.19   12.80
   3  -3  -9  560.54   38.50
  -3   3   9  491.85   38.10
   3   3  -9  538.95   37.30
   2  -3  -9   48.90    8.50
  -2  -3   9   45.70   18.90
  -2  -3   9   55.59    7.40
  -2  -3   9   44.80    9.70
  -2   3   9   46.00    9.20
  -2   3   9   53.39    9.70
   2   3  -9   72.39   12.30
   2   3  -9   52.59    7.00
   2   3  -9   39.80    8.20
  -1  -3   9 2756.22  181.28
  -1  -3   9 2620.14  182.68
  -1  -3   9 2728.33  180.68
  -1  -3   9 2868.01  181.78
  -1  -3   9 2786.02  180.68
   1  -3  -9 2648.24  182.58
   1   3  -9 2698.23  180.98
   1   3  -9 2838.12  181.48
   1   3  -9 2303.17  180.58
  -1   3   9 2708.63  180.88
  -1   3   9 2524.45  180.88
   1   3  -9 2622.44  181.08
  -1   3   9 2577.44  181.08
   1   3  -9 2500.75  180.28
   0  -3   9  199.98   18.30
   0  -3  -9  223.88   16.20
   0  -3   9  195.68   21.20
   0  -3   9  198.78   14.50
   0  -3   9  200.28   14.70
   0  -3  -9  179.38   17.80
   0  -3  -9  216.28   20.50
   0  -3  -9  232.38   15.80
   0   3  -9  185.78   15.60
   0   3  -9  194.08   17.70
   0   3  -9  204.28   15.60
   0   3   9  206.18   15.20
   0   3   9  189.38   15.30
   0   3  -9  190.68   15.80
   0   3   9  184.88   22.10
  -1  -3  -9  700.53   47.60
   1  -3   9  628.14   49.90
  -1  -3  -9  691.73   48.40
  -1  -3  -9  684.83   48.30
  -1  -3  -9  691.23   49.20
   1  -3   9  660.23   48.90
   1   3   9  725.23   47.20
  -1   3  -9  686.43   49.60
  -1   3  -9  731.33   47.70
  -1   3  -9  681.93   47.90
   1   3   9  666.43   47.00
   1   3   9  604.44   51.59
   1   3   9  696.83   49.80
  -2  -3  -9  440.26   33.00
  -2  -3  -9  496.05   31.40
  -2  -3  -9  451.45   34.60
  -2  -3  -9  388.76   33.60
   2   3   9  370.86   36.90
  -2   3  -9  444.46   31.60
   2   3   9  371.76   36.40
   3  -3   9   10.80   10.80
  -3  -3  -9   13.90    7.30
   3   3   9   -1.60    9.10
   3   3   9   -4.80   11.00
  -3   3  -9   -5.30    8.70
  -4  -3  -9   60.29    8.90
  -4  -3  -9   64.59   10.00
   4   3   9   55.39   10.10
   4  -4  -9  108.29    9.80
   4  -4  -9  119.49   10.40
   4   4  -9  111.09   10.50
  -4   4   9  113.69   11.30
  -3  -4   9  174.78   20.60
  -3  -4   9  177.88   20.20
  -3  -4   9  182.08   16.70
   3  -4  -9  217.48   17.10
   3   4  -9  213.18   15.40
  -3   4   9  200.98   16.80
  -2  -4   9  716.93   51.39
   2  -4  -9  697.73   51.09
  -2  -4   9  763.22   53.19
  -2  -4   9  722.83   49.90
  -2   4   9  718.23   50.29
   2   4  -9  606.54   49.90
   2   4  -9  753.62   50.79
   2   4  -9  713.83   49.50
  -1  -4   9  267.97   22.00
   1  -4  -9  267.57   25.10
  -1  -4   9  274.07   27.30
  -1  -4   9  284.77   19.40
  -1  -4   9  294.17   21.60
  -1  -4   9  282.47   19.40
   1  -4  -9  268.17   19.90
  -1   4   9  231.18   21.10
  -1   4   9  254.87   20.80
   1   4  -9  266.47   20.60
   1   4  -9  244.58   20.00
   1   4  -9  278.87   21.20
   1   4  -9  266.57   20.30
   1   4  -9  230.68   20.20
  -1   4   9  268.07   20.40
   0  -4   9 2190.68  155.08
   0  -4   9 2260.77  154.98
   0  -4   9 2391.06  156.28
   0  -4   9 2209.28  156.98
   0  -4  -9 2360.06  156.38
   0  -4  -9 2598.24  155.88
   0   4   9 2177.58  156.78
   0   4  -9 2394.96  155.88
   0   4   9 2230.78  155.58
   0   4   9 2283.37  158.48
   0   4  -9 2199.48  155.78
   0   4   9 2210.98  155.58
   0   4   9 2395.26  155.88
   0   4  -9 2303.27  156.08
   0   4  -9 2050.59  155.48
  -1  -4  -9 1143.09   76.29
  -1  -4  -9 1100.39   75.69
   1  -4   9 1075.59   77.79
  -1  -4  -9 1131.39   76.49
   1  -4   9 1056.79   76.39
  -1  -4  -9 1103.69   76.19
   1   4   9 1172.68   77.39
   1   4   9 1047.70   75.19
  -1   4  -9 1092.19   75.99
  -1   4  -9 1069.59   77.09
   1   4   9 1026.00   77.99
   1   4   9 1135.89   75.29
   1   4   9 1169.68   80.49
  -1   4  -9 1131.49   75.69
   1   4   9 1005.20   78.49
  -2  -4  -9  179.88   19.50
  -2  -4  -9  218.48   18.10
  -2  -4  -9  176.58   21.30
   2  -4   9  135.69   25.20
  -2  -4  -9  209.98   16.20
  -2   4  -9  186.88   17.00
   2   4   9  159.78   25.60
   2   4   9  197.58   22.60
  -3  -4  -9  287.57   20.60
   3   4   9  221.98   23.20
   3   4   9  238.98   22.20
  -3   4  -9  227.48   21.60
  -4  -5   9  144.69   11.40
   4  -5  -9  106.19    9.80
   4  -5  -9  127.19   10.60
  -4   5   9  120.49   11.60
   4   5  -9  108.69   10.90
  -3  -5   9  408.26   33.00
  -3  -5   9  443.06   31.00
   3  -5  -9  399.96   31.70
   3  -5  -9  491.75   31.50
  -3  -5   9  359.96   33.30
   3   5  -9  421.36   30.40
  -3   5   9  458.55   31.20
  -2  -5   9   24.90    5.40
   2  -5  -9   14.30    7.20
  -2  -5   9    8.50   10.00
   2  -5  -9   26.90    8.60
  -2  -5   9   36.10    6.80
  -2  -5   9   25.70    8.70
  -2  -5   9   22.90    4.90
   2   5  -9   35.60    7.40
  -2   5   9   22.00    7.20
   2   5  -9   22.40    4.50
   2   5  -9    8.80    6.20
   2   5  -9   10.20   10.30
   1  -5  -9 1049.09   70.09
  -1  -5   9  966.90   69.99
   1  -5  -9  910.01   73.59
  -1  -5   9 1012.50   68.49
  -1  -5   9 1060.49   67.39
  -1   5   9  964.00   68.09
   1   5  -9  855.31   67.49
  -1   5   9  988.30   68.69
   1   5  -9  935.11   67.39
   1   5  -9 1042.50   68.19
   1   5  -9  961.50   67.89
   1   5  -9 1004.80   68.09
  -1   5   9  950.70   67.89
   0  -5   9  289.47   21.60
   0  -5  -9  296.07   26.50
   0  -5   9  296.57   26.70
   0  -5   9  310.47   25.70
   0  -5  -9  335.47   22.80
   0  -5  -9  353.06   22.40
   0  -5   9  312.77   24.00
   0   5   9  352.46   31.80
   0   5   9  288.17   22.90
   0   5   9  301.47   26.40
   0   5   9  310.47   23.30
   0   5  -9  290.17   23.00
   0   5  -9  278.57   22.50
   0   5   9  281.87   22.50
   0   5  -9  299.47   24.40
   0   5  -9  317.07   23.20
  -1  -5  -9  581.64   41.00
  -1  -5  -9  572.34   41.00
  -1  -5  -9  594.14   41.60
   1  -5   9  568.64   43.60
  -1  -5  -9  557.74   40.80
   1  -5   9  568.34   41.70
   1   5   9  560.54   40.10
   1   5   9  567.94   43.10
   1   5   9  665.03   45.70
  -1   5  -9  536.65   41.40
  -1   5  -9  515.25   42.50
   1   5   9  568.74   40.20
   1   5   9  584.54   42.70
   1   5   9  618.24   43.90
  -1   5  -9  565.24   40.60
   2  -5   9  255.77   28.10
  -2  -5  -9  328.87   26.80
  -2  -5  -9  330.77   26.00
  -2  -5  -9  322.77   24.50
  -2  -5  -9  299.97   23.50
   2   5   9  257.47   29.70
  -2   5  -9  313.47   24.10
   2   5   9  315.67   26.80
  -3  -5  -9    0.40    6.80
   3   5   9    3.30    8.30
   3   5   9   -1.20    9.10
  -3  -6   9   56.09   10.90
   3  -6  -9   59.29    9.70
  -3  -6   9   50.49    8.30
   3  -6  -9   66.09    9.10
  -3  -6   9   34.30    9.80
   3   6  -9   40.50    6.80
  -3   6   9   54.59    8.00
   2  -6  -9   94.29   14.60
  -2  -6   9  106.49   13.80
  -2  -6   9   99.89   11.20
   2  -6  -9   91.69   14.20
  -2  -6   9  107.29   14.80
  -2  -6   9   92.19    9.80
  -2  -6   9  103.39   10.70
   2   6  -9  114.39   11.90
   2   6  -9   85.59   13.60
   2   6  -9   74.69   11.20
  -2   6   9   89.69   11.10
   2   6  -9   93.09   10.10
  -1  -6   9   49.60   10.90
  -1  -6   9   42.40    5.90
   1  -6  -9   56.89   11.20
   1  -6  -9   36.70   12.40
  -1  -6   9   47.40    7.80
  -1  -6   9   46.40    6.40
  -1  -6   9   87.59   17.80
  -1   6   9   49.20   11.00
   1   6  -9   34.30    6.50
   1   6  -9   51.49   10.20
  -1   6   9   49.00    8.80
   1   6  -9   59.99    9.30
   1   6  -9   44.20    8.80
   1   6  -9   51.49    9.90
  -1   6   9   50.39   11.30
  -1   6   9   69.79   11.20
   0  -6  -9  638.24   39.30
   0  -6   9  566.84   41.20
   0  -6   9  556.14   38.50
   0  -6  -9  593.44   38.90
   0  -6  -9  583.74   41.80
   0  -6   9  536.65   41.90
   0  -6   9  560.34   40.20
   0   6   9  536.15   39.70
   0   6   9  598.34   45.50
   0   6   9  567.74   39.60
   0   6   9  551.34   41.60
   0   6  -9  566.14   40.10
   0   6  -9  524.95   39.40
   0   6  -9  468.35   39.90
   0   6   9  523.25   39.70
   0   6  -9  561.04   40.30
  -1  -6  -9  154.38   13.60
   1  -6   9  147.19   18.40
  -1  -6  -9  158.88   15.90
  -1  -6  -9  147.09   15.80
  -1  -6  -9  152.08   13.90
   1  -6   9  161.28   15.80
   1   6   9  140.99   17.30
   1   6   9  132.89   18.20
   1   6   9  161.08   18.50
  -1   6  -9  148.79   13.30
   1   6   9  153.58   13.10
   1   6   9  140.79   12.60
   1   6   9  146.19   22.90
   1   6   9  114.09   16.20
  -1   6  -9  117.79   17.30
   2  -6   9   23.90   11.20
  -2  -6  -9    9.40    9.80
  -2  -6  -9   13.20   10.50
  -2  -6  -9   22.40    7.20
  -2  -6  -9   26.60    8.20
   2   6   9   14.90    8.70
   2   6   9    8.60   11.80
  -3  -6  -9   67.69    9.50
  -3  -6  -9   60.69   10.40
   3   6   9   74.39   14.20
   3   6   9   48.30   10.60
  -3   6  -9   63.19   12.10
  -3  -7   9   24.00    7.30
  -3  -7   9   23.90    7.10
   3  -7  -9   38.50    8.70
   3   7  -9   29.70    4.90
  -3   7   9   30.30    6.50
  -2  -7   9   63.89   12.20
   2  -7  -9   71.39   11.90
  -2  -7   9   52.89    8.10
   2  -7  -9   52.79   11.60
  -2  -7   9   53.09   10.80
  -2  -7   9   57.69    9.90
   2   7  -9   52.19   10.20
  -2   7   9   68.49   12.50
   2   7  -9   45.90    8.80
   2   7  -9   64.39   13.20
  -2   7   9   58.69    9.10
   2   7  -9   58.89    8.20
   1  -7  -9   61.89   13.90
  -1  -7   9   46.90    6.30
  -1  -7   9   63.39   10.90
  -1  -7   9   53.59    9.40
   1  -7  -9   38.10   11.40
  -1  -7   9   50.79    7.30
  -1  -7   9   38.30    7.20
   1   7  -9   50.39    9.80
   1   7  -9   49.90    9.40
  -1   7   9   58.09   10.70
   1   7  -9   65.59    9.90
   1   7  -9   58.59   10.50
  -1   7   9   49.30   11.20
  -1   7   9   58.59    8.80
   1   7  -9   55.59    8.50
   0  -7  -9   37.60   11.90
   0  -7   9   39.20    7.00
   0  -7  -9   43.10    6.90
   0  -7   9   41.80    8.40
   0  -7   9   40.40    8.50
   0   7   9   42.40    9.50
   0   7  -9   48.00    7.90
   0   7  -9   33.20    7.80
   0   7   9   55.89    8.20
   0   7   9   68.19   15.90
   0   7  -9   46.70    7.70
   0   7   9   36.50   10.80
  -1  -7  -9   89.29   10.10
  -1  -7  -9   62.09   12.90
   1  -7   9   66.09   14.50
  -1  -7  -9   68.49    9.80
   1  -7   9   60.29   12.20
  -1  -7  -9  101.09   14.20
   1   7   9   73.09   10.50
   1   7   9   77.29    9.80
  -1   7  -9   82.39    9.80
  -1   7  -9   64.99   11.10
   1   7   9   86.19   13.90
   1   7   9   71.49   14.50
   1   7   9   73.79   13.90
  -2  -7  -9   48.70   15.80
  -2  -7  -9   38.60    9.80
  -2  -7  -9   28.10    8.60
  -2  -7  -9    7.40   10.00
   2  -7   9    3.70    9.90
   2   7   9   21.00   15.90
   2   7   9   15.20    9.90
   2   7   9   14.10    7.80
  -2   7  -9   18.40    8.90
   2   7   9   -0.60    7.10
  -3  -7  -9    3.70    7.50
   3   7   9   -5.70    6.70
   3   7   9   -0.30    5.40
  -3   7  -9   -3.70   11.30
   3   7   9   10.60    7.80
   3  -8  -9   -3.00    4.00
  -3  -8   9   -1.10    5.30
   3  -8  -9   -2.20    5.30
   3   8  -9   -6.30    3.50
  -3   8   9   -6.70    5.50
  -2  -8   9    2.40    4.90
  -2  -8   9    5.50    5.60
   2  -8  -9    3.20    7.10
   2  -8  -9   16.10    5.40
   2  -8  -9    6.70    6.10
  -2  -8   9   13.20    7.20
  -2  -8   9    0.40    5.60
  -2   8   9    7.20    5.70
   2   8  -9    4.70    6.30
   2   8  -9   -0.30   16.70
   2   8  -9   -3.40    5.30
   2   8  -9    3.10    5.00
  -1  -8   9   11.10    5.60
   1  -8  -9   15.40    9.60
  -1  -8   9   20.20    4.30
  -1  -8   9   11.30    9.00
   1   8  -9    8.80    6.50
  -1   8   9   15.80    5.90
   1   8  -9   11.10    6.70
   1   8  -9    7.30    6.50
   1   8  -9   14.50    6.60
  -1   8   9   -1.80   11.90
   0  -8   9   19.80    5.60
   0  -8   9   22.30    8.20
   0  -8   9   28.40    7.30
   0  -8  -9   15.00    4.70
   0   8  -9   44.10    9.70
   0   8   9   29.90    9.70
   0   8  -9   31.90    7.50
   0   8  -9   30.40    6.60
   0   8   9   15.80    8.00
   0   8  -9   23.10    7.20
   0   8   9   32.10   10.60
   0   8   9   37.10    7.60
   0   8   9   18.10    8.60
  -1  -8  -9   93.19   13.30
   1  -8   9   86.69   13.80
  -1  -8  -9   94.29   10.40
   1  -8   9  104.49   11.60
  -1  -8  -9   73.99   10.90
  -1  -8  -9   69.19   13.50
   1   8   9   71.89   11.00
   1   8   9   58.59   12.70
  -1   8  -9   91.39   10.10
   1   8   9   97.19   12.60
   1   8   9   97.79   14.20
   1   8   9   84.59   13.40
  -1   8  -9   80.79   15.30
   1   8   9  101.19   13.90
  -2  -8  -9   -2.60   12.30
  -2  -8  -9    3.10    8.60
  -2  -8  -9   -3.10   18.40
  -2  -8  -9   -3.60    5.80
  -2   8  -9    5.10    8.10
   2   8   9    2.90    7.20
   2   8   9   11.80    6.20
   2   8   9    4.70   11.00
   2   8   9   -4.90    8.40
  -3  -8  -9   -2.70    3.70
   3   8   9    9.40    7.20
   3   8   9   -7.20    4.70
   3   8   9    6.80    4.30
   3  -9  -9   77.79    8.20
  -3  -9   9   70.39    8.00
  -3  -9   9   87.09   11.10
   3  -9  -9   67.39    8.60
  -3   9   9   79.69    8.60
   3   9  -9   61.89    7.30
  -2  -9   9    2.40    5.00
   2  -9  -9   -2.90    5.30
  -2  -9   9    4.80    4.90
  -2  -9   9   -2.90    5.00
   2   9  -9   -5.00    4.80
  -2   9   9   -6.80    9.80
   2   9  -9    7.00    6.50
   2   9  -9   -3.30    5.00
  -2   9   9   10.20    5.20
  -1  -9   9  164.78   16.20
   1  -9  -9  154.38   13.60
  -1  -9   9  139.19   12.10
   1  -9  -9  120.89   18.90
  -1  -9   9  170.68   13.40
  -1  -9   9  171.38   14.70
   1   9  -9  151.28   14.30
   1   9  -9  148.79   15.10
   1   9  -9  131.29   14.50
   1   9  -9  127.59   15.80
  -1   9   9  121.49   15.40
   0  -9   9  152.28   14.90
   0  -9  -9  131.89   25.10
   0  -9   9  141.69   12.80
   0  -9   9  127.99   14.30
   0  -9  -9  141.99   13.80
   0   9  -9  135.99   12.90
   0   9   9  150.48   14.50
   0   9   9  154.18   15.30
   0   9  -9  119.39   19.00
   0   9  -9  133.59   14.20
   0   9   9  146.49   12.30
   0   9  -9  135.29   17.00
   0   9   9  133.79   17.10
   0   9   9  142.69   17.10
  -1  -9  -9  136.89   11.80
   1  -9   9  133.79   11.70
  -1  -9  -9   99.39   14.10
   1  -9   9  125.89   13.90
  -1  -9  -9   92.59   13.20
  -1   9  -9  123.39   15.30
  -1   9  -9  112.49   11.90
   1   9   9  105.09   13.40
   1   9   9  133.29   13.00
   1   9   9   88.49   16.00
   1   9   9  138.09   14.00
   1   9   9  109.59   15.40
   1   9   9  120.49   14.10
  -2  -9  -9   73.39   14.10
  -2  -9  -9   90.49   12.90
   2   9   9   95.19   13.80
  -2   9  -9   90.69   12.70
   2   9   9   89.09   10.40
   2   9   9   53.49   15.40
   2   9   9   71.19   10.80
  -3  -9  -9    1.80    3.40
   3   9   9    1.30    3.80
   3   9   9    5.30    6.30
   3 -10  -9   10.70    3.50
  -3 -10   9   20.10    5.30
  -3 -10   9   22.60    4.70
  -3  10   9   17.90    5.20
   3  10  -9   14.70    3.80
  -2 -10   9  312.57   23.70
   2 -10  -9  323.37   24.20
  -2 -10   9  296.47   23.80
  -2 -10   9  318.77   23.60
  -2  10   9  315.67   25.30
   2  10  -9  302.67   24.70
   2  10  -9  322.97   23.70
   2  10  -9  341.87   23.70
  -2  10   9  354.76   23.30
  -1 -10   9    2.80    4.00
  -1 -10   9   -2.40    5.90
  -1 -10   9    8.20    5.00
   1 -10  -9   -1.80    4.50
   1 -10  -9    7.40    7.40
  -1  10   9    7.00    6.80
   1  10  -9   -3.80    7.20
  -1  10   9   -1.10    4.70
   1  10  -9   12.90    7.70
   0 -10   9  257.27   19.20
   0 -10   9  276.47   20.50
   0 -10  -9  248.58   20.00
   0  10  -9  254.37   20.20
   0  10   9  261.77   20.70
   0  10   9  224.68   23.00
   0  10   9  206.78   24.00
   0  10  -9  272.87   19.80
   0  10   9  282.27   20.60
   0  10  -9  232.08   25.20
  -1 -10  -9  109.49   12.90
   1 -10   9  120.39   12.50
   1 -10   9  128.29   11.20
  -1 -10  -9  145.39   12.20
  -1 -10  -9  112.99   12.60
   1  10   9  145.99   12.70
  -1  10  -9  132.69   14.10
  -1  10  -9  130.99   12.10
   1  10   9  144.39   13.00
   1  10   9  118.09   15.20
   1  10   9  133.09   13.30
  -2 -10  -9   16.30    7.30
  -2 -10  -9   16.50    4.90
   2  10   9   27.30    7.00
   2  10   9   19.00    6.70
  -2 -11   9   11.90    3.40
   2 -11  -9    8.50    4.80
  -2 -11   9   11.00    3.60
   2  11  -9   14.50    6.90
  -2  11   9   16.70    4.90
  -2  11   9   18.50    4.50
   2  11  -9    8.50    4.00
  -1 -11   9  325.07   24.30
  -1 -11   9  353.66   25.00
   1 -11  -9  347.47   26.90
  -1 -11   9  306.77   24.70
  -1  11   9  316.67   25.30
   1  11  -9  361.26   27.70
  -1  11   9  344.07   24.90
   1  11  -9  341.67   26.00
   1  11  -9  342.07   24.90
  -1  11   9  347.87   24.30
   0 -11   9  175.58   14.70
   0 -11   9  167.28   13.70
   0 -11   9  154.08   14.50
   0  11  -9  186.28   14.70
   0  11   9  202.38   15.00
   0  11   9  196.88   15.10
   0  11   9  170.48   15.30
   0  11  -9  174.18   14.40
   0  11   9  183.78   14.80
  -1 -11  -9  174.98   15.70
   1 -11   9  194.28   15.80
  -1 -11  -9  169.78   15.40
   1  11   9  174.08   19.20
  -1  11  -9  192.28   14.80
   1  11   9  191.18   15.70
  -1  11  -9  197.28   16.10
   1  11   9  200.18   16.20
   1  11   9  208.98   15.80
  -2 -11  -9   71.99    8.00
  -2 -11  -9  107.99    9.70
   2  11   9   94.19    8.20
   2 -12  -9  127.59   11.90
  -2 -12   9  148.99   10.70
   2  12  -9  132.29   10.60
   1 -12  -9    1.40    3.20
  -1 -12   9   10.20    3.60
  -1 -12   9    6.30    2.70
  -1 -12   9    6.40    4.10
  -1  12   9   11.70    5.00
   1  12  -9    5.40    3.90
  -1  12   9    1.50    4.50
   0 -12   9   74.29    8.30
   0 -12   9   74.79    6.80
   0 -12  -9   62.09    7.50
   0  12   9   92.39    8.50
   0  12   9   67.09    8.80
   0  12   9   67.29   10.40
   0  12  -9   81.79    8.10
   0  12  -9   86.59    8.50
   0  12   9   61.59    8.00
  -1 -12  -9   92.29    9.40
  -1 -12  -9  101.19    9.90
   1 -12   9  109.69   10.00
  -1  12  -9  124.59    9.80
   1  12   9  116.79   10.60
   1  12   9  112.49   10.40
   1  12   9  113.09    9.90
  -1  12  -9  103.09   10.70
  -2 -12  -9   25.70    4.40
  -2 -12  -9   24.20    5.00
  -2  12  -9   34.80    6.60
  -1 -13   9   89.09    6.90
  -1 -13   9   85.59    7.40
  -1  13   9   77.39    8.60
  -1  13   9  101.59    8.00
  -1  13   9   72.39    8.10
   1  13  -9   95.19    7.30
   0 -13   9    8.70    2.20
   0 -13  -9    7.80    2.90
   0 -13   9   12.00    3.70
   0  13  -9    3.00    4.70
   0  13  -9   12.20    3.00
   0  13   9    6.90    3.40
   0  13   9    2.80    3.60
   0  13   9   13.60    4.00
  -1 -13  -9   42.60    5.00
  -1 -13  -9   33.40    6.20
  -1  13  -9   44.00    6.80
  -1  13  -9   46.60    7.70
   1  13   9   51.39    5.90
   1  13   9   46.60    5.50
   4   0 -10  358.96   25.00
  -4   0  10  374.26   25.50
   4   0 -10  315.47   26.30
   3   0 -10  161.08   20.60
   3   0 -10  234.28   17.50
  -3   0  10  200.88   16.80
   2   0 -10  776.02   57.09
  -2   0  10  819.02   56.19
  -1   0  10 2734.73  201.78
   1   0 -10 2607.04  203.48
  -1   0  10 2913.71  202.58
  -1   0  10 2827.92  201.18
   1   0 -10 3360.86  202.08
   1   0 -10 3331.27  201.88
   1   0 -10 2940.01  201.48
   0   0  10   11.70    3.00
   0   0  10   -0.30   14.40
   0   0 -10   11.70    4.10
   0   0  10   29.30   13.50
   0   0 -10   14.50    4.80
   0   0 -10    9.20    7.20
   0   0  10   19.20    9.50
   0   0 -10   18.00    5.20
   0   0  10   -2.50   10.50
   0   0  10    6.40    3.30
   1   0  10 1347.97  101.49
  -1   0 -10 1363.36   97.49
   1   0  10 1434.56   98.09
  -1   0 -10 1452.65   97.89
  -1   0 -10 1432.76   96.89
  -1   0 -10 1445.46   97.49
   1   0  10 1427.56   96.29
   2   0  10  151.98   18.00
  -2   0 -10  136.59   20.40
  -2   0 -10  169.68   14.30
   2   0  10  166.98   24.70
   3   0  10   79.79   13.30
  -3   0 -10  109.29   12.00
   3   0  10   70.39   16.00
  -3   0 -10   40.20   17.30
   4  -1 -10   22.10    5.60
  -4  -1  10   34.70    7.40
   4  -1 -10   38.00    9.10
   4   1 -10   27.80    5.90
  -4   1  10   38.20    7.40
   3  -1 -10  211.38   22.10
  -3  -1  10  238.98   19.60
   3  -1 -10  291.27   20.00
  -3   1  10  239.88   19.40
  -2  -1  10  629.04   48.20
   2  -1 -10  707.43   49.30
  -2  -1  10  748.63   47.90
  -2  -1  10  717.73   48.20
   2  -1 -10  603.64   50.99
   2   1 -10  606.24   51.99
  -2   1  10  717.23   48.90
  -2   1  10  687.73   48.20
  -2   1  10  689.53   48.20
   1  -1 -10  267.37   23.40
  -1  -1  10  295.67   25.10
  -1  -1  10  246.88   20.10
  -1  -1  10  274.77   20.40
   1  -1 -10  227.28   28.50
   1  -1 -10  317.37   21.40
   1  -1 -10  293.67   21.20
  -1  -1  10  251.17   21.90
   1   1 -10  307.17   21.30
   1   1 -10  261.67   21.80
  -1   1  10  269.07   20.40
  -1   1  10  274.17   20.70
   1   1 -10  301.17   21.80
  -1   1  10  260.17   21.60
   1   1 -10  266.57   34.30
   0  -1  10 1658.43  107.49
   0  -1 -10 1656.33  100.79
   0  -1 -10 1465.25  100.99
   0  -1  10 1525.95  101.39
   0  -1  10 1393.76   99.89
   0  -1  10 1453.65   99.99
   0  -1 -10 1516.85  100.49
   0  -1  10 1479.65  103.79
   0  -1 -10 1287.37  100.09
   0   1 -10 1530.25  100.59
   0   1  10 1481.75  102.89
   0   1  10 1447.06  101.19
   0   1  10 1425.96  100.09
   0   1  10 1455.65  100.09
   0   1 -10 1382.26  100.39
   0   1  10 1493.85  101.69
   0   1 -10 1329.37  100.09
   0   1 -10 1416.86  100.79
  -1  -1 -10  342.67   25.40
   1  -1  10  353.96   29.30
   1  -1  10  346.67   35.00
   1  -1  10  331.87   27.20
   1  -1  10  312.47   24.20
  -1  -1 -10  367.06   26.30
  -1  -1 -10  326.57   27.30
  -1  -1 -10  344.77   26.80
  -1   1 -10  352.36   25.40
  -1   1 -10  352.16   26.00
   1   1  10  356.96   34.70
  -1   1 -10  352.06   27.30
  -1   1 -10  345.47   27.70
   1   1  10  370.06   27.90
   1   1  10  366.46   24.50
   2  -1  10  395.56   33.00
   2  -1  10  387.86   35.80
  -2  -1 -10  429.86   32.30
  -2  -1 -10  373.96   33.30
  -2   1 -10  480.85   30.10
  -2   1 -10  415.06   33.90
   2   1  10  366.56   31.80
   3  -1  10  131.99   15.30
   3  -1  10  104.39   15.50
  -3  -1 -10  104.79   17.00
  -3   1 -10  138.99   13.60
   3   1  10  103.89   18.40
   3   1  10  136.79   16.10
   4  -2 -10  121.19   10.80
  -4  -2  10  147.99   11.90
   4  -2 -10  134.59   12.60
  -4   2  10  127.09   11.60
   4   2 -10  126.79   11.10
   3  -2 -10   66.89   12.50
   3  -2 -10   54.59    9.70
   3   2 -10   65.39   16.20
   3   2 -10   64.59    8.70
  -3   2  10   48.80    9.10
  -2  -2  10   78.49   10.80
   2  -2 -10   97.69   16.40
  -2  -2  10   89.49   10.80
  -2  -2  10   86.79    9.40
   2  -2 -10   95.09   14.80
   2   2 -10   81.19   21.80
  -2   2  10   88.29   11.90
  -2   2  10   84.79   10.70
   1  -2 -10  710.73   52.39
   1  -2 -10  701.33   54.59
  -1  -2  10  758.02   50.39
   1  -2 -10  628.24   50.29
  -1  -2  10  738.13   50.39
  -1  -2  10  790.02   52.69
  -1  -2  10  667.73   51.29
  -1  -2  10  805.22   56.79
  -1   2  10  736.83   50.79
   1   2 -10  752.62   50.99
   1   2 -10  845.42   51.59
   1   2 -10  741.53   51.19
  -1   2  10  638.84   50.49
  -1   2  10  664.83   50.99
   0  -2  10   55.79   11.20
   0  -2  10   77.39   16.90
   0  -2 -10   60.29    8.30
   0  -2 -10   73.99   10.20
   0  -2 -10   65.59    8.30
   0  -2  10   56.49    5.60
   0  -2  10   53.39    6.00
   0  -2 -10   61.59    8.00
   0  -2  10   44.60    9.20
   0   2  10   40.80    6.60
   0   2 -10   63.19   10.80
   0   2 -10   54.39    7.30
   0   2 -10   50.49    7.30
   0   2  10   39.90    6.00
   0   2  10   59.59   12.20
   0   2  10   71.09   13.30
   0   2  10   57.69   11.90
   0   2 -10   40.80    7.80
   1  -2  10  753.42   56.29
  -1  -2 -10  811.32   55.19
  -1  -2 -10  773.72   55.19
   1  -2  10  720.63   59.09
  -1  -2 -10  803.92   55.59
  -1  -2 -10  760.52   54.39
   1  -2  10  740.83   55.29
  -1   2 -10  785.62   55.59
   1   2  10  806.82   53.89
  -1   2 -10  801.42   54.49
  -1   2 -10  774.72   54.89
   1   2  10  813.92   59.19
   1   2  10  739.03   60.89
   1   2  10  834.52   56.19
  -1   2 -10  810.92   55.49
   2  -2  10  127.59   20.50
   2  -2  10  128.19   19.60
  -2  -2 -10  102.69   19.20
  -2  -2 -10  157.78   17.50
  -2  -2 -10  173.58   13.70
  -2   2 -10  164.38   13.50
  -2   2 -10  133.39   20.70
   2   2  10  114.29   15.50
   3  -2  10   42.20   10.20
  -3  -2 -10   54.89   13.10
   3  -2  10   72.29   12.90
  -3  -2 -10   51.69   10.60
  -3   2 -10   54.49   10.50
   3   2  10   59.99   12.90
   4  -3 -10    4.90    5.30
  -4  -3  10   13.40    5.40
   4  -3 -10   -1.20    2.90
  -4   3  10   10.10    4.90
   4   3 -10    4.50    2.70
   3  -3 -10  154.18   13.40
  -3  -3  10  132.19   13.20
   3  -3 -10  141.19   15.10
  -3   3  10  145.69   13.20
   2  -3 -10   81.59   14.20
   2  -3 -10   79.09   14.90
  -2  -3  10   66.99   10.00
  -2  -3  10   80.89    8.90
  -2  -3  10   92.29    9.70
   2   3 -10   51.89    9.10
  -2   3  10   75.79   13.90
   2   3 -10   63.59    8.30
   2   3 -10   84.19   12.40
  -2   3  10   67.19   10.10
  -1  -3  10   27.40    8.50
   1  -3 -10   16.70    5.40
   1  -3 -10   28.40   14.00
  -1  -3  10   23.10    4.40
  -1  -3  10   28.40   11.00
  -1  -3  10    1.10    8.10
   1  -3 -10   21.00   10.80
  -1   3  10   11.70    5.40
   1   3 -10   18.20    6.30
   1   3 -10   20.20    7.40
  -1   3  10   15.10    5.00
   1   3 -10   12.50    5.60
  -1   3  10   23.90    6.80
   0  -3 -10  130.79   11.10
   0  -3  10  151.38   18.80
   0  -3  10  118.39   13.50
   0  -3 -10  102.19   14.30
   0  -3  10  117.49   17.10
   0  -3 -10  118.79   15.60
   0  -3  10  115.49    9.20
   0  -3  10  107.49    9.20
   0  -3 -10  128.49   11.40
   0   3  10  109.29   10.30
   0   3  10  108.09   10.00
   0   3  10  105.89   13.20
   0   3 -10  109.69   10.80
   0   3 -10  136.09   13.40
   0   3 -10  103.39   11.10
   0   3  10  107.19   15.90
   0   3 -10  111.29   10.40
  -1  -3 -10   11.40    6.10
   1  -3  10   18.90    7.70
  -1  -3 -10   17.90    6.00
   1  -3  10   -0.80   14.20
  -1  -3 -10   10.40    8.10
  -1  -3 -10   19.60    7.00
   1  -3  10   17.50    7.70
   1   3  10   11.90    3.90
   1   3  10    0.40   11.60
  -1   3 -10   20.20    5.40
   1   3  10   -9.30   17.70
  -1   3 -10   16.80    6.30
   1   3  10   14.10    3.60
   1   3  10    3.40    9.10
  -1   3 -10    0.50    9.30
   2  -3  10   57.49   13.40
  -2  -3 -10   93.19   14.10
  -2  -3 -10   59.29   14.50
  -2  -3 -10   91.49   17.20
  -2  -3 -10  101.99   11.10
  -2   3 -10   63.09   15.70
   2   3  10   64.39   15.70
  -2   3 -10   84.89   10.50
   2   3  10   81.79   15.00
  -3  -3 -10  -11.90   10.70
  -3  -3 -10    9.80    6.90
   3   3  10   -0.50   10.90
   3   3  10  -10.10   10.40
  -3   3 -10   11.40    7.70
   4  -4 -10    1.10    2.60
   4  -4 -10    5.40    4.00
  -4  -4  10    5.60    5.70
  -4   4  10    6.70    5.10
   4   4 -10    1.10    2.50
   3  -4 -10   12.20    4.80
  -3  -4  10   14.00    5.80
  -3  -4  10   27.80   10.70
  -3   4  10   12.40    6.30
  -2  -4  10   35.40   11.00
   2  -4 -10   57.19   13.20
  -2  -4  10   35.90    7.70
   2  -4 -10   27.10    7.40
  -2  -4  10   45.50   12.70
  -2  -4  10   37.70    7.40
  -2  -4  10   41.20    7.20
   2   4 -10   38.20    7.50
   2   4 -10   26.40    4.90
   2   4 -10   51.49    8.40
  -2   4  10   41.30    7.50
  -2   4  10    3.80   14.60
   1  -4 -10    3.00   10.10
  -1  -4  10   18.30    9.40
   1  -4 -10   10.60    4.70
  -1  -4  10   19.60    9.30
  -1  -4  10   17.80    7.30
  -1  -4  10   11.70    3.50
  -1  -4  10   13.80    3.30
   1   4 -10    8.90    6.00
  -1   4  10    6.60    6.30
   1   4 -10    9.40    4.40
   1   4 -10   10.40    5.90
  -1   4  10   -2.40    6.90
  -1   4  10    5.20    5.50
   1   4 -10    3.80    5.50
   1   4 -10   10.70    6.40
   0  -4  10   45.60    7.80
   0  -4 -10   62.49   11.00
   0  -4  10   47.30    5.40
   0  -4  10   60.29   10.50
   0  -4 -10   54.29    7.80
   0  -4 -10   55.39    8.40
   0   4  10   52.19   10.10
   0   4 -10   52.19    8.10
   0   4 -10   47.20    7.40
   0   4 -10   42.90    8.20
   0   4  10   53.49    7.10
   0   4 -10   52.99   10.80
   0   4  10   57.49    7.40
   0   4  10   67.39   10.80
   0   4  10   59.09   13.00
  -1  -4 -10   10.10    6.70
   1  -4  10    5.70    6.80
   1  -4  10   -2.90    6.50
  -1  -4 -10   11.90    8.10
  -1  -4 -10   -0.70    5.90
  -1  -4 -10    7.90    6.30
  -1   4 -10    5.40    8.50
   1   4  10    7.40    9.50
  -1   4 -10    9.40    6.90
   1   4  10    5.50    3.70
   1   4  10    7.50   13.20
  -1   4 -10   11.30    5.00
   1   4  10   13.80    9.30
   1   4  10  -14.00   15.00
   1   4  10    7.90    4.20
  -2  -4 -10   17.50   11.40
  -2  -4 -10   10.30    8.40
  -2  -4 -10    0.20   13.40
   2  -4  10   12.30   11.80
  -2  -4 -10    3.10    6.10
  -2   4 -10    8.70    6.60
  -2   4 -10  -11.90   13.80
   2   4  10   30.60   12.80
   2   4  10    2.10   10.30
  -3  -4 -10   13.20    6.90
   3   4  10   13.30    8.00
   3   4  10   -2.00    9.40
  -3   4 -10   -2.40    8.10
  -3  -5  10   31.50    9.90
   3  -5 -10   53.89    9.70
   3  -5 -10   36.10    8.60
  -3  -5  10   36.30    8.10
  -3   5  10   45.70    8.20
   3   5 -10   32.60    6.20
  -2  -5  10  133.29   12.90
  -2  -5  10  148.99   18.40
  -2  -5  10  108.39   16.40
   2  -5 -10  124.09   16.20
   2  -5 -10  159.98   16.30
  -2  -5  10  136.09   12.50
  -2  -5  10  135.79   13.20
  -2   5  10  154.18   13.40
   2   5 -10  146.09   13.80
   2   5 -10  170.98   14.90
   2   5 -10  130.99   12.50
   1  -5 -10    5.40    9.00
  -1  -5  10   16.70    9.30
  -1  -5  10    9.60    3.30
  -1  -5  10    6.80    3.50
  -1  -5  10    0.60    6.20
   1   5 -10    3.80    5.50
  -1   5  10   10.50    6.60
   1   5 -10   11.10    5.60
  -1   5  10    9.70    8.50
   1   5 -10   17.60    6.70
  -1   5  10   16.30    6.20
   1   5 -10   12.80    5.30
  -1   5  10   16.30    8.10
   0  -5  10  401.16   33.20
   0  -5 -10  413.76   32.60
   0  -5 -10  468.95   30.60
   0  -5  10  411.86   29.50
   0  -5  10  423.66   31.50
   0  -5 -10  463.25   30.30
   0   5  10  421.06   32.40
   0   5 -10  444.86   31.50
   0   5  10  466.05   35.60
   0   5  10  408.06   30.50
   0   5 -10  394.66   30.40
   0   5 -10  435.06   31.10
   0   5  10  367.76   30.40
   0   5  10  429.16   30.80
   0   5 -10  407.46   30.90
  -1  -5 -10   45.70   10.10
   1  -5  10   53.09   12.40
   1  -5  10   38.20    8.20
  -1  -5 -10   27.90    6.90
  -1   5 -10   33.40    9.50
   1   5  10   39.10   10.30
   1   5  10   31.00    6.00
   1   5  10   46.50   12.50
   1   5  10   27.80    5.30
   1   5  10   30.60    9.60
  -1   5 -10   36.30    7.60
   1   5  10   45.60   12.30
  -2  -5 -10   50.09   10.10
  -2  -5 -10   45.10   12.50
  -2  -5 -10   82.29   17.30
  -2  -5 -10   45.30    9.50
   2   5  10   50.39   11.00
  -2   5 -10   54.99   10.80
   2   5  10   78.59   14.30
  -3  -5 -10   28.50    6.90
   3   5  10   29.60   11.00
  -3   5 -10   26.00    8.90
   3   5  10   24.60    8.10
   3   5  10   22.40    7.60
   3  -6 -10  133.29   12.80
   3  -6 -10  151.78   13.80
  -3  -6  10  113.79   16.10
  -3  -6  10  155.58   12.90
   3   6 -10  150.18   11.70
  -3   6  10  142.89   12.70
   2  -6 -10  348.27   26.30
  -2  -6  10  323.57   27.10
  -2  -6  10  310.37   25.90
  -2  -6  10  351.96   25.00
  -2  -6  10  313.27   24.10
  -2  -6  10  304.17   24.70
   2  -6 -10  282.47   25.80
  -2   6  10  319.37   24.40
   2   6 -10  366.66   25.40
   2   6 -10  345.77   24.40
   2   6 -10  319.07   24.60
   1  -6 -10  398.96   29.40
  -1  -6  10  360.66   25.50
  -1  -6  10  344.27   26.80
  -1  -6  10  348.77   28.50
  -1  -6  10  346.37   25.40
  -1   6  10  381.66   28.30
   1   6 -10  371.76   26.80
  -1   6  10  369.16   26.40
  -1   6  10  349.67   29.30
  -1   6  10  322.67   27.80
   1   6 -10  331.97   26.60
   1   6 -10  320.77   26.40
   1   6 -10  364.46   26.90
   0  -6 -10    6.50    4.90
   0  -6  10   10.10    7.90
   0  -6  10   12.20    3.70
   0  -6 -10   29.50   10.40
   0  -6  10   14.00    6.00
   0  -6 -10    9.00    4.90
   0   6  10   16.10   13.90
   0   6 -10    4.60    5.70
   0   6  10   19.50    6.30
   0   6 -10    9.30    5.70
   0   6  10    0.30    8.00
   0   6 -10   17.20    6.60
   0   6  10   15.90    5.90
   0   6 -10   12.70    4.60
   0   6  10   15.10    6.00
  -1  -6 -10  591.04   44.40
  -1  -6 -10  623.64   43.90
  -1  -6 -10  598.04   44.80
   1  -6  10  636.44   44.50
  -1  -6 -10  651.13   44.10
   1  -6  10  617.44   46.20
  -1   6 -10  602.24   45.00
   1   6  10  594.44   43.50
   1   6  10  646.84   45.40
   1   6  10  713.13   45.70
   1   6  10  556.24   43.60
   1   6  10  567.54   44.90
  -1   6 -10  608.24   43.60
   1   6  10  657.03   45.50
  -2  -6 -10  133.19   13.50
  -2  -6 -10   90.09   17.20
  -2  -6 -10  132.39   14.00
  -2  -6 -10  142.59   17.70
   2   6  10  123.19   14.70
  -2   6 -10  127.19   13.90
   2   6  10  106.19   17.00
  -3  -6 -10   25.70    7.70
  -3  -6 -10   21.30    5.50
  -3   6 -10   41.30    9.30
   3   6  10   21.90    5.80
   3   6  10   18.90    6.30
   3  -7 -10  283.27   21.90
   3  -7 -10  320.67   22.30
  -3  -7  10  271.97   22.60
   3   7 -10  278.17   21.20
  -3   7  10  313.27   21.60
  -2  -7  10  414.16   28.90
   2  -7 -10  403.16   28.60
  -2  -7  10  359.26   26.90
   2  -7 -10  327.37   28.10
  -2  -7  10  346.97   27.90
  -2  -7  10  347.17   27.70
  -2   7  10  323.47   27.90
   2   7 -10  414.36   27.90
   2   7 -10  349.77   27.10
   2   7 -10  385.06   27.10
  -2   7  10  388.56   27.10
  -1  -7  10    4.60    3.70
  -1  -7  10    2.30    7.20
  -1  -7  10   -2.40    5.10
   1  -7 -10   17.70    8.40
  -1  -7  10    8.40    4.90
   1   7 -10    8.80    6.00
   1   7 -10   -0.50    6.50
  -1   7  10   -3.00    5.40
  -1   7  10    5.80    8.40
   1   7 -10   13.50    6.80
   1   7 -10    0.90    6.00
  -1   7  10   27.00   14.20
  -1   7  10   12.70   10.30
   0  -7  10 1249.77   86.09
   0  -7 -10 1188.78   86.39
   0  -7  10 1304.57   87.19
   0  -7 -10 1355.76   85.19
   0   7  10 1210.28   86.29
   0   7 -10 1246.18   86.39
   0   7 -10 1290.27   86.29
   0   7  10 1083.29   86.09
   0   7  10 1196.28   87.99
   0   7  10 1311.17   85.59
   0   7  10 1275.77   86.59
   0   7 -10 1213.88   86.59
  -1  -7 -10   67.29   10.60
   1  -7  10   57.29   10.60
  -1  -7 -10   68.99   13.50
  -1  -7 -10   58.09   10.20
  -1  -7 -10   64.39   12.40
   1  -7  10   59.99   13.40
   1   7  10   45.00    9.20
  -1   7 -10   42.10    8.80
   1   7  10   61.39   11.40
   1   7  10   57.69   12.30
   1   7  10   74.49   12.20
  -1   7 -10   81.19   10.50
   1   7  10   65.29   12.40
   1   7  10   65.79   10.70
  -2  -7 -10  342.97   29.50
  -2  -7 -10  325.97   25.60
  -2  -7 -10  259.37   23.00
  -2  -7 -10  272.97   24.20
   2   7  10  289.67   23.70
   2   7  10  319.17   24.50
  -2   7 -10  322.07   23.80
  -3  -7 -10   68.99   12.60
  -3  -7 -10   43.20    6.40
   3   7  10   55.79    8.80
  -3   7 -10   59.99   10.30
   3   7  10   65.49    7.40
  -3  -8  10   86.89   10.00
   3  -8 -10   93.89    9.40
   3  -8 -10   99.99    9.80
   3   8 -10   86.99    8.60
  -3   8  10   89.79    9.20
   2  -8 -10  203.78   16.80
  -2  -8  10  182.28   15.70
  -2  -8  10  206.18   16.90
   2  -8 -10  191.58   15.40
  -2  -8  10  182.88   16.30
   2  -8 -10  203.98   17.10
   2   8 -10  173.08   15.70
   2   8 -10  196.68   15.90
  -2   8  10  188.18   15.40
   2   8 -10  196.08   17.10
  -1  -8  10  496.45   33.80
  -1  -8  10  464.95   34.70
  -1  -8  10  468.75   33.10
  -1  -8  10  434.26   31.90
   1   8 -10  460.95   33.20
   1   8 -10  407.36   33.20
  -1   8  10  489.65   32.50
  -1   8  10  433.16   37.50
  -1   8  10  390.76   33.70
   1   8 -10  464.25   33.60
   1   8 -10  457.55   33.70
   0  -8  10    3.30    5.00
   0  -8 -10    2.70    5.10
   0  -8  10   -3.00    6.20
   0   8  10   -2.20    8.00
   0   8  10    5.20    8.20
   0   8 -10   15.80    7.90
   0   8  10    9.90    5.40
   0   8  10   11.30    8.70
   0   8 -10    3.00    6.20
   0   8 -10    9.80    9.20
   0   8  10   -0.70    8.60
   0   8 -10   -4.60    4.90
  -1  -8 -10  254.97   23.50
   1  -8  10  324.67   24.90
  -1  -8 -10  307.17   24.40
   1  -8  10  337.87   23.00
  -1  -8 -10  262.07   24.40
  -1  -8 -10  335.87   23.00
   1   8  10  253.17   25.10
  -1   8 -10  298.57   25.10
   1   8  10  317.67   24.60
   1   8  10  338.67   25.20
   1   8  10  328.37   23.70
   1   8  10  253.37   23.30
   1   8  10  321.57   24.60
  -1   8 -10  296.07   23.00
  -2  -8 -10  135.29   15.60
  -2  -8 -10   98.69   17.60
  -2   8 -10  109.49   13.50
   2   8  10  123.59   12.60
   2   8  10  118.99   12.70
  -3   8 -10   11.20   10.60
   3   8  10   30.90    5.60
   3   8  10   20.80    4.80
   3  -9 -10   90.79    8.50
  -3  -9  10   78.99    8.40
  -3   9  10   97.49    8.60
   2  -9 -10  102.79   12.10
  -2  -9  10  111.59   10.90
  -2  -9  10  113.49   11.70
  -2  -9  10  109.59   11.00
  -2   9  10  114.79   10.00
   2   9 -10  111.09   12.60
   2   9 -10  105.99   11.10
  -2   9  10   97.29   13.00
  -1  -9  10   22.30    5.00
   1  -9 -10   27.00   16.40
  -1  -9  10   40.40    8.00
  -1  -9  10   37.40    7.10
  -1  -9  10   28.70    6.30
   1   9 -10   30.90    9.00
  -1   9  10   31.70    7.20
  -1   9  10   41.80   22.40
   1   9 -10   39.80    8.40
   0  -9  10  492.55   33.00
   0  -9  10  507.25   34.10
   0  -9 -10  435.26   33.30
   0   9 -10  393.56   36.80
   0   9 -10  439.96   33.10
   0   9  10  397.86   35.60
   0   9  10  505.45   33.60
   0   9 -10  447.16   33.40
   0   9 -10  461.05   36.00
   0   9  10  470.75   33.90
   0   9  10  475.65   35.40
   1  -9  10   69.69   10.20
  -1  -9 -10   73.09    9.70
   1  -9  10   75.89    8.50
   1   9  10   61.59   11.80
   1   9  10   53.99    9.70
  -1   9 -10   49.40    9.10
   1   9  10   75.09   10.20
  -1   9 -10   67.19    9.10
   1   9  10   92.59   12.60
  -2  -9 -10  176.08   16.70
  -2  -9 -10  139.29   16.00
   2   9  10  161.68   13.80
   2   9  10  153.28   14.20
  -2   9 -10  178.58   15.30
  -2 -10  10   39.90    6.30
   2 -10 -10   53.59    9.00
  -2 -10  10   31.20    5.90
  -2  10  10   41.30    6.00
  -2  10  10   25.90    7.80
  -1 -10  10  126.59   11.20
  -1 -10  10  109.49   10.40
   1 -10 -10  117.59   10.40
   1  10 -10  103.99   13.70
   1  10 -10  131.99   14.70
  -1  10  10  112.49   11.80
   1  10 -10  117.29   11.60
  -1  10  10  110.99   10.50
   0 -10  10   -1.10    3.40
   0 -10  10    0.90    4.20
   0 -10 -10   -1.70    5.00
   0  10  10    4.10    5.40
   0  10 -10   -0.60    4.60
   0  10  10    4.50    9.80
   0  10  10   -1.80    5.90
   0  10 -10    0.10    5.20
   1 -10  10   40.00    7.90
   1 -10  10   40.50    7.30
  -1 -10 -10   39.10    7.70
   1  10  10   55.69    8.00
  -1  10 -10   43.90    7.10
  -1  10 -10   55.39    8.10
   1  10  10   43.80    7.70
   1  10  10   27.50    7.10
  -2 -10 -10    5.20    4.00
  -2 -10 -10    3.10    6.30
   2  10  10   11.30    4.00
  -2  10 -10   22.60    6.40
   2  10  10   15.60    6.00
   2 -11 -10    2.60    4.70
  -2 -11  10    3.80    2.50
  -2 -11  10    1.70    3.00
  -2  11  10   -1.10    3.50
  -2  11  10    3.60    6.50
   2  11 -10    2.60    2.80
  -2  11  10   -0.40    3.70
   1 -11 -10   19.00    4.20
  -1 -11  10   32.80    4.90
  -1  11  10   21.40    5.70
  -1  11  10   27.80    5.10
   1  11 -10   39.20    6.40
   0 -11  10    3.50    2.90
   0 -11  10    6.80    4.30
   0 -11 -10    8.30    4.60
   0  11 -10    7.20    4.50
   0  11 -10    9.70    4.50
   0  11  10   -5.90   11.80
   0  11  10    7.90    6.50
   0  11  10    7.30    4.80
   0  11  10    8.30    4.90
   0  11  10   11.80    5.90
   1 -11  10   16.10    4.30
  -1 -11 -10   11.30    5.10
  -1 -11 -10    8.00    4.10
  -1  11 -10   16.90    4.30
   1  11  10   16.40    5.90
   1  11  10   13.80    5.20
   1  11  10   11.70    4.80
  -1  11 -10   11.60    5.50
  -2 -11 -10   12.40    4.10
   2  11  10    7.30    3.10
  -2  11 -10    9.10    5.90
   2  11  10    0.30    7.70
   1 -12 -10   20.70    4.20
  -1 -12  10   31.60    5.00
  -1 -12  10   36.00    4.00
  -1  12  10   29.10    5.40
  -1  12  10   32.80    6.00
  -1  12  10   26.40    5.00
   0 -12  10   -0.60    2.20
   0 -12 -10    4.00    3.40
   0 -12  10   -0.70    3.20
   0  12  10    8.80    4.30
   0  12 -10    1.60    2.80
   0  12  10   -2.50    4.40
   0  12  10   -0.40    7.70
   0  12  10    3.00    3.40
   0  12 -10   -0.10    4.60
  -1 -12 -10   -1.00    4.60
   1 -12  10   -1.20    3.20
  -1 -12 -10   -1.40    3.00
   1  12  10    2.20    3.30
  -1  12 -10   11.60    4.70
  -1  12 -10    4.20    4.10
   1  12  10    7.90    6.00
   1  12  10    2.50    4.20
  -1  13  10   19.70    5.70
   0 -13  10   74.09    6.80
   0 -13 -10   63.49    6.30
   0  13  10   69.59    7.00
   0  13 -10   76.09    6.40
   0  13 -10   79.99    9.00
   0  13  10   75.99    7.00
   0  13  10   82.99    8.00
   4   0 -11    3.10    2.90
   4   0 -11   -5.40    7.60
  -4   0  11    6.60    5.00
  -3   0  11    2.10    5.70
   3   0 -11    9.60   10.30
   2   0 -11   -0.10    7.60
  -2   0  11   -2.30    5.70
  -2   0  11    1.00    5.90
  -2   0  11   -1.90    7.00
   2   0 -11   15.10   12.30
   1   0 -11   -1.60   14.20
  -1   0  11   -1.60    3.70
   1   0 -11   -2.50    5.10
  -1   0  11    5.40    4.10
   1   0 -11  -10.30    6.20
  -1   0  11    0.40    6.80
   1   0 -11   -5.50    7.20
  -1   0  11   -9.50   10.10
   0   0 -11    4.70    6.80
   0   0 -11   11.10    4.90
   0   0  11    2.00    3.10
   0   0  11   -0.20    3.00
   0   0  11  -11.50   13.20
   0   0 -11    6.70    5.20
   0   0  11    0.10   11.20
   0   0  11   -4.90    8.30
   0   0 -11   -3.50    4.50
   1   0  11    6.90    3.20
   1   0  11  -16.90   12.10
   1   0  11   -2.60    6.90
  -1   0 -11    6.80    8.10
  -1   0 -11    1.10    5.10
  -1   0 -11    8.30    6.00
  -2   0 -11    0.90   10.20
   2   0  11    1.90    8.70
   2   0  11    4.10   12.80
  -2   0 -11   -2.60   12.10
   3   0  11   -7.00    8.50
   3   0  11   -3.60    8.10
  -3   0 -11    3.80    6.40
  -3   0 -11    7.30   12.90
  -4  -1  11   49.30    8.00
   4  -1 -11   44.30    8.20
   4  -1 -11   37.30    5.70
   4   1 -11   36.80    6.00
  -4   1  11   48.50    6.20
   3  -1 -11    7.80    8.90
   3  -1 -11   10.50    4.50
  -3  -1  11   13.00    6.50
   3   1 -11    3.30   11.00
  -3   1  11   12.00    6.10
   3   1 -11   12.40    5.00
   2  -1 -11   14.70   11.40
  -2  -1  11   16.40    7.10
   2  -1 -11   13.70    7.50
  -2  -1  11    9.80    5.20
  -2  -1  11   20.00    6.80
  -2   1  11    7.40    8.80
  -2   1  11   22.80    6.90
   2   1 -11   24.10    9.70
   2   1 -11   10.60   13.40
  -2   1  11   12.20    6.50
  -1  -1  11  237.38   17.80
   1  -1 -11  264.77   19.00
   1  -1 -11  234.48   20.40
  -1  -1  11  205.38   21.90
  -1  -1  11  211.98   19.50
   1  -1 -11  215.68   25.80
  -1  -1  11  197.38   17.60
   1  -1 -11  240.48   19.00
   1   1 -11  264.47   18.90
  -1   1  11  238.28   19.10
  -1   1  11  191.88   24.10
   1   1 -11  241.48   18.80
  -1   1  11  235.38   18.10
   1   1 -11  277.27   19.90
  -1   1  11  247.58   18.30
   0  -1 -11   40.00    8.10
   0  -1  11   40.00   11.00
   0  -1 -11   31.40    7.00
   0  -1 -11   39.00    7.90
   0  -1  11   25.50    5.20
   0  -1  11   52.49    9.00
   0  -1  11   36.80    5.20
   0  -1  11   45.50   12.80
   0   1  11   61.69   12.20
   0   1 -11   33.50    6.00
   0   1  11   31.20    5.70
   0   1 -11   45.00    7.90
   0   1 -11   40.90    7.60
   0   1  11   35.90   10.00
   0   1  11   46.90   13.90
   0   1  11   37.90    5.80
   0   1 -11   41.60    7.50
   1  -1  11  176.58   22.80
  -1  -1 -11  176.18   15.70
  -1  -1 -11  164.58   14.20
   1  -1  11  147.39   16.10
  -1  -1 -11  175.28   16.70
  -1  -1 -11  178.78   16.30
   1  -1  11  154.88   18.40
  -1   1 -11  186.78   16.90
   1   1  11  163.38   12.80
  -1   1 -11  171.78   15.50
   1   1  11  178.48   16.70
  -1   1 -11  151.68   16.40
  -1   1 -11  167.78   14.00
   1   1  11  182.28   23.00
  -2  -1 -11   52.69   10.60
   2  -1  11   35.10    9.80
  -2  -1 -11   10.40   12.50
   2  -1  11   31.70   11.90
   2   1  11   29.60    8.60
   2   1  11   27.30   14.60
  -2   1 -11   38.90   10.40
  -3  -1 -11   29.20    7.00
  -3  -1 -11   18.20   11.20
   3  -1  11   45.80    9.30
  -3   1 -11   31.60    7.00
   3   1  11   14.00   10.00
  -3   1 -11   18.60   14.30
   3   1  11   38.40   10.20
   3  -2 -11  423.36   30.70
   3  -2 -11  399.26   29.00
   3   2 -11  393.46   29.10
  -3   2  11  368.76   28.70
   3   2 -11  400.76   34.00
  -2  -2  11   54.69    9.40
  -2  -2  11   59.29   10.00
   2  -2 -11   66.89   15.50
   2  -2 -11   68.99   13.70
  -2  -2  11   53.59    8.90
  -2   2  11   56.29    9.10
   2   2 -11   72.49   11.20
   1  -2 -11  533.35   43.30
  -1  -2  11  537.55   38.90
  -1  -2  11  569.44   40.00
   1  -2 -11  640.24   39.60
  -1  -2  11  483.85   38.70
   1  -2 -11  555.54   40.70
  -1  -2  11  556.64   40.80
  -1   2  11  541.25   39.30
  -1   2  11  536.25   39.60
   1   2 -11  542.05   39.40
   1   2 -11  595.34   39.60
   0  -2 -11 1228.58   76.69
   0  -2 -11 1216.48   76.59
   0  -2  11 1002.90   75.49
   0  -2  11 1127.79   76.89
   0  -2  11 1084.09   77.89
   0  -2 -11 1120.59   76.79
   0  -2  11 1078.79   75.59
   0  -2  11 1148.39   78.59
   0   2  11 1068.29   75.89
   0   2 -11 1111.59   76.59
   0   2  11 1106.49   77.79
   0   2 -11 1026.10   75.99
   0   2  11 1146.49   76.89
   0   2 -11 1084.09   76.29
   0   2  11  935.91   75.79
   0   2 -11 1131.09   76.39
   0   2  11 1180.58   77.79
  -1  -2 -11   21.20    8.00
  -1  -2 -11   23.40    8.20
   1  -2  11    8.70    7.40
  -1  -2 -11   19.40    7.00
   1  -2  11   22.70   11.90
  -1  -2 -11   26.60    6.50
  -1   2 -11   31.20    7.00
  -1   2 -11    9.60    8.50
   1   2  11   10.70    7.90
   1   2  11   23.00   12.10
  -1   2 -11   14.40    7.80
   1   2  11   23.30   16.00
   1   2  11   31.80    5.10
  -1   2 -11   21.40    7.00
  -2  -2 -11  299.17   23.80
   2  -2  11  287.77   26.70
  -2  -2 -11  267.87   27.30
  -2  -2 -11  333.57   22.30
   2  -2  11  304.07   25.30
  -2   2 -11  305.67   22.10
  -2   2 -11  266.77   25.60
   2   2  11  250.57   29.20
   2   2  11  231.58   22.80
   3  -2  11   18.40    8.00
  -3  -2 -11   25.90    9.50
  -3  -2 -11   23.80    6.70
   3   2  11   20.30   10.70
  -3   2 -11   21.50    7.10
   3   2  11    2.50   10.30
   3  -3 -11    7.20    4.70
   3  -3 -11   26.30    7.90
  -3  -3  11   12.80    6.30
   3   3 -11   11.70    5.70
  -3   3  11   14.00    5.70
   2  -3 -11  857.71   58.29
   2  -3 -11  796.82   56.99
  -2  -3  11  777.32   55.99
  -2  -3  11  812.12   56.19
  -2  -3  11  765.22   57.69
  -2   3  11  777.22   57.49
  -2   3  11  803.52   56.19
   2   3 -11  882.71   56.59
   2   3 -11  748.73   56.09
   1  -3 -11  527.55   39.30
  -1  -3  11  497.95   38.00
  -1  -3  11  508.45   37.90
   1  -3 -11  597.44   36.90
  -1  -3  11  498.05   40.00
   1  -3 -11  499.95   40.50
  -1  -3  11  523.65   36.60
  -1  -3  11  529.85   36.50
  -1   3  11  513.05   37.20
   1   3 -11  536.75   37.90
   1   3 -11  493.55   37.20
   1   3 -11  528.65   37.30
  -1   3  11  483.35   37.10
   0  -3  11  228.78   19.10
   0  -3  11  228.78   21.00
   0  -3 -11  241.48   18.00
   0  -3  11  204.08   16.20
   0  -3  11  210.58   22.80
   0  -3 -11  246.48   17.90
   0  -3  11  212.38   16.20
   0  -3 -11  223.28   19.60
   0   3  11  185.78   16.80
   0   3  11  237.78   19.20
   0   3  11  234.58   22.00
   0   3  11  246.58   20.50
   0   3  11  231.98   17.00
   0   3 -11  205.68   17.70
   0   3 -11  221.18   17.80
   0   3 -11  209.98   17.10
   0   3 -11  218.18   18.60
   1  -3  11  686.13   52.99
  -1  -3 -11  737.73   51.49
   1  -3  11  719.73   52.09
   1  -3  11  669.23   54.49
  -1  -3 -11  718.63   51.99
  -1  -3 -11  748.83   52.29
  -1  -3 -11  802.32   52.59
   1   3  11  770.52   52.79
  -1   3 -11  722.13   52.29
  -1   3 -11  767.82   51.49
   1   3  11  815.32   54.29
   1   3  11  728.73   50.89
   1   3  11  725.73   55.09
   1   3  11  713.13   54.89
  -1   3 -11  719.23   52.29
  -2  -3 -11   60.29   15.10
  -2  -3 -11   94.19   10.90
   2  -3  11   83.89   15.90
   2  -3  11   77.59   18.80
  -2  -3 -11   73.09   14.70
  -2  -3 -11   76.29   12.30
   2   3  11   58.29   14.10
   2   3  11   71.09   13.40
  -2   3 -11   78.99   10.10
  -2   3 -11   96.09   16.10
  -3  -3 -11  144.29   13.30
   3   3  11  144.29   16.40
  -3   3 -11  125.19   13.20
   3   3  11  135.29   16.80
   3  -4 -11  483.95   37.20
   3  -4 -11  537.25   38.00
  -3  -4  11  577.44   37.30
  -3  -4  11  522.85   39.40
   3   4 -11  515.25   37.80
  -3   4  11  500.15   36.90
  -2  -4  11  249.88   18.50
  -2  -4  11  221.28   21.20
   2  -4 -11  246.08   21.10
   2  -4 -11  214.38   20.60
  -2  -4  11  253.47   23.20
  -2  -4  11  199.78   18.30
  -2  -4  11  215.98   18.00
  -2   4  11  254.27   18.50
   2   4 -11  208.18   18.60
  -2   4  11  229.88   24.60
   1  -4 -11  614.44   40.40
  -1  -4  11  582.84   41.90
  -1  -4  11  573.54   40.50
  -1  -4  11  564.64   42.70
  -1  -4  11  545.75   40.40
   1  -4 -11  643.04   44.00
   1   4 -11  485.55   41.50
   1   4 -11  581.64   41.20
   1   4 -11  583.24   41.40
  -1   4  11  556.24   41.10
  -1   4  11  575.34   42.30
  -1   4  11  575.94   41.60
  -1   4  11  575.94   41.60
   1   4 -11  651.83   41.90
   0  -4  11 1176.08   83.59
   0  -4 -11 1340.87   83.19
   0  -4  11 1166.38   82.29
   0  -4 -11 1326.77   83.29
   0  -4  11 1193.98   84.49
   0  -4 -11 1221.68   83.59
   0   4  11 1220.68   84.59
   0   4  11 1311.37   83.19
   0   4  11 1064.09   82.89
   0   4 -11 1144.49   83.19
   0   4 -11 1206.88   83.39
   0   4  11 1145.19   82.89
   0   4 -11 1130.89   82.89
   0   4  11 1212.38   84.09
   0   4 -11 1237.28   83.49
  -1  -4 -11   72.49   11.80
   1  -4  11   31.20    8.20
  -1  -4 -11   70.99   10.70
   1  -4  11   33.60    7.50
  -1  -4 -11   58.49   10.50
  -1  -4 -11   52.39    9.90
   1   4  11   56.59   13.00
   1   4  11   49.00   14.00
   1   4  11   51.79    8.40
   1   4  11   49.00    7.00
  -1   4 -11   26.30    9.00
   1   4  11   47.50   10.70
   1   4  11   46.10    9.50
  -1   4 -11   39.50    7.60
  -1   4 -11   33.50    8.70
  -2  -4 -11  602.54   44.40
  -2  -4 -11  571.34   40.90
  -2  -4 -11  578.44   40.20
  -2  -4 -11  470.15   43.00
   2   4  11  653.13   43.30
   2   4  11  511.55   42.60
  -2   4 -11  564.84   40.30
  -3  -4 -11   47.60    9.00
   3   4  11   33.80   11.90
   3   4  11   33.70    8.50
  -3   4 -11   31.80    7.70
  -3  -5  11    7.00    5.70
   3  -5 -11    7.00    5.60
   3  -5 -11   -3.00    4.40
  -3   5  11   -1.60    4.90
  -2  -5  11  861.61   58.89
   2  -5 -11  960.10   59.69
  -2  -5  11  862.71   58.29
  -2  -5  11  831.02   57.99
   2  -5 -11  793.52   58.89
  -2  -5  11  752.02   58.09
  -2  -5  11  865.71   59.49
   2   5 -11  858.11   57.89
  -2   5  11  724.13   57.99
   2   5 -11  831.12   58.09
  -1  -5  11  134.79   13.70
   1  -5 -11  169.48   17.10
  -1  -5  11  145.79   16.60
  -1  -5  11  130.19   11.90
  -1  -5  11  135.69   11.50
  -1   5  11  139.39   12.90
  -1   5  11  131.99   14.60
   1   5 -11  124.19   14.60
  -1   5  11  137.69   15.20
   1   5 -11  153.78   14.10
  -1   5  11  139.59   15.50
   1   5 -11  141.49   13.20
   1   5 -11  136.99   13.10
   0  -5 -11   13.50    5.60
   0  -5  11   10.40    6.10
   0  -5  11   17.40    7.50
   0  -5 -11    3.50    5.50
   0  -5  11   18.70    3.60
   0  -5 -11   26.90    9.30
   0   5 -11   12.80    5.20
   0   5  11   19.30    5.60
   0   5  11   13.60    6.40
   0   5 -11   26.00    6.90
   0   5 -11   14.60    5.80
   0   5  11    7.70    7.40
   0   5  11   11.40    5.40
   0   5 -11   28.50    6.70
  -1  -5 -11  719.53   51.89
  -1  -5 -11  783.72   52.19
  -1  -5 -11  695.83   51.69
   1  -5  11  686.33   53.09
   1  -5  11  728.93   52.09
  -1  -5 -11  774.92   51.99
   1   5  11  774.02   53.09
   1   5  11  764.02   53.19
  -1   5 -11  717.73   51.29
   1   5  11  858.61   53.69
   1   5  11  623.24   51.19
  -1   5 -11  708.73   52.29
  -1   5 -11  706.43   53.19
   1   5  11  777.12   52.99
   1   5  11  717.43   51.09
  -2  -5 -11   15.30    8.00
  -2  -5 -11   16.00    7.20
  -2  -5 -11   -9.60   11.80
  -2  -5 -11   22.00   13.40
   2   5  11   15.20   10.00
   2   5  11    4.10    8.50
  -2   5 -11   11.00    6.80
  -2   5 -11  -11.60   11.10
  -3  -5 -11  108.29   11.60
  -3   5 -11   92.99   12.60
   3   5  11   81.49   12.00
   3   5  11  115.49   11.70
   3   5  11  131.19   14.00
   3  -6 -11  110.49   10.50
   3  -6 -11  118.59   10.90
  -3   6  11   96.99   10.10
  -2  -6  11  101.29   13.70
   2  -6 -11   78.29   12.50
  -2  -6  11   78.09   12.00
   2  -6 -11  113.69   12.80
  -2  -6  11   96.29   10.00
  -2  -6  11   73.89   12.00
   2   6 -11  111.79   12.50
   2   6 -11   95.29   10.90
  -2   6  11   65.29   11.60
   2   6 -11   86.89   10.10
  -2   6  11  102.29   10.40
  -1  -6  11  127.89   12.00
  -1  -6  11  136.09   13.70
  -1  -6  11  117.79   15.10
  -1  -6  11  137.59   11.30
   1   6 -11  143.39   14.60
   1   6 -11  132.69   13.00
   1   6 -11  129.29   13.50
  -1   6  11  162.18   12.40
  -1   6  11  130.49   16.40
  -1   6  11  134.09   19.00
   1   6 -11  110.49   14.30
  -1   6  11  138.49   14.40
   0  -6 -11  231.98   19.60
   0  -6  11  204.98   19.50
   0  -6  11  197.28   17.50
   0  -6 -11  233.78   16.70
   0   6  11  233.88   16.80
   0   6 -11  186.98   18.40
   0   6  11  209.28   18.10
   0   6  11  182.48   17.50
   0   6  11  190.68   23.40
   0   6  11  198.18   18.40
   0   6 -11  200.58   17.70
   0   6 -11  192.98   18.10
   1  -6  11    4.90    7.60
  -1  -6 -11    7.10    7.40
   1  -6  11    8.20    6.50
  -1  -6 -11   10.40    7.20
  -1  -6 -11    8.00    7.30
  -1   6 -11    9.50    7.50
   1   6  11   -1.80    7.50
   1   6  11   11.00    7.30
  -1   6 -11   12.30    4.80
   1   6  11    9.30    5.50
   1   6  11    8.20    8.30
   1   6  11    1.70    9.50
  -2  -6 -11  145.69   18.60
  -2  -6 -11  118.59   12.60
  -2  -6 -11  143.49   13.90
  -2   6 -11  115.59   13.40
   2   6  11  111.99   13.20
  -2   6 -11  108.59   21.70
   2   6  11  114.49   14.80
  -3  -6 -11    7.30    8.10
  -3  -6 -11    8.00    4.40
   3   6  11   13.50    4.50
   3   6  11    8.20    5.30
  -3   6 -11   -4.60    7.60
   3  -7 -11    8.20    4.90
  -3  -7  11   25.80   12.10
  -3   7  11    4.10    4.50
  -2  -7  11   54.19   10.20
  -2  -7  11   47.40    7.80
   2  -7 -11   51.39   11.70
   2  -7 -11   65.09    9.90
  -2  -7  11   45.80    8.60
   2   7 -11   48.50    8.80
   2   7 -11   61.59    9.40
  -2   7  11   50.99    8.10
   2   7 -11   64.69   11.30
  -2   7  11   54.09    8.00
  -1  -7  11   -5.70    6.70
  -1  -7  11    4.40    4.10
  -1  -7  11   -4.40    5.20
  -1   7  11    6.80   11.50
   1   7 -11    8.30    8.50
   1   7 -11    5.80    6.40
   1   7 -11   -5.20    5.30
   1   7 -11   12.30    7.50
  -1   7  11    0.20    7.30
  -1   7  11    5.80    5.50
   0  -7  11   18.30    7.00
   0  -7  11   23.70    5.50
   0  -7 -11    4.80    8.90
   0   7  11   18.20    8.50
   0   7 -11   16.80    6.70
   0   7  11   20.40    7.40
   0   7 -11   30.90    9.10
   0   7  11    8.00    9.10
   0   7  11    1.90    7.90
   0   7 -11   20.60    7.70
   0   7 -11   16.40    5.40
  -1  -7 -11   60.59   12.10
  -1  -7 -11   51.59   10.20
  -1  -7 -11   42.60    9.10
   1  -7  11   64.19   11.90
  -1  -7 -11   52.49   10.10
   1  -7  11   60.89    9.10
  -1  -7 -11   44.30    8.20
   1   7  11   68.59   11.20
   1   7  11   74.29   12.10
   1   7  11   47.90    8.00
  -1   7 -11   68.69    9.90
   1   7  11   48.80   10.60
  -1   7 -11   51.69    9.00
  -2  -7 -11  -10.60   12.40
  -2  -7 -11   -2.00    5.30
   2   7  11    8.60    7.30
  -2   7 -11    3.10    6.80
   2   7  11    2.30    5.70
  -3  -7 -11   -4.80    3.40
   3   7  11   -2.10    5.10
  -3   7 -11    5.60    8.00
   3   7  11    2.60    2.90
   3   7  11    2.00    4.60
  -3  -8  11   22.40    6.80
   3  -8 -11    8.60    3.80
  -3   8  11   14.60    4.40
  -2  -8  11   11.00    5.50
  -2  -8  11   22.60    5.50
   2  -8 -11    9.70    6.10
   2  -8 -11   19.00    6.70
   2  -8 -11   14.40    4.60
  -2  -8  11   11.70    5.50
   2   8 -11   16.10    7.10
   2   8 -11   16.30    5.90
   2   8 -11   14.60    5.80
  -2   8  11   19.40    5.00
  -1  -8  11   -2.70    4.60
  -1  -8  11    0.30    4.50
  -1  -8  11   -3.00    5.30
   1   8 -11   -7.50    8.90
  -1   8  11    6.60    5.40
   1   8 -11    0.00    7.50
  -1   8  11   21.60   15.40
   1   8 -11   -2.80    6.70
   1   8 -11   -2.70    5.00
  -1   8  11   -0.70    6.40
   0  -8  11    7.10    4.50
   0  -8 -11   14.30    5.90
   0  -8  11    8.90    5.70
   0   8 -11    3.80    5.90
   0   8  11   17.20    8.10
   0   8  11   15.50   10.10
   0   8  11   17.90    6.60
   0   8 -11   23.90   10.30
   0   8  11   16.30    7.30
   0   8 -11   11.50    5.80
   0   8 -11   20.60    9.10
  -1  -8 -11   -4.50    7.00
  -1  -8 -11   15.30    6.90
  -1  -8 -11    0.80    6.50
   1  -8  11    8.00    5.70
   1  -8  11    6.50    4.70
   1   8  11   -7.20    6.90
  -1   8 -11    9.80    5.60
   1   8  11    8.90    7.10
   1   8  11    9.20    6.30
   1   8  11   13.30    5.90
  -2  -8 -11   37.50   10.60
  -2  -8 -11   23.90    9.60
  -2  -8 -11   13.00    5.80
  -2   8 -11   37.40    7.30
   2   8  11   28.80    6.20
   2   8  11   21.00    5.90
  -2  -9  11   85.39    8.40
  -2  -9  11   80.19    8.20
   2  -9 -11   64.29   11.00
   2   9 -11   74.39    9.20
  -2   9  11   66.09    9.70
  -2   9  11   74.99    7.80
  -1  -9  11  126.39   11.40
   1  -9 -11   95.59   10.40
  -1  -9  11  113.89   10.30
  -1   9  11  125.79   10.30
   1   9 -11   82.19   15.40
   1   9 -11   90.19   10.70
  -1   9  11  118.79   11.70
   1   9 -11  111.59   14.00
   0  -9  11    6.40    3.80
   0  -9  11    3.40    4.40
   0  -9 -11    3.30    4.90
   0   9 -11    1.10    5.00
   0   9  11    3.10    6.70
   0   9  11   14.20    9.70
   0   9  11    8.20    6.70
   0   9  11    9.70    5.20
   0   9 -11   20.40   13.10
   0   9 -11    7.60    5.00
  -1  -9 -11  123.19   13.60
   1  -9  11  169.38   13.50
  -1  -9 -11  123.09   13.10
  -1  -9 -11  114.69   14.10
   1  -9  11  158.98   12.00
   1   9  11  149.39   14.10
  -1   9 -11  135.09   12.70
   1   9  11  157.28   12.80
   1   9  11  150.48   13.60
  -1   9 -11  149.49   14.60
  -2  -9 -11   18.40    7.00
  -2  -9 -11    3.60    4.30
   2   9  11    9.40    4.30
  -2   9 -11    9.80    6.60
   2   9  11    0.80    4.30
  -2 -10  11   58.79    6.40
   2 -10 -11   60.79   10.10
  -2 -10  11   58.79    6.10
  -2  10  11   57.09    8.60
  -2  10  11   64.39    6.70
   2  10 -11   55.39    7.50
  -1 -10  11  170.38   12.60
  -1 -10  11  159.08   13.20
   1 -10 -11  132.09   12.60
   1  10 -11  156.38   16.80
  -1  10  11  161.08   13.10
  -1  10  11  164.18   12.60
  -1  10  11  158.38   13.60
   1  10 -11  158.08   13.10
   0 -10  11  128.49   12.10
   0 -10  11  135.09   11.10
   0  10  11  112.89   12.70
   0  10  11  156.38   18.60
   0  10  11  143.69   12.30
   0  10 -11  133.39   12.10
   0  10  11  152.28   13.60
   0  10  11  142.09   12.80
   0  10 -11  131.09   12.30
  -1 -10 -11   -0.60    4.30
   1 -10  11    1.50    4.00
  -1 -10 -11    3.50    5.60
   1  10  11   -2.20   10.70
  -1  10 -11    4.40    5.40
   1  10  11    5.80    4.50
  -1  10 -11    2.40    4.50
   1  10  11    4.90    5.50
  -2 -10 -11   77.09    9.70
   2  10  11   87.69    7.70
   2  10  11   85.29   11.90
  -2 -11  11  117.49    8.70
  -2 -11  11  105.29    8.80
  -2  11  11  118.59    8.90
   2  11 -11  108.89    9.40
  -2  11  11  104.99   10.70
  -1 -11  11  106.19    8.90
   1 -11 -11   93.39    8.60
  -1 -11  11  112.79    8.50
  -1  11  11   98.49    8.80
  -1  11  11  100.29    9.60
   1  11 -11  111.49    9.10
   0 -11 -11   68.19    7.80
   0 -11  11   75.89    6.90
   0 -11  11   78.99    8.00
   0  11  11   71.09   11.10
   0  11 -11   83.99    7.70
   0  11 -11   88.19    9.30
   0  11  11   77.39    8.20
   0  11  11   77.99    8.50
   0  11  11   77.19    9.00
   1 -11  11  152.78   12.30
  -1 -11 -11  139.39   12.30
  -1 -11 -11  138.29   12.50
   1  11  11  159.98   12.30
  -1  11 -11  164.88   12.90
   1  11  11  174.48   12.60
  -1 -12  11   49.40    5.30
  -1 -12  11   53.69    4.90
  -1  12  11   56.29    6.50
  -1  12  11   54.29    6.00
  -1  12  11   65.79    7.90
  -1  12  11   56.09    6.10
   1  12 -11   60.09    5.80
   0 -12  11  136.49    9.70
   0 -12  11  126.59   10.40
   0  12  11  130.59   10.70
   0  12  11  150.68   11.20
   0  12 -11  142.29   10.40
   0  12  11  115.09   10.20
  -1 -12 -11    0.40    2.70
   1 -12  11    2.80    3.50
  -1  12 -11    4.90    4.20
   1  12  11    1.70    3.40
   1  12  11    2.40    2.70
   3   0 -12  100.49   10.30
  -3   0  12   89.59   10.10
   3   0 -12   82.19   13.50
  -2   0  12  949.31   66.09
  -2   0  12  996.10   65.79
   2   0 -12  912.71   67.59
  -2   0  12  915.91   65.89
   2   0 -12  939.51   66.29
   1   0 -12   37.80    8.30
   1   0 -12   38.60    8.00
  -1   0  12   13.80    9.60
  -1   0  12   32.30    8.10
   1   0 -12   34.70    7.20
   0   0 -12 1085.89   82.39
   0   0 -12 1267.77   83.19
   0   0  12 1288.57   83.79
   0   0 -12 1301.87   82.99
   0   0  12 1106.69   82.19
   0   0  12 1205.08   82.29
   0   0  12 1157.18   84.29
  -1   0 -12  516.85   36.60
  -1   0 -12  480.95   36.30
  -1   0 -12  498.95   35.50
   1   0  12  488.05   36.50
  -1   0 -12  476.05   36.80
   1   0  12  531.25   39.40
  -2   0 -12   29.00   14.60
   2   0  12   17.40    7.80
  -2   0 -12   29.40    9.30
  -2   0 -12   42.20    9.60
   2   0  12   37.10   11.70
  -3   0 -12  175.58   13.40
  -3   0 -12  137.69   16.40
   3   0  12  137.29   14.80
   3   0  12  144.99   13.90
   3  -1 -12  485.55   36.00
  -3  -1  12  484.15   34.70
   3  -1 -12  490.95   34.60
   3   1 -12  479.45   34.50
   3   1 -12  506.45   36.80
  -3   1  12  461.65   34.50
   2  -1 -12    9.20   10.30
  -2  -1  12    6.20    6.60
   2  -1 -12   19.10    7.40
  -2  -1  12    4.40    6.60
  -2  -1  12   -3.10    5.80
  -2   1  12    9.00    7.20
   2   1 -12   -2.30   11.80
   2   1 -12    5.00    7.60
  -2   1  12   -0.70    5.90
  -2   1  12   17.00    9.10
   1  -1 -12  922.71   65.09
   1  -1 -12 1060.99   65.39
  -1  -1  12  875.91   64.59
  -1  -1  12  940.11   65.29
   1  -1 -12  842.22   64.69
  -1  -1  12  963.30   66.09
   1  -1 -12  961.50   67.69
  -1   1  12  861.41   64.79
  -1   1  12  885.61   66.49
   1   1 -12  937.71   65.09
   1   1 -12 1050.59   65.39
   1   1 -12 1044.80   65.79
  -1   1  12  829.62   64.69
  -1   1  12  921.11   65.09
   0  -1  12  383.06   29.50
   0  -1 -12  457.75   30.90
   0  -1 -12  431.56   31.10
   0  -1  12  428.06   33.90
   0  -1 -12  477.05   31.10
   0  -1  12  416.76   32.90
   0  -1  12  410.76   29.60
   0  -1  12  383.46   31.60
   0   1 -12  375.46   30.10
   0   1  12  454.55   32.00
   0   1 -12  435.56   30.90
   0   1 -12  394.86   30.50
   0   1  12  405.16   29.70
   0   1  12  380.86   29.60
   0   1 -12  452.05   30.90
   1  -1  12  183.58   17.10
  -1  -1 -12  172.88   18.20
   1  -1  12  202.98   21.10
  -1  -1 -12  198.58   16.20
  -1  -1 -12  194.38   17.20
  -1  -1 -12  197.18   17.70
   1   1  12  233.98   21.80
  -1   1 -12  162.08   19.20
  -1   1 -12  194.28   16.00
   1   1  12  190.18   14.60
   1   1  12  182.58   17.80
  -1   1 -12  189.78   17.90
  -1   1 -12  212.58   17.80
  -2  -1 -12  461.65   31.60
  -2  -1 -12  422.86   32.20
   2  -1  12  452.85   32.90
   2  -1  12  417.86   33.80
   2   1  12  370.56   31.80
   2   1  12  448.06   36.40
  -2   1 -12  429.56   32.60
  -2   1 -12  450.15   31.50
   3  -1  12   18.70    8.50
  -3  -1 -12   12.90    8.70
   3  -1  12   14.80    6.30
  -3   1 -12    8.90   11.70
   3   1  12    7.20    7.50
   3   1  12    1.80    7.50
  -3   1 -12    7.60    5.90
   3  -2 -12   20.00    5.00
  -3  -2  12   16.80    6.60
   3  -2 -12   22.20    8.10
   3   2 -12   20.60    5.20
  -3   2  12   22.30    5.70
   2  -2 -12  358.66   28.10
  -2  -2  12  324.87   25.00
   2  -2 -12  320.17   26.70
  -2  -2  12  353.66   25.20
  -2   2  12  333.87   24.80
  -2   2  12  291.77   26.50
  -2   2  12  338.77   29.30
   2   2 -12  316.97   27.50
  -1  -2  12  139.79   12.20
  -1  -2  12  146.09   15.70
   1  -2 -12  140.49   15.70
   1  -2 -12  150.18   13.70
  -1  -2  12  170.88   16.00
   1  -2 -12  145.59   19.70
   1   2 -12  144.69   13.30
   1   2 -12  134.89   13.00
  -1   2  12  135.19   19.90
  -1   2  12  129.59   13.40
  -1   2  12  143.39   13.30
   1   2 -12  132.69   15.20
  -1   2  12  124.99   12.80
   0  -2  12  337.57   27.80
   0  -2 -12  362.76   25.90
   0  -2 -12  278.07   27.30
   0  -2  12  357.96   26.20
   0  -2 -12  399.66   25.90
   0  -2  12  310.17   24.00
   0  -2  12  362.96   27.80
   0  -2  12  327.77   24.00
   0   2  12  375.76   27.10
   0   2  12  358.96   27.00
   0   2 -12  289.97   24.60
   0   2 -12  325.97   25.40
   0   2 -12  357.26   25.60
   0   2  12  300.37   24.40
   0   2  12  332.37   24.50
   0   2 -12  329.27   25.20
   1  -2  12  263.97   23.40
   1  -2  12  291.97   24.70
  -1  -2 -12  249.97   21.80
  -1  -2 -12  292.37   22.70
  -1  -2 -12  283.17   21.10
  -1  -2 -12  277.97   23.30
   1  -2  12  236.28   21.80
  -1   2 -12  255.37   20.60
  -1   2 -12  262.37   22.80
   1   2  12  277.97   22.70
  -1   2 -12  264.87   24.50
   1   2  12  327.77   30.20
   1   2  12  259.67   20.00
  -1   2 -12  287.27   22.40
   1   2  12  328.57   25.60
  -2  -2 -12   19.40    7.00
  -2  -2 -12   16.40   14.00
   2  -2  12   11.40    8.50
  -2  -2 -12   16.90    7.60
   2  -2  12   25.60    8.90
  -2   2 -12   13.60    9.40
   2   2  12   -3.00   10.60
  -2   2 -12   17.20    6.20
  -3  -2 -12   95.99   12.00
   3   2  12   70.29   12.50
  -3   2 -12   80.89   10.00
   3   2  12   78.39   11.20
   3  -3 -12   46.40    9.30
   3  -3 -12   39.80    7.80
  -3  -3  12   53.79    8.40
   3   3 -12   43.80    8.10
  -3   3  12   34.50    7.30
   2  -3 -12   38.90    8.10
  -2  -3  12   58.69   10.80
   2  -3 -12   57.89   12.90
  -2  -3  12   42.80    9.60
  -2  -3  12   43.90   10.00
  -2   3  12   43.30    8.80
  -2   3  12   26.00   11.20
   2   3 -12   64.89   11.00
  -1  -3  12  152.58   12.30
  -1  -3  12  139.19   11.90
  -1  -3  12  159.18   15.50
   1  -3 -12  136.99   17.90
   1  -3 -12  154.88   18.70
  -1  -3  12  165.18   18.40
   1  -3 -12  150.88   13.10
   1   3 -12  153.88   15.30
  -1   3  12  150.78   15.60
  -1   3  12  113.19   13.80
   1   3 -12  155.58   13.60
  -1   3  12  140.49   13.40
   1   3 -12  127.99   13.00
  -1   3  12  129.69   13.70
   0  -3  12    6.60    6.20
   0  -3  12   11.10    3.40
   0  -3  12   15.60    8.90
   0  -3 -12   -7.70    7.00
   0  -3 -12   20.30    6.70
   0  -3 -12   10.80    6.60
   0  -3  12    7.50    6.90
   0   3 -12   11.30    5.50
   0   3  12   16.40   10.00
   0   3  12   13.70    7.40
   0   3 -12   -1.70    5.70
   0   3  12    2.60    4.20
   0   3  12    0.00    4.80
   0   3 -12    7.40    4.90
   0   3 -12    8.10    5.70
   0   3  12   14.50    9.10
   1  -3  12   12.50   10.40
  -1  -3 -12   -3.20    6.30
  -1  -3 -12   -0.70    7.80
   1  -3  12    0.90    6.20
  -1  -3 -12   -2.40    8.40
   1  -3  12    9.20    6.30
  -1  -3 -12   -9.10    6.70
  -1   3 -12    2.60    4.80
  -1   3 -12   -2.40    6.70
   1   3  12   20.00    9.00
   1   3  12    7.80    4.20
   1   3  12   -1.70   13.50
  -1   3 -12    7.80    9.00
   1   3  12    1.60   11.80
   1   3  12   15.70    7.20
   2  -3  12   45.30   10.00
  -2  -3 -12   65.29   10.90
  -2  -3 -12   93.79   17.10
  -2  -3 -12   57.99   10.40
  -2  -3 -12   38.40   14.80
  -2   3 -12   71.99   10.10
   2   3  12   94.19   15.50
  -2   3 -12   68.59   11.10
  -3  -3 -12   10.60    6.30
  -3   3 -12   -3.70    5.90
   3   3  12    2.60    6.80
   3   3  12    0.30    8.30
   3  -4 -12    8.60    6.00
   3  -4 -12   -4.00    4.30
  -3  -4  12   -3.30    5.80
  -3   4  12    0.60    4.70
   3   4 -12    5.40    4.40
  -2  -4  12   -7.40    5.00
  -2  -4  12    9.10    7.40
  -2  -4  12    3.00    6.90
   2  -4 -12   -0.50    7.40
  -2  -4  12    1.40    6.30
   2  -4 -12   -0.40    7.10
   2   4 -12   -2.80    7.10
  -2   4  12    7.40   12.80
   2   4 -12   -8.60    7.90
  -1  -4  12    6.80    3.70
   1  -4 -12   10.80    5.30
  -1  -4  12    0.40    8.10
  -1  -4  12    4.80    6.10
  -1  -4  12    7.80    4.70
  -1   4  12    8.40    5.90
   1   4 -12   10.80    5.30
  -1   4  12   18.50    8.00
   1   4 -12    4.20    7.30
  -1   4  12    6.40    6.60
  -1   4  12    3.00    6.90
   1   4 -12   13.00    5.80
   0  -4 -12   -0.80    7.90
   0  -4  12    5.00    9.40
   0  -4 -12   10.10    6.40
   0  -4  12    5.00    6.90
   0  -4  12    3.20    5.60
   0  -4 -12    8.00    6.20
   0  -4  12    8.40    3.50
   0   4  12    8.30    5.30
   0   4 -12    1.20    5.60
   0   4  12   -4.60    8.00
   0   4  12   14.80    7.70
   0   4 -12    4.20    6.10
   0   4  12    2.50    9.00
   0   4 -12    3.90    5.60
   0   4 -12   12.60    5.20
   0   4  12   11.80    5.10
  -1  -4 -12   50.29   11.40
  -1  -4 -12   48.50   10.10
  -1  -4 -12   62.49   12.70
  -1  -4 -12   45.90    9.70
   1  -4  12   53.29   11.70
   1  -4  12   63.59   10.40
   1   4  12   44.60   11.50
   1   4  12   95.59   16.10
  -1   4 -12   57.99   11.30
  -1   4 -12   73.49    8.50
   1   4  12   53.29    8.00
   1   4  12   59.59   12.10
   1   4  12   80.79   12.70
  -1   4 -12   69.99   11.70
   2  -4  12   14.30    7.30
  -2  -4 -12    9.20    6.80
  -2  -4 -12   -7.70   15.10
  -2  -4 -12    1.80    7.00
   2   4  12   11.70    7.80
  -2   4 -12    3.30    9.70
   2   4  12   -4.80    9.20
  -3  -4 -12    8.80    6.50
   3   4  12    7.20    8.00
   3   4  12   -0.70    5.60
  -3   4 -12   15.10    6.40
   3  -5 -12   79.79    9.40
   3  -5 -12  109.59    9.90
   3   5 -12   97.39    9.80
  -3   5  12   72.89    8.70
  -3   5  12   90.49    8.90
  -2  -5  12   47.30    9.30
   2  -5 -12   55.39   10.40
  -2  -5  12   35.20    7.20
  -2  -5  12   30.70    9.30
  -2  -5  12   42.30    6.50
  -2   5  12   24.80    6.60
  -2   5  12   40.40    8.00
   2   5 -12   40.40    6.70
   2   5 -12   38.60    8.80
  -1  -5  12  272.27   23.70
  -1  -5  12  340.27   26.20
  -1  -5  12  341.87   24.70
  -1  -5  12  317.87   23.30
  -1  -5  12  286.47   26.60
  -1   5  12  360.46   24.00
  -1   5  12  358.76   25.10
   1   5 -12  332.57   24.20
  -1   5  12  341.87   26.10
   1   5 -12  316.17   24.60
   1   5 -12  308.07   25.50
  -1   5  12  269.17   25.90
   0  -5 -12   92.99   10.40
   0  -5 -12   67.59   10.50
   0  -5  12   77.59   12.50
   0  -5 -12   80.69   12.20
   0  -5  12   67.39    7.70
   0  -5  12   83.49   10.20
   0   5 -12   79.09   10.60
   0   5  12   87.39   14.20
   0   5  12   50.29   10.60
   0   5  12   60.79   11.20
   0   5 -12   82.49   12.00
   0   5 -12   58.99    9.10
   0   5 -12   73.29   11.90
   0   5  12   66.69   10.90
  -1  -5 -12   42.80   13.70
   1  -5  12    6.20    6.40
  -1  -5 -12   21.20    8.60
   1  -5  12   19.10    6.80
  -1  -5 -12   14.80    8.20
   1   5  12   19.10    7.30
   1   5  12   15.20    5.60
  -1   5 -12   23.80    6.00
   1   5  12   31.30    9.20
   1   5  12   17.50    7.30
  -1   5 -12   35.50   11.50
  -1   5 -12   10.90    6.90
   1   5  12   29.90   10.00
   1   5  12    0.10   11.90
  -2  -5 -12   67.99   15.10
  -2  -5 -12   56.49   11.50
  -2  -5 -12   72.19   10.00
   2   5  12   66.79   14.30
   2   5  12   61.49   10.70
  -2   5 -12   74.59    9.70
  -2   5 -12   61.89   12.40
  -3  -5 -12   16.60    7.90
  -3  -5 -12    2.30    3.90
   3   5  12   -1.10    4.90
   3   5  12    5.20    6.60
  -3   5 -12    9.60    6.50
   3  -6 -12   15.50    4.40
   3   6 -12   22.20    5.30
  -3   6  12   13.90    4.80
  -3   6  12   25.90    4.70
  -2  -6  12  397.76   32.40
  -2  -6  12  430.76   31.90
  -2  -6  12  405.76   31.30
   2  -6 -12  494.85   32.30
   2  -6 -12  399.86   33.00
  -2   6  12  454.45   31.10
   2   6 -12  380.86   31.30
  -2   6  12  450.55   31.50
   2   6 -12  491.65   32.40
  -1  -6  12   14.00    5.60
  -1  -6  12   19.30    4.40
  -1  -6  12   20.80    7.50
  -1   6  12    7.50   10.70
   1   6 -12   17.90    6.60
   1   6 -12   18.80   15.90
   1   6 -12   28.90    6.50
   1   6 -12   25.60    8.30
  -1   6  12   30.70    6.70
  -1   6  12   16.60    6.90
  -1   6  12   14.70   11.20
   0  -6  12   83.59   12.30
   0  -6 -12   90.19   13.00
   0  -6  12  102.79   10.50
   0  -6 -12   81.59   10.00
   0   6  12   65.19   12.80
   0   6 -12   94.69   10.90
   0   6 -12   73.89   13.60
   0   6 -12   64.59    9.60
   0   6 -12   79.29   13.40
   0   6  12   82.49   11.30
   0   6  12   91.79   10.60
   0   6  12   57.99   11.70
   0   6  12   55.59   11.10
  -1  -6 -12  341.17   26.60
  -1  -6 -12  292.77   27.50
  -1  -6 -12  366.86   27.10
   1  -6  12  365.96   26.50
   1  -6  12  335.87   27.90
   1   6  12  415.26   27.60
   1   6  12  380.76   27.30
   1   6  12  334.67   26.10
   1   6  12  384.66   27.40
  -1   6 -12  327.77   27.20
   1   6  12  326.27   33.80
  -1   6 -12  363.26   26.30
  -2  -6 -12   18.10    6.20
  -2  -6 -12    0.80   10.70
  -2  -6 -12   41.30   13.10
  -2   6 -12   34.60   10.80
   2   6  12   15.00    7.60
   2   6  12   15.50    5.90
   3   6  12   81.69    7.90
   3   6  12   93.89    9.40
  -3   6 -12   82.89   10.90
   3  -7 -12  233.98   19.10
  -3   7  12  268.87   18.60
   3   7 -12  264.47   19.40
  -2  -7  12    8.00    5.30
  -2  -7  12    5.80    6.20
   2  -7 -12    6.20    5.70
   2  -7 -12   -1.50    7.30
  -2  -7  12   -5.50    5.30
  -2   7  12    5.70    5.40
  -2   7  12   -0.20    4.60
   2   7 -12   18.10    5.70
   2   7 -12   15.50    7.90
  -1  -7  12  804.32   58.59
  -1  -7  12  868.61   59.49
  -1  -7  12  851.81   59.79
   1   7 -12  836.72   60.09
  -1   7  12  949.51   59.09
   1   7 -12  871.31   59.39
  -1   7  12  778.62   59.19
   1   7 -12  856.01   59.79
  -1   7  12  841.32   62.19
   0  -7 -12  118.59   11.70
   0  -7  12  127.59   11.80
   0  -7  12  112.29   13.40
   0   7  12  156.58   14.10
   0   7  12  122.89   12.90
   0   7 -12  126.79   16.70
   0   7 -12  126.79   12.70
   0   7  12  104.59   14.30
   0   7 -12  121.69   12.40
   0   7  12  129.09   13.00
   0   7  12  110.29   16.10
   1  -7  12  110.69   10.50
  -1  -7 -12   98.29   11.10
  -1  -7 -12  111.69   12.60
  -1  -7 -12  103.39   12.30
   1  -7  12   80.39   12.30
  -1  -7 -12  105.09   12.30
   1   7  12  103.99   12.50
   1   7  12  120.59   11.80
  -1   7 -12  112.39   11.00
   1   7  12   87.89   12.30
  -1   7 -12   72.79   12.70
   1   7  12  112.29   12.00
  -2  -7 -12  139.09   20.00
  -2  -7 -12  196.18   26.80
  -2   7 -12  184.78   15.30
  -2   7 -12  165.08   22.70
   2   7  12  179.58   14.60
   2   7  12  172.58   15.10
  -2  -8  12  357.36   26.30
   2  -8 -12  340.27   25.50
  -2  -8  12  362.56   26.50
   2   8 -12  376.36   26.20
  -2   8  12  341.57   26.10
  -2   8  12  392.56   25.80
  -1  -8  12   39.30    7.30
  -1  -8  12   45.60    8.80
  -1   8  12   44.70    9.40
  -1   8  12   27.10    7.00
  -1   8  12   46.30   21.10
  -1   8  12   41.20    7.20
   1   8 -12   45.00    8.40
   1   8 -12   53.79    8.00
   0  -8  12  192.68   14.50
   0  -8 -12  158.78   15.00
   0  -8  12  180.48   15.80
   0   8  12  190.68   15.80
   0   8  12  160.68   18.60
   0   8 -12  181.18   15.30
   0   8  12  157.38   15.40
   0   8  12  176.38   14.90
   0   8 -12  200.48   15.40
   0   8 -12  184.28   23.30
   1  -8  12  219.58   18.10
  -1  -8 -12  213.28   18.20
  -1  -8 -12  178.78   17.70
  -1   8 -12  213.08   18.30
   1   8  12  230.18   17.80
   1   8  12  197.28   17.80
  -1   8 -12  226.78   17.20
   1   8  12  205.68   19.00
   1   8  12  249.38   17.30
  -2  -8 -12   21.50    8.20
  -2  -8 -12    1.70    4.20
   2   8  12    5.80    4.40
   2   8  12    4.80    4.50
  -2   8 -12    5.40    6.10
  -2  -9  12    6.20    3.50
  -2  -9  12    0.20    4.80
  -2   9  12    3.40    4.90
   2   9 -12   13.10    4.40
  -2   9  12    8.40    4.00
  -1  -9  12  155.28   12.90
  -1  -9  12  152.78   12.30
   1  -9 -12  129.79   12.30
   1   9 -12  144.79   13.10
   1   9 -12  180.28   16.20
  -1   9  12  139.19   13.20
  -1   9  12  153.88   12.30
   0  -9 -12   77.99    9.70
   0  -9  12   92.99    9.80
   0  -9  12   84.89    8.60
   0   9  12   96.89   10.50
   0   9 -12  119.19   22.20
   0   9 -12   86.59   10.00
   0   9  12   77.79   11.00
   0   9 -12   84.19   10.50
   0   9  12   84.19    9.40
   0   9  12   80.59   16.20
   0   9  12   84.09   11.10
  -1  -9 -12   89.19   10.70
   1  -9  12  107.79    8.80
   1  -9  12  105.69   10.50
   1   9  12   89.39   15.70
  -1   9 -12  107.79   10.50
   1   9  12  102.29   10.70
   1   9  12  115.69   11.20
  -1   9 -12  105.39   11.40
   1   9  12  103.59   10.00
  -2  -9 -12   43.30    6.10
  -2  -9 -12   47.30    8.60
   2   9  12   58.39    6.50
   2   9  12   50.29    6.10
  -2 -10  12   28.70    4.50
  -2 -10  12   31.70    5.20
  -2  10  12   32.70    4.40
   2  10 -12   35.00    5.70
  -2  10  12   34.50    6.10
  -2  10  12   35.20    5.40
  -1 -10  12    0.10    2.30
  -1 -10  12    1.90    3.40
   1 -10 -12   -3.30    3.00
  -1  10  12    2.60    3.60
   1  10 -12    1.90    3.50
  -1  10  12   -3.60    4.40
   0 -10 -12   65.39    7.60
   0 -10  12   69.89    7.70
   0 -10  12   70.59    6.60
   0  10  12   62.09    7.30
   0  10  12   65.09    8.50
   0  10 -12   62.79    7.60
   0  10 -12   74.39    9.40
   0  10  12   61.79    9.40
   1 -10  12   42.50    6.10
  -1 -10 -12   37.50    6.90
  -1 -10 -12   30.40    5.80
  -1  10 -12   51.09    7.60
   1  10  12   32.90    6.00
   1  10  12   38.10    6.70
  -1  10 -12   44.80    7.40
  -1 -11  12    7.40    2.70
   1 -11 -12    7.90    2.60
  -1 -11  12    7.30    2.30
  -1  11  12    6.00    3.40
   1  11 -12   11.60    3.20
  -1  11  12    5.40    4.40
  -1  11  12    4.60    3.10
   0 -11  12    7.50    2.20
   0 -11  12    4.00    2.80
   0 -11 -12    3.90    3.10
   0  11  12   10.00    3.30
   0  11 -12    4.00    5.60
   0  11  12   10.30    4.20
   0  11 -12    9.00    3.20
  -1 -11 -12    0.90    3.00
   1 -11  12    5.70    2.80
   1  11  12   -0.20    3.90
  -1  11 -12    6.90    4.30
  -1  11 -12    6.70    4.10
   1  11  12    2.30    2.80
   3   0 -13   -4.80    4.00
  -3   0  13   -3.30    5.30
  -2   0  13    6.60    7.20
  -2   0  13   -9.80    6.40
  -2   0  13    4.60    7.70
   2   0 -13   -2.00    9.40
   1   0 -13   -6.10    6.10
   1   0 -13  -10.00    8.60
  -1   0  13   -6.90    7.90
  -1   0  13   -2.90    4.60
   1   0 -13   -8.30    6.40
  -1   0  13    1.40    8.30
  -1   0  13    4.70    5.30
  -1   0  13    3.30    8.70
   0   0 -13   -6.90    6.10
   0   0  13   -0.60    3.80
   0   0 -13   -0.70    7.30
   0   0 -13   -4.20    6.20
   0   0  13    0.80    7.10
   0   0  13   15.40    8.20
   0   0  13   -1.80    4.60
  -1   0 -13    7.80    5.70
  -1   0 -13   19.40    9.40
  -1   0 -13   12.40    6.90
   1   0  13   11.70    6.40
   1   0  13   11.30    9.50
  -1   0 -13   20.40    9.30
   2   0  13   -7.60    5.80
  -2   0 -13    4.50    7.00
   2   0  13    3.00    8.10
  -3   0 -13   -5.10    5.70
   3   0  13   15.60    7.60
   3   0  13   -0.80    5.10
  -3   0 -13    4.70    8.00
   3  -1 -13   14.00    8.00
   3  -1 -13   15.30    4.60
  -3  -1  13   18.30    6.10
  -3   1  13   25.30    5.70
   3   1 -13   17.90    4.50
   2  -1 -13  170.58   16.80
  -2  -1  13  153.28   14.50
  -2  -1  13  121.19   15.30
  -2  -1  13  151.98   15.60
   2  -1 -13  168.68   17.80
  -2   1  13  123.79   18.30
  -2   1  13  180.38   14.20
   2   1 -13  144.69   16.10
   1  -1 -13   39.80    8.60
  -1  -1  13   27.60    8.20
  -1  -1  13   21.90    5.20
  -1  -1  13   24.50    5.50
   1  -1 -13   21.20    7.10
  -1  -1  13   35.20    9.90
  -1   1  13   25.30    6.10
  -1   1  13   30.10    7.90
   1   1 -13   20.30    9.40
   1   1 -13   34.70    7.10
  -1   1  13   19.80    6.30
   1   1 -13   32.00    6.80
  -1   1  13   19.80    9.70
   0  -1  13  140.09   15.40
   0  -1 -13  170.78   15.70
   0  -1  13  175.28   18.70
   0  -1  13  181.78   17.10
   0  -1  13  137.09   12.40
   0  -1 -13  167.78   14.90
   0  -1 -13  165.08   14.80
   0  -1  13  125.49   12.70
   0   1 -13  128.49   13.70
   0   1  13  149.09   15.70
   0   1 -13  151.48   14.10
   0   1 -13  152.78   14.30
   0   1 -13  170.68   15.30
   0   1  13  145.59   12.60
  -1  -1 -13   80.49   10.90
  -1  -1 -13   82.69   14.40
  -1  -1 -13   88.59   11.70
   1  -1  13   78.19   15.00
   1  -1  13   97.99   11.10
  -1  -1 -13   93.59   14.90
  -1   1 -13  100.49   15.00
   1   1  13   78.79   11.40
  -1   1 -13   83.79   16.60
   1   1  13  103.69   15.80
  -1   1 -13   83.39   11.90
  -1   1 -13   84.69   10.30
  -2  -1 -13   42.30    7.60
   2  -1  13   23.00    7.30
   2  -1  13   34.10    8.70
  -2  -1 -13   50.19    9.90
   2   1  13   34.40    9.50
  -2   1 -13   35.60    8.20
  -2   1 -13   48.10    9.20
  -3  -1 -13   37.80    7.40
  -3  -1 -13   32.80    7.40
   3  -1  13   29.30    6.60
  -3   1 -13   37.80    9.70
  -3   1 -13   20.00    5.80
   3   1  13   24.60    6.10
   3   1  13   21.40    6.80
  -3  -2  13  158.78   14.50
   3  -2 -13  159.58   14.00
   3  -2 -13  182.48   15.70
  -3   2  13  169.68   13.80
   3   2 -13  177.88   14.00
  -2  -2  13  133.89   23.50
  -2  -2  13  158.18   14.10
   2  -2 -13  146.99   19.20
   2  -2 -13  134.29   16.00
  -2  -2  13  157.98   14.30
  -2   2  13  174.68   21.00
  -2   2  13  158.58   13.50
  -2   2  13  132.39   19.30
   2   2 -13  123.49   15.80
   1  -2 -13  318.17   21.90
  -1  -2  13  313.07   23.70
   1  -2 -13  228.38   23.00
  -1  -2  13  265.27   21.30
  -1  -2  13  267.07   22.70
  -1  -2  13  280.97   21.00
   1   2 -13  302.17   22.40
  -1   2  13  262.57   22.00
  -1   2  13  313.47   25.90
  -1   2  13  231.68   21.90
  -1   2  13  291.87   21.90
   1   2 -13  276.47   21.80
   1   2 -13  299.77   24.00
  -1   2  13  300.37   23.20
   0  -2  13    3.30    7.30
   0  -2 -13    1.10    6.80
   0  -2 -13    5.60    7.80
   0  -2  13    7.90    3.60
   0  -2  13   16.30    8.40
   0  -2  13   15.00    6.40
   0  -2 -13    6.40    6.80
   0   2  13    6.00    4.50
   0   2  13   15.40    8.00
   0   2 -13    9.90    6.50
   0   2 -13    6.30    6.30
   0   2  13    4.10    8.10
   0   2  13   10.20    5.30
   0   2 -13   11.60    7.10
   0   2 -13    1.10    5.80
   1  -2  13  293.27   23.20
  -1  -2 -13  304.97   23.00
  -1  -2 -13  320.67   25.00
  -1  -2 -13  286.67   25.40
  -1  -2 -13  267.67   23.00
   1  -2  13  268.77   25.20
   1   2  13  287.57   23.30
   1   2  13  277.37   21.70
  -1   2 -13  330.87   23.70
   1   2  13  351.36   25.70
  -1   2 -13  286.87   25.90
   1   2  13  339.87   29.80
  -1   2 -13  306.27   22.70
  -1   2 -13  261.07   26.50
  -2  -2 -13   77.49   10.90
  -2  -2 -13   82.79   10.40
   2  -2  13   90.99   13.30
   2  -2  13   61.09    9.40
   2   2  13   66.89   14.70
  -2   2 -13   60.79   11.90
  -2   2 -13   90.89   10.10
  -3  -2 -13   20.00    6.20
  -3   2 -13   16.80    5.60
   3   2  13   15.50    6.90
  -3  -3  13  187.28   15.50
   3  -3 -13  190.28   15.50
   3  -3 -13  161.48   15.00
   3   3 -13  183.78   14.60
  -3   3  13  180.58   14.30
   2  -3 -13  721.93   45.60
  -2  -3  13  591.24   43.90
  -2  -3  13  641.54   44.20
  -2  -3  13  644.74   45.10
   2   3 -13  537.25   44.60
  -2   3  13  596.24   43.70
  -1  -3  13   19.40    8.40
  -1  -3  13   12.30    4.20
   1  -3 -13   22.60    6.40
  -1  -3  13   23.60    8.30
   1  -3 -13   -7.70   11.60
  -1  -3  13   15.70    6.20
  -1  -3  13   12.70    5.70
  -1   3  13   29.60    7.00
   1   3 -13   20.00    6.20
   1   3 -13   12.30    5.30
  -1   3  13   11.70    7.30
  -1   3  13   22.80   12.20
  -1   3  13   20.10    6.80
   0  -3 -13  721.33   51.29
   0  -3  13  713.43   52.29
   0  -3 -13  809.92   51.69
   0  -3  13  715.63   51.39
   0  -3  13  701.13   50.29
   0  -3  13  692.23   51.89
   0  -3 -13  778.52   51.79
   0   3 -13  752.82   51.39
   0   3  13  688.53   50.89
   0   3  13  799.82   52.19
   0   3 -13  681.03   50.89
   0   3 -13  682.03   51.39
   0   3 -13  758.82   51.99
   0   3  13  727.73   52.19
   1  -3  13  170.88   15.30
  -1  -3 -13  171.58   18.70
   1  -3  13  157.38   17.00
  -1  -3 -13  165.68   16.60
  -1  -3 -13  179.98   15.50
  -1  -3 -13  166.68   18.00
   1  -3  13  171.48   18.40
   1   3  13  152.98   14.20
   1   3  13  202.78   21.30
   1   3  13  212.78   17.80
  -1   3 -13  183.18   16.10
  -1   3 -13  159.48   20.10
   1   3  13  184.88   16.10
  -1   3 -13  182.88   14.60
   1   3  13  147.79   20.30
  -1   3 -13  175.08   23.90
  -2  -3 -13   92.59   21.30
   2  -3  13  151.28   14.00
  -2  -3 -13  129.49   12.40
  -2  -3 -13  135.69   13.60
  -2   3 -13  106.39   14.40
  -2   3 -13  145.39   12.80
   2   3  13  127.49   15.40
  -3  -3 -13  118.19   11.40
  -3   3 -13  106.99   10.70
   3   3  13  116.49   11.40
   3   3  13   95.89   10.60
   3  -4 -13  192.08   15.30
   3  -4 -13  182.58   14.90
  -3   4  13  208.08   14.70
   3   4 -13  196.58   15.10
  -3   4  13  164.68   14.10
  -2  -4  13  121.19   13.00
   2   4 -13  126.29   14.60
  -2   4  13  146.79   12.70
  -2   4  13  143.99   12.30
   2   4 -13  140.19   17.20
  -1  -4  13 1020.10   71.49
  -1  -4  13  861.41   71.49
  -1  -4  13 1069.19   72.89
  -1  -4  13 1091.79   72.39
  -1  -4  13 1029.20   72.29
  -1   4  13 1118.29   72.49
   1   4 -13 1074.49   72.19
  -1   4  13 1152.88   71.99
   1   4 -13 1036.10   72.89
  -1   4  13  944.41   72.39
   0  -4 -13   -3.70    6.80
   0  -4 -13    2.00    7.90
   0  -4  13   -2.00    4.90
   0  -4 -13   -1.10    6.60
   0  -4  13    2.20    6.20
   0  -4  13    9.90    7.90
   0  -4  13   -1.00    4.20
   0   4 -13    2.00    7.50
   0   4 -13   -1.50    5.40
   0   4  13   -0.10    5.00
   0   4  13    1.50    7.90
   0   4 -13   -3.40    7.30
   0   4  13   -7.00    6.60
   0   4  13   -1.00    5.60
  -1  -4 -13  241.28   22.80
  -1  -4 -13  263.67   22.60
   1  -4  13  267.57   20.60
  -1  -4 -13  272.87   20.60
   1  -4  13  256.97   21.70
  -1  -4 -13  221.68   23.10
   1   4  13  269.37   23.20
  -1   4 -13  242.98   20.10
   1   4  13  276.37   21.60
  -1   4 -13  252.67   20.90
   1   4  13  277.97   21.80
  -1   4 -13  257.87   26.00
   1   4  13  312.67   23.20
   1   4  13  253.77   19.90
  -2  -4 -13  185.88   24.80
  -2  -4 -13  131.19   14.20
  -2  -4 -13  124.19   13.00
   2   4  13  111.89   17.30
  -2   4 -13  132.79   14.70
   2   4  13  157.88   14.70
  -3  -4 -13   20.10    8.90
  -3  -4 -13   12.70    3.80
  -3   4 -13   13.90    6.00
   3   4  13   16.30    4.80
   3  -5 -13   73.59    9.90
   3  -5 -13   87.29    8.70
   3   5 -13   83.49    9.10
  -3   5  13   62.79    7.00
  -3   5  13   80.49    8.00
  -2  -5  13  215.78   18.20
   2  -5 -13  248.78   19.20
  -2  -5  13  215.98   18.70
  -2   5  13  228.38   17.90
  -2   5  13  231.78   17.50
   2   5 -13  217.18   18.50
  -1  -5  13   41.10    7.20
  -1  -5  13   63.29   11.40
  -1  -5  13   43.60    7.20
  -1  -5  13   44.40    8.20
  -1   5  13   23.10   10.70
  -1   5  13   42.20    8.70
  -1   5  13   54.49    8.90
   1   5 -13   30.80    6.60
   1   5 -13   50.99   10.00
  -1   5  13   58.49   10.80
   0  -5  13  441.06   31.50
   0  -5  13  442.06   30.30
   0  -5 -13  406.46   30.60
   0   5 -13  366.76   30.10
   0   5 -13  444.26   30.60
   0   5  13  394.96   30.30
   0   5 -13  417.46   31.60
   0   5  13  440.26   31.60
   0   5  13  349.07   31.10
   0   5  13  455.85   31.00
   0   5 -13  401.06   31.70
   1  -5  13   90.79   13.10
  -1  -5 -13   83.49   14.20
  -1  -5 -13   82.49   15.60
   1  -5  13  109.29   11.80
  -1  -5 -13  128.69   11.90
   1   5  13  132.59   14.40
   1   5  13  119.49   13.00
  -1   5 -13  122.79   11.40
   1   5  13  147.49   14.00
   1   5  13  125.29   11.90
  -1   5 -13  105.59   12.50
  -2  -5 -13  114.39   20.20
  -2  -5 -13   74.99    9.90
  -2  -5 -13  102.19   13.90
   2   5  13   84.59   10.60
  -2   5 -13   70.69   12.30
  -2   5 -13   96.19   10.60
   2   5  13   70.29   12.00
  -3   6  13   37.10    5.80
   3   6 -13   37.40    7.30
  -2  -6  13   16.50    5.70
  -2  -6  13   23.70    6.50
  -2  -6  13   39.60    8.50
  -2   6  13   24.90    5.40
   2   6 -13   30.30    6.60
  -2   6  13   32.70    6.60
  -1  -6  13  405.16   30.80
  -1  -6  13  442.26   31.40
  -1  -6  13  418.56   32.10
  -1   6  13  420.26   31.40
  -1   6  13  467.15   31.10
   1   6 -13  424.96   32.20
  -1   6  13  432.16   35.10
   1   6 -13  451.05   31.30
   0  -6  13    9.20    4.80
   0  -6  13   -0.90    5.10
   0  -6 -13   -0.90    7.90
   0  -6 -13   23.10    6.60
   0   6  13    8.90    6.90
   0   6  13   16.70    7.30
   0   6  13    0.20    4.80
   0   6  13   13.00    6.70
   0   6 -13    7.00    5.90
   0   6  13    7.10    7.90
   0   6 -13    7.30    5.30
   0   6 -13   -6.00    9.50
   0   6  13   -7.40    9.20
  -1  -6 -13   61.49    9.70
  -1  -6 -13   38.90    8.20
  -1  -6 -13   40.90    8.50
   1  -6  13   49.10   10.20
   1  -6  13   39.60    8.30
  -1  -6 -13   55.49    9.30
   1   6  13   67.29   10.40
   1   6  13   56.79   10.50
  -1   6 -13   57.29   10.00
  -1   6 -13   49.30    8.70
   1   6  13   58.69    9.10
   1   6  13   69.09   10.20
  -2  -6 -13   49.00    7.70
   2   6  13   49.20    7.80
  -2   6 -13   57.69    9.40
   2   6  13   50.39    7.40
  -2   6 -13   55.39   10.00
  -2  -7  13    7.70    6.20
   2  -7 -13    3.60    3.30
  -2  -7  13    1.00    4.40
  -2   7  13    3.70    4.40
   2   7 -13    3.10    5.40
  -1  -7  13   18.30    6.40
  -1  -7  13   29.80    7.10
  -1  -7  13   18.20    4.80
   1   7 -13   12.30    4.60
  -1   7  13   19.10    5.40
  -1   7  13   -3.20   12.20
  -1   7  13   20.80    5.70
   1   7 -13   18.20    7.10
   0  -7  13    5.90    4.70
   0  -7 -13   19.40    8.00
   0  -7  13    2.80    3.80
   0   7  13    0.00    6.70
   0   7 -13   31.90   11.40
   0   7 -13    6.40    4.80
   0   7  13    1.60    5.10
   0   7  13   15.80   10.10
   0   7 -13    1.60    6.20
  -1  -7 -13    7.10    6.50
  -1  -7 -13   -6.20    7.10
   1  -7  13    1.80    5.30
   1  -7  13    5.00    4.50
   1   7  13   15.30    6.20
  -1   7 -13    8.20    5.50
   1   7  13   -7.70    8.10
   1   7  13    7.90    5.00
  -1   7 -13   10.10    6.50
   1   7  13   -3.60    6.70
  -2  -7 -13   12.60    4.90
   2   7  13   13.90    4.00
   2   7  13   23.80    5.20
  -2   7 -13   15.00    9.40
  -2  -8  13   -0.20    3.50
  -2  -8  13    4.30    4.80
  -2   8  13    0.50    4.00
   2   8 -13   -2.50    4.90
  -2   8  13   -1.20    3.90
   1  -8 -13   12.90    4.50
  -1  -8  13   13.70    4.60
  -1  -8  13   13.50    4.10
   1   8 -13   30.70    7.70
  -1   8  13   12.20    4.80
  -1   8  13   12.70    6.00
  -1   8  13   14.50    5.10
   1   8 -13    9.60    4.70
   0  -8  13    9.00    4.80
   0  -8 -13   12.90    5.20
   0   8 -13   23.60    5.60
   0   8  13   10.10    4.90
   0   8  13    6.10    9.60
   0   8 -13   20.60    6.50
   0   8 -13    5.30   13.60
   0   8  13   19.80   13.80
   0   8  13   11.30    6.50
   0   8  13   21.30    5.10
   1  -8  13    4.60    4.40
  -1  -8 -13   -8.60    6.30
  -1  -8 -13   -2.00    5.50
   1  -8  13   -1.30    3.30
   1   8  13   -1.50    4.50
   1   8  13    5.30    5.60
   1   8  13    6.70    4.50
  -1   8 -13    3.90    5.10
  -1   8 -13   -2.60    5.60
  -2  -8 -13    6.40    7.90
  -2  -8 -13    6.70    4.10
   2   8  13    1.80    3.30
   2   8  13    7.20    3.60
  -2   8 -13   13.70    5.90
  -2  -9  13   73.19    7.20
  -2  -9  13   53.09    6.40
  -2   9  13   63.89    6.90
  -2   9  13   72.09    7.40
   2   9 -13   69.99   10.70
  -1  -9  13    0.20    3.80
   1  -9 -13   -4.70    3.10
  -1  -9  13   -1.50    3.00
   1   9 -13   -4.20    3.30
  -1   9  13   -5.10    4.30
  -1   9  13    0.00    3.60
  -1   9  13    5.10    4.40
   0  -9  13  134.29   10.50
   0  -9  13  127.29   11.30
   0  -9 -13  114.09   11.20
   0   9  13  135.19   11.80
   0   9 -13  131.59   13.00
   0   9  13  115.39   11.10
   0   9  13  171.18   16.80
   0   9  13  147.59   12.10
   0   9 -13  140.69   11.40
  -1  -9 -13   10.30    4.30
   1  -9  13    9.70    3.60
  -1  -9 -13   -6.50    9.10
   1   9  13   12.30    3.90
  -1   9 -13   13.60    4.90
   1   9  13    8.60    4.30
   1   9  13    9.50    4.90
  -1 -10  13  163.48   11.10
   1 -10 -13  124.79   10.90
  -1 -10  13  155.18   11.40
  -1  10  13  143.59   11.50
   1  10 -13  157.28   11.40
  -1  10  13  140.99   11.10
   0 -10 -13    7.80    3.30
   0 -10  13    9.40    3.10
   0  10  13    8.80    3.50
   0  10 -13    7.20    6.30
   0  10  13    6.20    4.00
   0  10 -13   12.20    3.40
  -1 -10 -13   38.20    5.30
   1  10  13   38.80    5.00
   1  10  13   42.20    5.90
   0 -11  13  103.09    7.10
   0 -11  13   97.69    7.80
   0 -11 -13   78.39    7.50
   0  11  13   98.29    7.90
   0  11 -13  100.69    7.80
   0  11  13   90.19    7.70
   3   0 -14  367.76   27.70
  -3   0  14  395.66   27.60
  -2   0  14  229.58   21.80
  -2   0  14  273.77   20.10
  -1   0  14  411.16   31.90
  -1   0  14  438.56   31.80
   1   0 -14  478.55   31.70
  -1   0  14  381.66   30.50
   1   0 -14  405.26   30.80
   0   0  14  432.76   29.50
   0   0  14  314.87   29.50
   0   0  14  381.56   28.70
   0   0 -14  400.66   30.10
   0   0 -14  386.26   28.80
   0   0  14  347.57   27.10
   0   0 -14  387.16   28.10
  -1   0 -14    1.00    6.80
  -1   0 -14    7.70    6.00
  -1   0 -14    8.90   11.40
   1   0  14    6.10    5.90
  -1   0 -14    1.60   10.80
   1   0  14   15.20    7.60
  -2   0 -14  147.99   15.10
  -2   0 -14  207.38   15.70
   2   0  14  182.58   17.00
   3   0  14   38.30    7.20
   3  -1 -14   11.90    5.70
  -3  -1  14   24.40    6.40
   3   1 -14   16.50    5.10
  -2  -1  14  414.36   29.00
  -2  -1  14  388.36   29.80
  -2   1  14  341.47   30.90
  -2   1  14  417.66   28.70
  -1  -1  14  454.45   36.80
  -1  -1  14  570.64   37.90
  -1  -1  14  501.85   36.60
  -1  -1  14  531.15   37.60
   1  -1 -14  472.45   37.10
   1  -1 -14  590.94   37.40
  -1   1  14  560.84   37.70
  -1   1  14  525.15   38.20
  -1   1  14  509.55   36.90
  -1   1  14  525.25   37.60
   1   1 -14  439.26   39.70
   1   1 -14  502.35   36.80
   0  -1 -14   56.39    9.80
   0  -1  14   48.90    8.20
   0  -1  14   50.39    7.40
   0  -1  14   65.39   11.80
   0  -1 -14   60.29    9.20
   0  -1 -14   72.19   14.10
   0   1  14   44.20    7.70
   0   1 -14   50.69   10.30
   0   1 -14   49.00    8.60
   0   1 -14   52.59    8.20
   0   1  14   54.39   11.00
   0   1  14   51.69    8.60
   0   1 -14   51.49    9.90
  -1  -1 -14  490.05   35.40
   1  -1  14  453.25   33.70
   1  -1  14  465.55   32.90
  -1  -1 -14  443.86   32.80
  -1  -1 -14  436.76   35.50
  -1  -1 -14  452.85   33.00
  -1   1 -14  435.16   35.80
   1   1  14  485.15   34.60
  -1   1 -14  420.36   35.70
   1   1  14  444.26   32.80
  -1   1 -14  446.86   32.60
  -1   1 -14  443.06   32.80
  -2  -1 -14   25.70    6.10
   2  -1  14   34.90    7.30
  -2  -1 -14   51.39    9.30
   2   1  14   32.70    8.40
  -2   1 -14   35.40    7.50
  -2   1 -14   46.70    9.10
   3  -2 -14   79.19   12.90
  -3  -2  14  116.99   13.30
  -3   2  14  109.89    9.50
  -3   2  14   78.09    8.00
   3   2 -14   89.69   10.80
  -2  -2  14  147.49   17.20
  -2  -2  14  154.78   14.80
  -2  -2  14  142.59   15.00
  -2   2  14  138.99   13.10
  -2   2  14  144.89   13.00
   1  -2 -14  129.59   12.70
  -1  -2  14  119.89   12.70
  -1  -2  14   93.29   10.60
   1  -2 -14  106.59   13.60
  -1  -2  14  125.79   12.80
  -1  -2  14  108.69   12.30
  -1   2  14  133.49   13.20
  -1   2  14   90.79   12.60
   1   2 -14  140.09   13.30
  -1   2  14  118.69   12.30
   1   2 -14  114.19   11.50
  -1   2  14   74.39   15.70
   1   2 -14   88.19   18.30
  -1   2  14   90.59   13.00
   0  -2  14  389.96   29.00
   0  -2 -14  435.26   31.90
   0  -2  14  414.46   30.70
   0  -2 -14  463.45   30.90
   0  -2 -14  396.96   30.00
   0  -2  14  399.36   30.00
   0  -2  14  396.96   31.50
   0   2  14  463.75   31.00
   0   2 -14  438.46   32.00
   0   2 -14  403.16   30.60
   0   2 -14  404.56   30.10
   0   2  14  363.76   29.30
   0   2 -14  364.16   30.30
   0   2  14  405.16   30.80
  -1  -2 -14   -1.40    5.70
   1  -2  14   19.20    5.90
   1  -2  14   -1.80    6.70
  -1  -2 -14  -10.80    7.80
  -1  -2 -14   16.40   11.30
  -1   2 -14    6.90   13.00
   1   2  14    8.20    7.10
  -1   2 -14    6.70    6.30
   1   2  14    5.50    5.90
  -1   2 -14    6.30    5.80
  -1   2 -14   17.50   12.80
   2  -2  14   77.99   10.90
  -2  -2 -14   64.99   10.80
  -2  -2 -14   61.49    8.80
   2   2  14   57.49   11.30
  -2   2 -14   67.99    9.90
  -2   2 -14   49.99    9.50
  -3   3  14    6.50    4.50
   3   3 -14   -0.90    5.20
  -3   3  14    3.20    2.70
  -2  -3  14   34.80    8.40
  -2  -3  14   35.80    7.40
  -2   3  14   34.10    6.60
  -2   3  14   28.00    5.90
  -1  -3  14   10.80    5.30
  -1  -3  14    0.90    4.60
  -1  -3  14    0.90    5.70
  -1  -3  14    1.20    8.70
  -1   3  14   -6.60    6.90
  -1   3  14   11.00    8.60
   1   3 -14    2.70    5.00
  -1   3  14    3.20   10.40
   1   3 -14    2.80   12.90
  -1   3  14    8.00    8.20
  -1   3  14    8.20    5.50
   1   3 -14    7.10    6.50
   0  -3  14    4.50    6.10
   0  -3  14    5.00    4.50
   0  -3 -14   -1.40    6.10
   0  -3  14   -1.80    5.60
   0  -3 -14    6.40    7.40
   0  -3 -14   21.90   10.20
   0   3  14    0.80    7.20
   0   3 -14    9.20    5.70
   0   3  14    0.00    7.20
   0   3 -14    1.30    6.90
   0   3 -14    4.00    7.70
   0   3 -14   21.50    9.20
   0   3  14    5.30    6.00
   0   3  14    8.10    5.50
  -1  -3 -14   81.99   14.20
   1  -3  14   69.19    9.30
  -1  -3 -14   80.29   15.80
  -1  -3 -14   56.29    9.30
   1   3  14   68.39   10.00
  -1   3 -14   60.59   10.00
  -1   3 -14   81.79   15.80
   1   3  14  101.99   16.60
  -1   3 -14   64.79    9.70
   1   3  14   76.39   11.00
  -2  -3 -14    3.10    5.60
  -2  -3 -14   -4.70    7.60
   2   3  14   -1.30    6.00
  -2   3 -14   11.90    7.30
  -2   3 -14    7.40    5.80
  -3  -4  14   -0.10    3.40
  -3   4  14   -1.00    2.50
  -3   4  14    1.20    4.20
  -2  -4  14    1.20    6.00
  -2  -4  14    4.80    5.60
  -2   4  14   10.50    5.00
  -2   4  14   -1.70    4.50
  -1  -4  14   21.80    7.10
  -1  -4  14   23.20    5.80
  -1  -4  14   31.60    6.30
  -1   4  14   30.80    6.80
   1   4 -14   22.80    5.30
  -1   4  14   11.90    8.60
   1   4 -14   23.60    7.50
   0  -4 -14   15.30   15.60
   0  -4 -14   16.70    7.30
   0  -4 -14    4.60    6.40
   0  -4  14    5.90    4.80
   0  -4  14    4.90    6.30
   0  -4  14   -6.90    6.80
   0   4 -14    0.50    8.00
   0   4 -14   -2.70    5.20
   0   4  14   -5.90    5.80
   0   4  14   11.40    7.70
   0   4  14   -3.50    8.30
   0   4  14    2.70    5.10
   0   4  14   -1.50    8.20
   0   4 -14    3.00    6.90
   0   4 -14  -11.20    8.90
  -1  -4 -14   30.80    6.20
  -1  -4 -14   32.60   10.50
  -1   4 -14   36.50    7.00
   1   4  14   18.80    9.20
   1   4  14   19.90    6.20
   1   4  14   28.90    7.80
   1   4  14   16.00    5.70
   1   4  14   23.90   10.40
  -2  -4 -14    6.60    4.90
  -2  -4 -14   12.80   11.30
  -2   4 -14   21.20    6.00
   2   4  14   15.20    5.80
  -2   4 -14   17.40    7.50
  -2  -5  14   45.40    7.60
  -2  -5  14   47.40    8.60
  -2   5  14   55.29    7.00
  -2   5  14   38.20    6.20
  -1  -5  14  179.38   14.50
  -1  -5  14  151.18   16.00
  -1  -5  14  161.18   15.80
  -1  -5  14  176.88   14.50
  -1   5  14  174.18   14.30
   1   5 -14  157.78   13.90
   1   5 -14  177.68   16.60
  -1   5  14  172.78   19.40
  -1   5  14  181.28   14.60
   0  -5  14   56.19    7.90
   0  -5 -14   74.49    9.50
   0  -5 -14   58.59   10.90
   0  -5  14   58.29    9.50
   0   5  14   45.60    8.40
   0   5 -14   46.60   10.70
   0   5  14   55.49   10.70
   0   5  14   67.89   11.80
   0   5  14   44.50    9.80
   0   5 -14   67.09    8.00
   0   5 -14   63.19   10.80
  -1  -5 -14   20.30    5.90
   1  -5  14   34.60    6.50
   1  -5  14   27.20    5.90
  -1  -5 -14   26.50   10.50
  -1   5 -14   27.00    6.60
   1   5  14   20.20    7.90
   1   5  14   20.00    8.50
   1   5  14   30.50    6.30
  -1   5 -14   42.70    7.30
   1   5  14   34.80    8.40
  -2  -5 -14   37.60    6.30
  -2   5 -14   27.80    7.80
   2   5  14   34.90    6.80
  -2   5 -14   42.20    8.60
  -2  -6  14  103.09   10.40
  -2   6  14   88.29    9.10
  -2   6  14  121.59    9.50
  -1  -6  14   52.99    7.80
  -1  -6  14   60.19    9.10
  -1   6  14   57.29    8.10
   1   6 -14   66.49    8.30
  -1   6  14   66.69    8.40
   1   6 -14   66.89   11.30
  -1   6  14   55.79   13.70
   0  -6 -14  371.06   29.30
   0  -6 -14  375.56   29.50
   0  -6  14  394.16   29.70
   0  -6  14  399.06   28.90
   0   6 -14  420.56   29.80
   0   6  14  447.46   29.50
   0   6  14  369.46   30.30
   0   6 -14  412.66   32.80
   0   6 -14  425.16   29.20
   0   6  14  421.96   29.30
   0   6  14  379.56   30.10
  -1  -6 -14    2.90    7.60
  -1  -6 -14   16.70    9.30
  -1  -6 -14   -0.10    5.00
   1  -6  14   -0.80    4.20
   1  -6  14    1.90    5.10
   1   6  14   -4.40    6.50
  -1   6 -14    0.80    5.60
   1   6  14   -1.40    5.70
  -1   6 -14   -4.40    5.10
   1   6  14    2.30    4.80
   2   6  14   77.79   10.10
   2   6  14   77.59    8.00
  -2   6 -14   83.99   11.10
  -2   6 -14   90.99   10.30
  -2  -7  14  172.28   12.80
  -2  -7  14  161.08   16.60
   2  -7 -14  151.98   11.70
  -2   7  14  145.89   12.30
  -2   7  14  158.08   12.30
  -1  -7  14  177.38   15.10
  -1  -7  14  175.78   14.50
  -1   7  14  182.98   14.60
   1   7 -14  206.28   18.80
   1   7 -14  206.68   14.90
  -1   7  14  179.08   14.80
  -1   7  14  172.28   14.50
   0  -7  14   76.49    9.60
   0  -7  14   82.09    8.30
   0   7 -14   80.09    9.30
   0   7  14   76.39    9.80
   0   7 -14   64.79   11.70
   0   7  14   96.59    9.00
   0   7  14   68.39    8.70
   0   7 -14  111.99   23.40
   1  -7  14  116.19   11.80
   1  -7  14  146.49   10.60
  -1  -7 -14  125.79   12.60
  -1   7 -14  134.09   12.20
   1   7  14  129.99   11.60
   1   7  14  127.69   11.50
   1   7  14  134.39   12.30
  -1   7 -14  129.39   12.30
  -2  -7 -14   12.10    4.20
   2   7  14    5.00    4.60
   2   7  14   16.40    3.50
  -2  -8  14  109.99    8.80
  -2  -8  14  105.89   11.00
  -2   8  14  109.69    9.10
  -2   8  14   82.49    8.50
  -1  -8  14  138.19   10.80
  -1  -8  14  142.09   11.60
  -1   8  14  108.69   11.10
  -1   8  14  130.39   11.00
  -1   8  14  129.59   11.30
   1   8 -14  155.08   11.40
   0  -8  14  299.17   20.50
   0  -8 -14  266.97   20.90
   0  -8  14  291.77   21.20
   0   8  14  292.57   21.20
   0   8 -14  282.67   21.00
   0   8 -14  291.37   22.70
   0   8  14  281.47   20.70
   0   8  14  272.97   20.90
  -1  -8 -14    1.40    4.10
   1  -8  14    1.10    3.40
   1  -8  14    0.80    4.30
  -1   8 -14   -2.70    5.00
  -1   8 -14   -1.00    4.90
   1   8  14    2.00    3.90
   1   8  14   -1.20    3.50
   1   8  14   -3.30    4.80
  -1  -9  14   73.29    6.10
   1  -9 -14   64.29    6.30
  -1  -9  14   77.19    7.30
  -1   9  14   61.89    6.80
  -1   9  14   64.79    6.40
   0  -9  14    8.00    3.00
   0  -9  14   10.00    2.60
   0  -9 -14    4.40    3.00
   0   9  14    8.80    4.40
   0   9  14    7.70    4.90
   0   9  14   11.20    3.50
   0   9 -14   12.90    3.60
  -1  -9 -14   59.29    6.90
   1   9  14   63.79    6.90
   1   9  14   54.59    7.70
   1   9  14   66.09    6.30
  -1   9 -14   66.19    7.20
   0 -10 -14   18.20    3.70
   0 -10  14   26.30    4.20
   0 -10  14   21.70    3.30
   0  10 -14   28.50    4.30
   0  10  14   21.30    3.90
   0  10  14   29.70    4.10
  -2   0  15   -6.40    8.30
  -2   0  15    4.20    4.60
   1   0 -15   19.80    8.20
  -1   0  15    3.10    4.80
   1   0 -15   -6.40    5.90
  -1   0  15   -1.00    6.60
  -1   0  15   -1.90    5.90
   0   0  15   -3.20    5.10
   0   0  15   11.00    5.40
   0   0 -15   -2.90    7.90
   0   0 -15    9.30    5.90
   0   0  15    2.00    5.80
  -1   0 -15   -6.30    5.30
  -1   0 -15    2.40    7.70
   1   0  15    3.40    5.00
  -1   0 -15   -0.20   12.00
   1   0  15   -4.70    6.30
  -2   0 -15    8.00    6.70
  -2   0 -15    2.40    4.50
   2   0  15    1.60    5.00
  -2  -1  15   10.80    5.50
  -2   1  15   14.80    5.20
  -2   1  15    8.90    6.80
  -1  -1  15  124.89   13.30
  -1  -1  15  145.49   14.00
  -1  -1  15  161.28   13.40
   1  -1 -15  183.18   15.90
   1  -1 -15  121.79   14.20
  -1   1  15  146.89   13.30
   1   1 -15  146.09   13.20
   1   1 -15  173.48   16.30
  -1   1  15  137.29   14.30
  -1   1  15  145.89   15.00
   0  -1 -15  100.39   13.70
   0  -1  15   97.69   10.50
   0  -1  15   98.29   10.30
   0  -1  15   97.09   11.10
   0  -1 -15   83.39   10.60
   0   1 -15   99.09   10.30
   0   1  15   91.69   10.60
   0   1  15  109.29   11.60
   0   1  15  103.99   11.30
   0   1 -15   91.59   13.70
   1  -1  15    8.10    4.70
  -1  -1 -15   33.00   12.60
   1  -1  15   17.60    6.80
  -1  -1 -15   14.70    8.40
  -1  -1 -15    6.80    6.00
  -1   1 -15   31.00   13.30
   1   1  15   15.30    5.10
  -1   1 -15   23.80    7.50
  -1   1 -15   18.30    5.50
   1   1  15   12.40    6.40
   2  -1  15   52.79    8.20
  -2  -1 -15   57.39   10.00
   2   1  15   47.70    8.40
  -2  -2  15  204.48   20.20
  -2  -2  15  221.48   17.80
  -2   2  15  233.88   17.70
  -2   2  15  268.47   18.20
  -1  -2  15   73.49    9.60
  -1  -2  15   60.19    9.20
   1  -2 -15   69.99   14.60
  -1  -2  15   77.99    9.50
  -1   2  15   75.89    8.70
  -1   2  15   74.99   13.10
   1   2 -15   69.49   13.30
  -1   2  15   55.49   11.40
   1   2 -15   58.19    9.30
   0  -2 -15   64.49   12.40
   0  -2  15   55.99   10.80
   0  -2  15   58.49    8.60
   0  -2 -15   42.70    9.00
   0  -2  15   60.09    9.80
   0   2  15   60.59    9.20
   0   2 -15   65.49    8.30
   0   2  15   73.99    9.10
   0   2 -15   62.09    9.90
   0   2 -15   64.79   15.10
   0   2  15   54.79    9.30
   1  -2  15  118.99   11.10
  -1  -2 -15  106.69   18.10
   1  -2  15   83.09   12.50
  -1  -2 -15  111.79   10.30
   1   2  15  100.69   11.00
  -1   2 -15  110.99   12.60
  -1   2 -15  103.79   16.30
  -1   2 -15  121.29   11.40
   1   2  15  122.09   12.50
  -2  -2 -15   11.70    4.80
  -2  -2 -15    8.70    8.30
   2   2  15    8.50    5.10
  -2   2 -15    5.50    6.20
  -2  -3  15   18.80    6.50
  -2  -3  15    8.80    4.20
  -2   3  15    5.30    3.60
  -1  -3  15  538.75   37.90
  -1  -3  15  505.95   37.40
  -1  -3  15  517.85   37.70
  -1   3  15  564.14   39.40
  -1   3  15  468.85   38.30
   1   3 -15  490.45   37.40
  -1   3  15  576.74   37.80
   1   3 -15  587.24   38.90
   0  -3  15  212.98   18.90
   0  -3 -15  226.98   17.30
   0  -3  15  224.38   17.30
   0  -3  15  201.58   17.90
   0  -3 -15  247.68   19.50
   0   3 -15  187.98   20.40
   0   3  15  218.68   19.70
   0   3 -15  216.28   17.30
   0   3  15  231.38   18.40
   0   3  15  211.38   17.90
   0   3  15  244.38   17.80
   0   3 -15  198.48   20.40
  -1  -3 -15  131.69   17.60
   1  -3  15   98.49   10.40
   1  -3  15   92.59   13.90
  -1  -3 -15  108.29   10.40
  -1   3 -15   88.59   10.80
   1   3  15  104.09   11.70
  -1   3 -15  107.69   11.60
   1   3  15   93.89   10.50
  -2  -3 -15   97.89   10.00
   2   3  15  114.59   10.80
  -2   3 -15  107.29   10.90
  -2   3 -15  129.29   11.60
  -2  -4  15  300.07   21.80
  -2  -4  15  285.57   22.50
  -2   4  15  289.57   21.60
  -2   4  15  330.97   22.10
  -1  -4  15   89.49   11.40
  -1  -4  15  112.39   10.20
  -1  -4  15   78.99   10.20
  -1   4  15  115.29   12.60
   1   4 -15   98.29   10.20
  -1   4  15  102.59   15.40
  -1   4  15   99.99    9.90
   1   4 -15   73.79   13.80
   0  -4  15  241.58   18.30
   0  -4  15  252.67   24.20
   0  -4 -15  211.58   18.80
   0  -4 -15  243.88   20.00
   0  -4  15  233.78   19.30
   0   4  15  236.98   18.50
   0   4 -15  234.28   21.60
   0   4  15  214.68   19.50
   0   4 -15  231.58   20.70
   0   4 -15  250.07   18.50
   0   4  15  243.38   19.60
   0   4  15  250.07   19.90
  -1  -4 -15  195.88   17.20
  -1  -4 -15  228.38   21.50
   1  -4  15  216.18   17.20
  -1   4 -15  237.88   17.60
   1   4  15  224.28   17.80
   1   4  15  220.88   17.30
  -1   4 -15  233.38   18.00
  -2  -4 -15   -0.20    3.90
  -2   4 -15   -5.50    6.00
   2   4  15   -2.20    3.80
  -2  -5  15   23.60    7.60
  -2  -5  15   16.90    4.60
  -2   5  15   15.50    3.40
  -2   5  15   26.90    5.10
  -1  -5  15  185.38   16.30
  -1  -5  15  190.28   14.90
  -1   5  15  180.58   14.60
  -1   5  15  159.48   16.70
   1   5 -15  205.68   17.30
   1   5 -15  189.28   14.90
   0  -5  15  182.98   15.20
   0  -5 -15  157.78   16.90
   0  -5 -15  160.98   15.30
   0  -5  15  174.68   14.50
   0   5 -15  178.08   14.90
   0   5 -15  175.68   17.70
   0   5  15  174.08   15.10
   0   5  15  179.98   14.60
   0   5 -15  203.78   20.40
   0   5  15  169.18   17.20
   0   5  15  189.48   14.90
   0   5  15  180.68   15.10
   1  -5  15   80.79    8.70
  -1  -5 -15   74.79    9.10
  -1  -5 -15   85.89   11.90
  -1  -5 -15   60.39   11.00
   1   5  15   86.59   10.80
   1   5  15   83.69   14.00
   1   5  15   80.99    9.00
  -1   5 -15   99.19   10.80
  -1   5 -15   82.19    9.40
  -2  -5 -15   61.29    8.30
   2   5  15   68.69    6.90
  -2   5 -15   71.79    9.10
  -2   5 -15   68.79    9.40
   2  -6 -15   57.69    5.70
  -2  -6  15   48.60    7.00
  -2   6  15   69.09    7.40
  -2   6  15   64.99    6.20
  -1  -6  15   21.70    5.60
  -1  -6  15   20.00    4.10
  -1   6  15   29.50    5.60
   1   6 -15   34.70    5.40
  -1   6  15   29.80    8.20
   0  -6  15  123.19   12.50
   0  -6  15  142.39   12.00
   0   6  15  162.68   12.90
   0   6 -15  154.98   16.70
   0   6 -15  144.69   12.40
   0   6  15  138.49   12.10
   0   6  15  149.59   12.30
   0   6  15  146.29   19.80
  -1  -6 -15   39.00    7.10
   1  -6  15   42.80    5.60
  -1   6 -15   37.20    5.90
   1   6  15   41.50    7.40
   1   6  15   30.90    5.80
   1   6  15   68.39   12.40
   1  -7 -15    4.90    3.00
  -1  -7  15   12.00    3.20
  -1  -7  15    9.60    4.80
  -1   7  15    7.30    4.20
   1   7 -15   13.30    4.10
  -1   7  15   16.80    3.90
  -1   7  15    6.60    3.30
   0  -7  15   12.00    3.40
   0  -7  15    4.10    3.60
   0   7  15    4.30    3.90
   0   7  15    8.00    5.00
   0   7 -15    9.10    4.50
   0   7  15   13.50    4.00
   0   7 -15   10.50   11.20
   1  -7  15    5.50    2.80
  -1  -7 -15   -0.70    4.30
   1   7  15    6.10    3.40
  -1   7 -15    4.30    4.50
  -1   7 -15    6.00    6.50
   1   7  15    2.00    4.00
  -1  -8  15    9.20    2.60
  -1  -8  15    6.10    4.00
  -1   8  15    9.70    3.30
  -1   8  15    9.00    4.10
  -1   8  15   10.50    3.70
   1   8 -15   11.50    3.90
   0  -8  15    3.40    2.50
   0  -8 -15    4.10    3.20
   0  -8  15    7.40    3.70
   0   8  15    0.10    3.20
   0   8  15    4.40    3.40
   0   8  15   -0.70    3.90
   0   8 -15    1.50    3.50
  -1  -8 -15   40.10    6.00
  -1   8 -15   47.60    5.70
  -1   8 -15   42.10    9.30
   1   8  15   40.00    5.70
   0  -9  15   30.90    4.70
   0  -9  15   34.80    3.60
   0  -9 -15   25.10    4.10
   0   9  15   24.20    4.70
   0   9 -15   27.50    4.60
  -2   0  16   61.89    6.30
   1   0 -16  462.85   32.30
  -1   0  16  482.45   32.50
  -1   0  16  460.35   32.70
  -1   0  16  404.76   32.70
   0   0 -16   47.00   10.50
   0   0 -16   26.80    5.90
   0   0  16   39.90    7.00
   0   0  16   41.70    8.00
  -1   0 -16  123.79   18.20
  -1   0 -16   92.69    9.50
   1   0  16   92.29   10.20
   1   0  16   81.79    9.10
   2   0  16   47.00    7.20
  -2   0 -16   67.49    6.60
  -2  -1  16  179.98   13.90
  -2   1  16  190.68   14.00
  -1  -1  16    7.90    6.50
  -1  -1  16   10.20    5.30
   1  -1 -16    9.10   12.70
  -1  -1  16    2.40    4.60
  -1   1  16    8.70    7.20
   1   1 -16    2.60    5.70
  -1   1  16   -5.30    6.50
  -1   1  16    5.30    4.80
   0  -1  16  468.35   33.40
   0  -1 -16  520.25   35.30
   0  -1 -16  451.15   33.10
   0  -1  16  463.35   33.60
   0   1  16  449.16   33.30
   0   1 -16  444.76   33.20
   0   1  16  500.45   33.80
   0   1 -16  484.45   35.50
   0   1  16  420.66   33.50
   1  -1  16   71.49    8.00
   1  -1  16   62.39    8.60
  -1  -1 -16   60.49    8.20
  -1   1 -16   77.29    8.40
   1   1  16   70.79    8.10
   1   1  16   61.69    9.20
  -1   1 -16   56.69   12.10
  -2  -1 -16   57.69    7.00
   2  -1  16   37.30    9.00
  -2   1 -16   67.59    7.10
   2   1  16   47.80    6.70
  -2   1 -16   71.09   11.00
  -2  -2  16    3.80    3.30
  -2   2  16    9.40    3.10
  -1  -2  16  247.88   18.60
  -1  -2  16  220.18   18.30
  -1  -2  16  286.57   22.10
  -1   2  16  202.78   19.40
   1   2 -16  233.38   18.50
  -1   2  16  252.57   18.50
  -1   2  16  271.47   21.10
   0  -2 -16   10.40    9.80
   0  -2  16   12.30    4.50
   0  -2 -16   19.70    5.80
   0  -2  16   11.00    5.30
   0   2  16    4.90    4.20
   0   2 -16    7.00    9.70
   0   2  16   17.90    7.60
   0   2  16    4.30    5.00
   0   2 -16   11.00    5.10
   1  -2  16   72.29    9.50
  -1  -2 -16   80.59    8.50
   1  -2  16   74.79    8.20
   1   2  16   83.39    9.40
  -1   2 -16   69.69    8.70
  -1   2 -16   92.29   12.50
   1   2  16   73.39    8.20
  -2  -2 -16   23.30    4.50
   2   2  16   42.70    9.50
  -2   2 -16   35.30    6.40
   2   2  16   32.10    6.20
  -2  -3  16   37.00    5.10
  -2  -3  16   44.20    9.00
  -2   3  16   34.50    4.50
  -1  -3  16   -7.50    4.20
  -1  -3  16    1.20    3.90
   1   3 -16    3.00    4.60
  -1   3  16   -5.70    7.90
  -1   3  16    2.50    3.70
   0  -3 -16   -6.90   12.10
   0  -3 -16    9.80    5.40
   0  -3  16    4.60    5.10
   0  -3  16    6.60    3.90
   0   3 -16    5.80    4.40
   0   3 -16    7.20   12.90
   0   3  16   14.70    8.80
   0   3  16    5.60    3.90
   0   3  16   10.80    6.40
   0   3  16    6.70    5.80
  -1  -3 -16   24.00    4.90
   1  -3  16   28.70    5.80
   1   3  16   28.80    5.70
  -1   3 -16   28.60    5.50
  -1   3 -16   41.60    9.00
   1   3  16   34.50    6.90
  -2  -3 -16   14.60    3.30
  -2  -3 -16   19.50    4.70
   2   3  16   14.30    3.80
  -2   3 -16   18.60    5.20
  -2  -4  16   -0.90    3.30
  -2  -4  16   -1.50    4.10
  -2   4  16    2.50    2.40
  -1  -4  16    3.20    4.30
  -1  -4  16   -2.50    3.50
  -1   4  16    2.60    2.80
   1   4 -16    5.80    4.40
   0  -4 -16   23.40    6.20
   0  -4  16   38.10    6.30
   0   4 -16   37.40    6.60
   0   4  16   32.40    6.50
   0   4  16   35.20    6.40
   0   4  16   35.60    6.10
   1  -4  16    1.40    3.50
  -1  -4 -16    4.50    6.90
  -1  -4 -16   -1.60    4.20
   1   4  16    3.50    3.80
  -1   4 -16   -4.10    4.40
  -1   4 -16   -8.70    8.20
  -1  -5  16    2.50    3.10
   1   5 -16   -1.10    4.20
  -1   5  16    8.00    4.40
  -1   5  16    1.50    2.70
   0  -5  16   53.89    6.60
   0   5  16   47.60    7.40
   0   5 -16   48.00    6.90
   0   5  16   60.59    7.60
   0   5  16   50.59    6.30
  -1  -5 -16   14.90    6.20
  -1  -5 -16   14.60    4.20
   1  -5  16   11.30    3.20
  -1   5 -16    9.80    8.40
   1   5  16    9.80    3.50
  -1   5 -16    9.40    4.00
  -1  -6  16  138.49   19.90
  -1  -6  16  189.78   13.60
  -1   6  16  178.38   13.50
   1   6 -16  200.08   14.00
  -1   6  16  173.08   13.50
  -1   6  16  179.18   13.40
   0  -6  16   19.70    3.60
   0   6  16   30.80    5.70
   0   6  16   22.40    5.00
   0   6  16   32.10    6.30
   0   6 -16   29.00    4.90
   1  -6  16   88.79    7.40
  -1  -6 -16   93.59    9.30
  -1   6 -16  100.29    8.50
   1   6  16   92.29    7.90
  -1   6 -16   89.89   13.00
   1  -7 -16    2.30    2.70
  -1  -7  16    1.40    2.20
   1   7 -16    0.10    3.70
  -1   7  16    5.10    2.80
  -1   7  16    2.30    3.10
   0  -7  16  124.79    8.90
   0  -7  16  109.29    9.70
   0   7  16  115.19    9.20
   0   7 -16  113.49    9.60
   0   7  16  121.29    9.60
   0   7  16   98.89    9.20
  -1   0  17    3.50    3.30
  -1   0  17   -2.00    4.50
   0   0 -17    4.60    4.40
   0   0  17   -2.30    3.70
   0   0  17    1.20    3.90
  -1   0 -17   -1.50    3.90
   1   0  17    1.30    3.00
   1   0  17    0.20    3.90
  -1  -1  17   46.00    6.00
  -1  -1  17   49.00    7.50
   1   1 -17   54.99    8.80
  -1   1  17   60.49    8.00
  -1   1  17   53.69    6.00
   0  -1  17    9.30    3.80
   0  -1 -17    6.60    4.40
   0  -1  17    7.50    4.00
   0   1  17    4.50    8.80
   0   1  17    5.00    3.90
   0   1  17    1.60    4.20
   0   1 -17    9.50    3.90
  -1  -1 -17   44.30    6.00
   1  -1  17   43.50    5.80
   1  -1  17   45.90    6.80
  -1   1 -17   42.60    5.70
   1   1  17   39.40    5.40
   1   1  17   42.30    6.50
  -1  -2  17   26.10    4.80
  -1   2  17   22.90    4.60
  -1   2  17   12.90    6.00
   0  -2  17  167.28   13.50
   0  -2  17  172.68   13.80
   0  -2 -17  163.88   14.00
   0   2  17  182.18   15.10
   0   2  17  188.18   13.90
   0   2  17  175.28   14.10
   0   2 -17  188.78   13.80
   1  -2  17   11.00    3.40
  -1  -2 -17   14.70    4.00
   1   2  17   11.50    4.00
   1   2  17    7.30    2.80
  -1  -3  17  139.89   12.00
  -1  -3  17  156.68   12.30
  -1   3  17  146.29   14.40
  -1   3  17  164.78   12.00
   1   3 -17  166.18   12.30
   0  -3  17    7.10    3.40
   0  -3  17    0.90    8.20
   0  -3 -17    3.20    4.70
   0   3  17    8.10    5.30
   0   3  17   13.60    3.80
   0   3  17    6.50    3.60
   0   3 -17    6.80    3.60
  -1  -3 -17  120.69   19.20
   1  -3  17  126.49   10.60
  -1  -3 -17  121.29   10.70
  -1   3 -17  145.59   10.90
   1   3  17  149.88   11.10
  -1   4  17   22.80    4.30
  -1   4  17   35.10    4.90
   1   4 -17   37.40    6.60
  -1   4  17   33.80    5.30
   0  -4 -17  255.87   20.50
   0  -4  17  279.77   19.20
   0   4  17  261.57   19.50
   0   4  17  250.17   19.30
   0   4 -17  275.97   19.40
  -1  -4 -17  -12.10    7.50
   1  -4  17   -1.40    2.70
  -1  -4 -17    7.60    3.50
  -1   4 -17    4.80    3.50
   1   4  17    9.80    3.50
  -1  -5  17  134.39   10.20
  -1   5  17  115.19   10.30
   1   5 -17  141.69   10.60
  -1   5  17  123.69   10.10
  -1   5  17  129.19    9.90
   0  -5 -17    4.20    3.40
   0  -5  17   -4.70    2.70
   0   5  17   11.00    4.60
   0   5 -17   -0.20    3.30
   0   5  17    0.80    2.70
  -1   0  18   29.10    4.70
  -1   0  18   41.20    4.80
   0   0 -18   34.90    5.80
   0   0  18   33.50    4.90
   0   0  18   30.10    4.70
   0  -1  18  103.19    9.30
   0  -1 -18   98.19    9.50
   0  -1  18  125.89    9.30
   0   1  18  115.29    9.40
   0   1  18  112.89    9.30
   0   1 -18  131.09    9.50
   0  -2  18   22.20    5.40
   0  -2  18   24.00    4.20
   0  -2 -18   12.90    5.50
   0   2  18   24.10    4.50
   0   2  18   27.60    4.40
   0   2 -18   29.80    4.90
_computing_structure_solution     'SHELXT 2014/4 (Sheldrick, 2014)'
;
_shelx_hkl_checksum              24404
_shelx_res_file
;
TITL UMD641_a.res in P2(1)/c
REM Old TITL UMD641 in P2(1)/c
REM SHELXT solution in P2(1)/c
REM R1 0.111, Rweak 0.007, Alpha 0.025, Orientation as input
REM Formula found by SHELXT: C8 N O2 I
CELL 1.54178 4.0896 13.2139 15.1946 90 92.325 90
ZERR 4 0.0003 0.001 0.0011 0 0.004 0
LATT 1
SYMM -X,0.5+Y,0.5-Z
SFAC C H I N O
UNIT 32 16 4 4 8
EQIV $1 1-X,1-Y,1-Z
DFIX 0.87 0.005 N1 H1
L.S. 10
PLAN  20
SIZE 0.08 0.1 0.2
TEMP 22.7
HTAB N1 O1_$1
CONF
BOND $H
LIST 6
HTAB 2
MORE -1
fmap 2
acta 136.5
REM <olex2.extras>
REM <HklSrc "%.\\UMD641_a.hkl">
REM </olex2.extras>
WGHT    0.019700    2.031400
FVAR       0.49716
I1    3    0.197853    0.183360    0.574564    11.00000    0.05813    0.05746 =
         0.04578    0.00592    0.01231   -0.00171
O1    5    0.742958    0.522578    0.404505    11.00000    0.13822    0.04131 =
         0.06508   -0.00210    0.03991   -0.00668
O2    5    0.963916    0.399894    0.258971    11.00000    0.11096    0.05128 =
         0.05618    0.00718    0.03581    0.00228
N1    4    0.537827    0.369521    0.449240    11.00000    0.08540    0.04002 =
         0.03452   -0.00013    0.01738    0.00444
C1    1    0.693646    0.433030    0.395374    11.00000    0.09244    0.04029 =
         0.04451    0.00016    0.01541    0.00006
C2    1    0.803016    0.367853    0.316733    11.00000    0.07646    0.04621 =
         0.03551    0.00855    0.01006    0.01012
C3    1    0.675459    0.268088    0.333664    11.00000    0.05526    0.04473 =
         0.03563    0.00280    0.00499    0.00788
C4    1    0.691005    0.177900    0.285192    11.00000    0.08365    0.05002 =
         0.04008   -0.00225    0.00817    0.00910
AFIX  43
H4    2    0.790301    0.176039    0.231226    11.00000   -1.20000
AFIX   0
C5    1    0.555010    0.092531    0.319960    11.00000    0.08348    0.04598 =
         0.05555   -0.01328    0.00083   -0.00070
AFIX  43
H5    2    0.562160    0.031821    0.289134    11.00000   -1.20000
AFIX   0
C6    1    0.406896    0.095649    0.400565    11.00000    0.06789    0.04447 =
         0.05390   -0.00248   -0.00108   -0.00561
AFIX  43
H6    2    0.313846    0.037039    0.422398    11.00000   -1.20000
AFIX   0
C7    1    0.394705    0.184837    0.449496    11.00000    0.04717    0.04495 =
         0.03982    0.00527    0.00514    0.00312
C8    1    0.524204    0.270885    0.414247    11.00000    0.05305    0.04248 =
         0.03366    0.00158    0.00455    0.00342
H1    2    0.462858    0.387366    0.499655    11.00000    0.04647
HKLF 4
REM  UMD641_a.res in P2(1)/c
REM R1 =  0.0336 for    1321 Fo > 4sig(Fo)  and  0.0398 for all    1479 data
REM    113 parameters refined using      1 restraints
END
WGHT      0.0197      2.0314
REM Instructions for potential hydrogen bonds
HTAB N1 O1_$1
REM Highest difference peak  0.479,  deepest hole -0.492,  1-sigma level  0.099
Q1    1   0.4463  0.1924  0.5894  11.00000  0.05    0.48
Q2    1   0.2736  0.2941  0.5858  11.00000  0.05    0.40
Q3    1   0.1716  0.2454  0.5695  11.00000  0.05    0.38
Q4    1  -0.0644  0.1855  0.5718  11.00000  0.05    0.38
Q5    1   0.2341  0.2828  0.6003  11.00000  0.05    0.37
Q6    1   0.1629  0.1685  0.5215  11.00000  0.05    0.37
Q7    1   0.2022  0.0788  0.5613  11.00000  0.05    0.36
Q8    1   0.6020 -0.0632  0.2538  11.00000  0.05    0.31
Q9    1   0.4289 -0.0990  0.3509  11.00000  0.05    0.31
Q10   1   0.5701  0.3276  0.6019  11.00000  0.05    0.27
Q11   1   0.3905  0.1686  0.7014  11.00000  0.05    0.27
Q12   1   0.7713  0.3551  0.4706  11.00000  0.05    0.27
Q13   1   0.7594 -0.0130  0.4174  11.00000  0.05    0.25
Q14   1   0.1707  0.0391  0.4273  11.00000  0.05    0.25
Q15   1   0.3508  0.2005  0.1783  11.00000  0.05    0.24
Q16   1   0.3755 -0.0011  0.4708  11.00000  0.05    0.24
Q17   1   0.4817  0.2508  0.1970  11.00000  0.05    0.23
Q18   1   1.2924  0.3172  0.2696  11.00000  0.05    0.23
Q19   1   0.0917  0.1004  0.4863  11.00000  0.05    0.23
Q20   1  -0.0492  0.1983  0.4512  11.00000  0.05    0.23
;
_shelx_res_checksum              27961
_shelxl_version_number           2014/6
loop_
_space_group_symop_operation_xyz
'x, y, z'
'-x, y+1/2, -z+1/2'
'-x, -y, -z'
'x, -y-1/2, z-1/2'
loop_
_atom_site_type_symbol
_atom_site_label
_atom_site_fract_x
_atom_site_fract_y
_atom_site_fract_z
_atom_site_U_iso_or_equiv
_atom_site_adp_type
_atom_site_calc_flag
_atom_site_occupancy
I I1 0.19785(10) 0.18336(3) 0.57456(2) 0.05351(16) Uani d 1
O O1 0.7430(14) 0.5226(3) 0.4045(3) 0.0806(16) Uani d 1
O O2 0.9639(13) 0.3999(3) 0.2590(3) 0.0719(14) Uani d 1
N N1 0.5378(14) 0.3695(3) 0.4492(3) 0.0529(12) Uani d 1
C C1 0.6936(17) 0.4330(4) 0.3954(4) 0.0587(16) Uani d 1
C C2 0.8030(16) 0.3679(4) 0.3167(3) 0.0525(14) Uani d 1
C C3 0.6755(14) 0.2681(4) 0.3337(3) 0.0451(12) Uani d 1
C C4 0.6910(18) 0.1779(4) 0.2852(4) 0.0578(16) Uani d 1
H H4 0.7903 0.1760 0.2312 0.069 Uiso calc 1
C C5 0.5550(17) 0.0925(4) 0.3200(4) 0.0617(16) Uani d 1
H H5 0.5622 0.0318 0.2891 0.074 Uiso calc 1
C C6 0.4069(16) 0.0956(4) 0.4006(4) 0.0555(14) Uani d 1
H H6 0.3138 0.0370 0.4224 0.067 Uiso calc 1
C C7 0.3947(14) 0.1848(4) 0.4495(3) 0.0439(11) Uani d 1
C C8 0.5242(14) 0.2709(4) 0.4142(3) 0.0430(12) Uani d 1
H H1 0.463(13) 0.387(4) 0.4997(18) 0.046(15) Uiso d 1
loop_
_atom_site_aniso_label
_atom_site_aniso_U_11
_atom_site_aniso_U_22
_atom_site_aniso_U_33
_atom_site_aniso_U_12
_atom_site_aniso_U_13
_atom_site_aniso_U_23
I1 0.0581(3) 0.0575(2) 0.0458(2) -0.00171(17) 0.01231(16) 0.00592(15)
O1 0.138(5) 0.041(2) 0.065(3) -0.007(2) 0.040(3) -0.0021(18)
O2 0.111(4) 0.051(2) 0.056(2) 0.002(2) 0.036(3) 0.0072(18)
N1 0.085(4) 0.040(2) 0.035(2) 0.004(2) 0.017(2) -0.0001(18)
C1 0.092(5) 0.040(3) 0.045(3) 0.000(3) 0.015(3) 0.000(2)
C2 0.076(4) 0.046(3) 0.036(3) 0.010(3) 0.010(3) 0.009(2)
C3 0.055(4) 0.045(3) 0.036(2) 0.008(2) 0.005(2) 0.003(2)
C4 0.084(5) 0.050(3) 0.040(3) 0.009(3) 0.008(3) -0.002(2)
C5 0.083(5) 0.046(3) 0.056(3) -0.001(3) 0.001(3) -0.013(3)
C6 0.068(4) 0.044(3) 0.054(3) -0.006(3) -0.001(3) -0.002(2)
C7 0.047(3) 0.045(3) 0.040(2) 0.003(2) 0.005(2) 0.005(2)
C8 0.053(3) 0.042(3) 0.034(2) 0.003(2) 0.005(2) 0.002(2)
loop_
_atom_type_symbol
_atom_type_description
_atom_type_scat_dispersion_real
_atom_type_scat_dispersion_imag
_atom_type_scat_source
C C 0.0181 0.0091 'International Tables Vol C Tables 4.2.6.8 and 6.1.1.4'
H H 0.0000 0.0000 'International Tables Vol C Tables 4.2.6.8 and 6.1.1.4'
I I -0.3257 6.8362 'International Tables Vol C Tables 4.2.6.8 and 6.1.1.4'
N N 0.0311 0.0180 'International Tables Vol C Tables 4.2.6.8 and 6.1.1.4'
O O 0.0492 0.0322 'International Tables Vol C Tables 4.2.6.8 and 6.1.1.4'
loop_
_geom_angle_atom_site_label_1
_geom_angle_atom_site_label_2
_geom_angle_atom_site_label_3
_geom_angle
C1 N1 C8 111.0(4)
C1 N1 H1 124(4)
C8 N1 H1 125(4)
O1 C1 N1 128.3(5)
O1 C1 C2 125.4(5)
N1 C1 C2 106.2(4)
O2 C2 C1 123.5(5)
O2 C2 C3 131.9(5)
C3 C2 C1 104.6(4)
C4 C3 C2 131.1(5)
C8 C3 C2 108.0(4)
C8 C3 C4 121.0(5)
C3 C4 H4 121.0
C5 C4 C3 117.9(5)
C5 C4 H4 121.0
C4 C5 H5 119.6
C4 C5 C6 120.9(5)
C6 C5 H5 119.6
C5 C6 H6 119.3
C5 C6 C7 121.4(5)
C7 C6 H6 119.3
C6 C7 I1 119.9(4)
C8 C7 I1 122.0(4)
C8 C7 C6 118.0(5)
C3 C8 N1 110.1(4)
C7 C8 N1 129.0(4)
C7 C8 C3 120.8(5)
loop_
_geom_bond_atom_site_label_1
_geom_bond_atom_site_label_2
_geom_bond_distance
I1 C7 2.094(5)
O1 C1 1.207(7)
O2 C2 1.196(6)
N1 C1 1.350(7)
N1 C8 1.408(6)
N1 H1 0.869(5)
C1 C2 1.553(7)
C2 C3 1.445(8)
C3 C4 1.404(7)
C3 C8 1.395(7)
C4 H4 0.9300
C4 C5 1.373(8)
C5 H5 0.9300
C5 C6 1.389(8)
C6 H6 0.9300
C6 C7 1.395(7)
C7 C8 1.372(7)
loop_
_geom_hbond_atom_site_label_D
_geom_hbond_atom_site_label_H
_geom_hbond_atom_site_label_A
_geom_hbond_site_symmetry_A
_geom_hbond_distance_DH
_geom_hbond_distance_HA
_geom_hbond_distance_DA
_geom_hbond_angle_DHA
N1 H1 O1 3_666 0.869(5) 2.08(2) 2.915(6) 160(5)
loop_
_geom_torsion_atom_site_label_1
_geom_torsion_atom_site_label_2
_geom_torsion_atom_site_label_3
_geom_torsion_atom_site_label_4
_geom_torsion
I1 C7 C8 N1 -3.2(9)
I1 C7 C8 C3 175.2(4)
O1 C1 C2 O2 4.0(11)
O1 C1 C2 C3 -177.5(7)
O2 C2 C3 C4 -2.8(12)
O2 C2 C3 C8 175.5(7)
N1 C1 C2 O2 -175.9(6)
N1 C1 C2 C3 2.7(7)
C1 N1 C8 C3 -0.2(7)
C1 N1 C8 C7 178.3(6)
C1 C2 C3 C4 178.9(7)
C1 C2 C3 C8 -2.8(6)
C2 C3 C4 C5 177.6(6)
C2 C3 C8 N1 2.1(6)
C2 C3 C8 C7 -176.6(5)
C3 C4 C5 C6 0.0(10)
C4 C3 C8 N1 -179.4(6)
C4 C3 C8 C7 1.9(9)
C4 C5 C6 C7 -0.9(10)
C5 C6 C7 I1 -175.7(5)
C5 C6 C7 C8 2.2(9)
C6 C7 C8 N1 178.9(5)
C6 C7 C8 C3 -2.6(9)
C8 N1 C1 O1 178.6(7)
C8 N1 C1 C2 -1.5(7)
C8 C3 C4 C5 -0.5(10)

_cod_database_fobs_code 1542880
