#------------------------------------------------------------------------------
#$Date: 2016-03-04 11:53:49 +0200 (Fri, 04 Mar 2016) $
#$Revision: 177428 $
#$URL: svn://www.crystallography.net/cod/cif/1/54/23/1542333.cif $
#------------------------------------------------------------------------------
#
# This file is available in the Crystallography Open Database (COD),
# http://www.crystallography.net/
#
# All data on this site have been placed in the public domain by the
# contributors.
#
data_1542333
loop_
_publ_author_name
'Bigler, Raphael'
'Mezzetti, Antonio'
_publ_section_title
;
 Highly Enantioselective Transfer Hydrogenation of Polar Double Bonds by
 Macrocyclic Iron(II)/(NH)2P2Catalysts
;
_journal_issue                   2
_journal_name_full               'Organic Process Research &amp; Development'
_journal_page_first              253
_journal_paper_doi               10.1021/acs.oprd.5b00391
_journal_volume                  20
_journal_year                    2016
_chemical_absolute_configuration syn
_chemical_formula_moiety         'C32 H32 O6 P2'
_chemical_formula_sum            'C32 H32 O6 P2'
_chemical_formula_weight         574.51
_space_group_crystal_system      triclinic
_space_group_IT_number           1
_space_group_name_Hall           'P 1'
_space_group_name_H-M_alt        'P 1'
_symmetry_space_group_name_Hall  'P 1'
_symmetry_space_group_name_H-M   'P 1'
_atom_sites_solution_hydrogens   geom
_audit_creation_method           SHELXL-2014/7
_cell_angle_alpha                104.212(3)
_cell_angle_beta                 98.226(3)
_cell_angle_gamma                96.026(3)
_cell_formula_units_Z            1
_cell_length_a                   8.4358(4)
_cell_length_b                   8.6021(4)
_cell_length_c                   9.8323(4)
_cell_measurement_reflns_used    7724
_cell_measurement_temperature    100(2)
_cell_measurement_theta_max      29.13
_cell_measurement_theta_min      2.47
_cell_volume                     677.20(5)
_computing_structure_refinement  'SHELXL-2014/7 (Sheldrick, 2014)'
_diffrn_ambient_temperature      100(2)
_diffrn_detector                 'Bruker APEX2 area detector'
_diffrn_detector_area_resol_mean 8.33
_diffrn_detector_type            'CCD area detector'
_diffrn_measured_fraction_theta_full 1.000
_diffrn_measured_fraction_theta_max 0.999
_diffrn_measurement_device       'fixed chi three-circle diffractometer'
_diffrn_measurement_device_type  'Bruker SMART Apex2'
_diffrn_measurement_method       '\w and \f scans'
_diffrn_radiation_monochromator  graphite
_diffrn_radiation_probe          x-ray
_diffrn_radiation_type           MoK\a
_diffrn_radiation_wavelength     0.71073
_diffrn_reflns_av_R_equivalents  0.1077
_diffrn_reflns_av_unetI/netI     0.0836
_diffrn_reflns_laue_measured_fraction_full 1.000
_diffrn_reflns_laue_measured_fraction_max 0.999
_diffrn_reflns_limit_h_max       11
_diffrn_reflns_limit_h_min       -11
_diffrn_reflns_limit_k_max       11
_diffrn_reflns_limit_k_min       -11
_diffrn_reflns_limit_l_max       13
_diffrn_reflns_limit_l_min       -13
_diffrn_reflns_number            31764
_diffrn_reflns_point_group_measured_fraction_full 1.000
_diffrn_reflns_point_group_measured_fraction_max 0.999
_diffrn_reflns_theta_full        26.000
_diffrn_reflns_theta_max         29.572
_diffrn_reflns_theta_min         2.170
_diffrn_source                   'sealed tube'
_diffrn_standards_number         0
_exptl_absorpt_coefficient_mu    0.207
_exptl_absorpt_correction_type   none
_exptl_crystal_density_diffrn    1.409
_exptl_crystal_description       block
_exptl_crystal_F_000             302
_exptl_crystal_size_max          0.307
_exptl_crystal_size_mid          0.230
_exptl_crystal_size_min          0.212
_refine_diff_density_max         0.673
_refine_diff_density_min         -0.291
_refine_diff_density_rms         0.072
_refine_ls_abs_structure_details
;
 Flack x determined using 2574 quotients [(I+)-(I-)]/[(I+)+(I-)]
 (Parsons, Flack and Wagner, Acta Cryst. B69 (2013) 249-259).
;
_refine_ls_abs_structure_Flack   -0.02(7)
_refine_ls_extinction_method     none
_refine_ls_goodness_of_fit_ref   0.973
_refine_ls_hydrogen_treatment    constr
_refine_ls_matrix_type           full
_refine_ls_number_parameters     361
_refine_ls_number_reflns         7614
_refine_ls_number_restraints     3
_refine_ls_restrained_S_all      0.973
_refine_ls_R_factor_all          0.0620
_refine_ls_R_factor_gt           0.0509
_refine_ls_shift/su_max          0.000
_refine_ls_shift/su_mean         0.000
_refine_ls_structure_factor_coef Fsqd
_refine_ls_weighting_details
'w=1/[\s^2^(Fo^2^)+(0.0577P)^2^] where P=(Fo^2^+2Fc^2^)/3'
_refine_ls_weighting_scheme      calc
_refine_ls_wR_factor_gt          0.1110
_refine_ls_wR_factor_ref         0.1154
_reflns_Friedel_coverage         1.000
_reflns_friedel_fraction_full    1.000
_reflns_friedel_fraction_max     0.999
_reflns_number_gt                6277
_reflns_number_total             7614
_reflns_threshold_expression     'I > 2\s(I)'
_cod_data_source_file            op5b00391_si_002.cif
_cod_data_source_block           Compound4
_cod_depositor_comments
'Adding full bibliography for 1542332--1542333.cif.'
_cod_database_code               1542333
_shelx_shelxl_version_number     2014/7
_shelx_space_group_comment
;
The symmetry employed for this shelxl refinement is uniquely defined
by the following loop, which should always be used as a source of
symmetry information in preference to the above space-group names.
They are only intended as comments.
;
_shelx_estimated_absorpt_t_min   0.939
_shelx_estimated_absorpt_t_max   0.957
_shelx_res_file
;

    a-copy.res created by SHELXL-2014/7

TITL a_a.res in P1
REM Old TITL a in P1 #1
REM SHELXT solution in P1
REM R1 0.095, Rweak 0.024, Alpha 0.000, Orientation as input
REM Flack x = -0.176 ( 0.440 ) from Parsons' quotients
REM Formula found by SHELXT: C32 O6 P2
CELL 0.71073 8.4358 8.6021 9.8323 104.212 98.226 96.026
ZERR 1 0.0004 0.0004 0.0004 0.003 0.003 0.003
LATT -1
SFAC C H O P
UNIT 32 32 6 2

L.S. 10
PLAN  20
SIZE 0.212 0.23 0.307
TEMP 23
BOND $H
LIST 6
MORE -1
CONF
fmap 2
acta 52
REM <olex2.extras>
REM <HklSrc "%.\\a.hkl">
REM </olex2.extras>

WGHT    0.057700
FVAR       0.97609
P1    4    0.537297    0.336260    0.366297    11.00000    0.01457    0.01392 =
         0.01484    0.00103    0.00393    0.00191
P2    4    0.549373    0.672010    0.787467    11.00000    0.01478    0.01511 =
         0.01606    0.00153    0.00650    0.00203
O1    3    0.428572    0.401971    0.268990    11.00000    0.01966    0.01640 =
         0.02442    0.00620    0.00252    0.00260
O4    3    0.068653    0.005750    0.244761    11.00000    0.01474    0.03542 =
         0.02026    0.00887    0.00493   -0.00067
O3    3    0.174422    0.068905    0.062740    11.00000    0.01928    0.03869 =
         0.01694    0.01047    0.00604    0.00812
O2    3    0.672613    0.605224    0.871532    11.00000    0.01623    0.02012 =
         0.02808    0.00673    0.00612    0.00348
O5    3    0.277807    0.813349    0.621870    11.00000    0.02399    0.03032 =
         0.01626    0.00806    0.00824    0.00888
O6    3    0.039259    0.849087    0.690480    11.00000    0.02048    0.04519 =
         0.02436    0.01145    0.00581    0.01386
C12   1    0.746717    0.403065    0.363785    11.00000    0.01915    0.01574 =
         0.01663   -0.00301    0.00819    0.00044
C32   1    0.545463    0.986491    0.940989    11.00000    0.01741    0.01849 =
         0.01185    0.00333    0.00475    0.00138
AFIX  43
H32   2    0.494367    0.939562    1.001994    11.00000   -1.20000
AFIX   0
C3    1    0.505336    0.116001    0.322673    11.00000    0.02063    0.01230 =
         0.01218    0.00280    0.00536    0.00354
C1    1    0.514451    0.406194    0.550988    11.00000    0.02086    0.01227 =
         0.01882   -0.00021    0.00876    0.00351
AFIX  23
H1A   2    0.406102    0.367038    0.561795    11.00000   -1.20000
H1B   2    0.591135    0.363564    0.610388    11.00000   -1.20000
AFIX   0
C17   1    0.877044    0.394461    0.465481    11.00000    0.01972    0.02363 =
         0.02158   -0.00132    0.00403    0.00302
AFIX  43
H17   2    0.858381    0.351885    0.540986    11.00000   -1.20000
AFIX   0
C30   1    0.657305    1.224336    0.882669    11.00000    0.01778    0.01441 =
         0.01942    0.00154   -0.00040    0.00103
AFIX  43
H30   2    0.679100    1.336653    0.902761    11.00000   -1.20000
AFIX   0
C21   1    0.061335    0.488662    0.894584    11.00000    0.01973    0.03177 =
         0.02383    0.00063    0.01051   -0.00721
AFIX  43
H21   2   -0.034940    0.444612    0.915253    11.00000   -1.20000
AFIX   0
C19   1    0.343569    0.489304    0.890184    11.00000    0.02223    0.02069 =
         0.02298    0.00609    0.00713    0.00309
AFIX  43
H19   2    0.438131    0.446674    0.911182    11.00000   -1.20000
AFIX   0
C31   1    0.577339    1.153442    0.969241    11.00000    0.02261    0.01964 =
         0.01680   -0.00111    0.00444    0.00197
AFIX  43
H31   2    0.544298    1.218229    1.047585    11.00000   -1.20000
AFIX   0
C9    1    0.205085    0.092922    0.212121    11.00000    0.01656    0.01948 =
         0.01471    0.00305    0.00334   -0.00181
AFIX  13
H9    2    0.217524    0.208442    0.261402    11.00000   -1.20000
AFIX   0
C24   1    0.200101    0.829777    0.741274    11.00000    0.01784    0.02805 =
         0.01473    0.00221    0.00536    0.00751
AFIX  13
H24   2    0.252549    0.927090    0.815657    11.00000   -1.20000
AFIX   0
C23   1    0.205261    0.683412    0.798822    11.00000    0.01767    0.02793 =
         0.00763   -0.00156    0.00118    0.00246
C13   1    0.776452    0.474022    0.254643    11.00000    0.02632    0.01990 =
         0.02064   -0.00145    0.00820   -0.00026
AFIX  43
H13   2    0.690734    0.483912    0.187935    11.00000   -1.20000
AFIX   0
C5    1    0.618541   -0.131900    0.321637    11.00000    0.02514    0.02226 =
         0.02149    0.00548    0.00291    0.01041
AFIX  43
H5    2    0.706049   -0.182843    0.346351    11.00000   -1.20000
AFIX   0
C20   1    0.200921    0.424280    0.923426    11.00000    0.03342    0.02564 =
         0.03138    0.00719    0.01359   -0.00451
AFIX  43
H20   2    0.199779    0.337973    0.964818    11.00000   -1.20000
AFIX   0
C4    1    0.634336    0.034445    0.355806    11.00000    0.01763    0.02460 =
         0.01695    0.00427   -0.00137    0.00403
AFIX  43
H4    2    0.733888    0.094561    0.402389    11.00000   -1.20000
AFIX   0
C7    1    0.342259   -0.145475    0.215795    11.00000    0.01957    0.02050 =
         0.01670    0.00253    0.00615   -0.00107
AFIX  43
H7    2    0.243937   -0.206577    0.167056    11.00000   -1.20000
AFIX   0
C27   1    0.590035    0.888107    0.820668    11.00000    0.01229    0.01470 =
         0.01427    0.00147    0.00209    0.00203
C28   1    0.670396    0.960808    0.733744    11.00000    0.01696    0.02355 =
         0.01410    0.00198    0.00512    0.00328
AFIX  43
H28   2    0.700975    0.896762    0.653670    11.00000   -1.20000
AFIX   0
C22   1    0.063468    0.618890    0.834859    11.00000    0.01526    0.03555 =
         0.01623    0.00076    0.00221    0.00128
AFIX  43
H22   2   -0.030806    0.663723    0.818648    11.00000   -1.20000
AFIX   0
C6    1    0.470789   -0.224099    0.249749    11.00000    0.02945    0.01528 =
         0.01807    0.00317    0.00706    0.00314
AFIX  43
H6    2    0.459092   -0.336726    0.225104    11.00000   -1.20000
AFIX   0
C15   1    1.063279    0.514842    0.344834    11.00000    0.02233    0.03045 =
         0.03872   -0.00900    0.01552   -0.00374
AFIX  43
H15   2    1.169132    0.549096    0.337149    11.00000   -1.20000
AFIX   0
C8    1    0.355944    0.021802    0.252389    11.00000    0.01741    0.02143 =
         0.00994    0.00481    0.00493    0.00188
C29   1    0.705529    1.127784    0.765018    11.00000    0.01776    0.02334 =
         0.02149    0.00783    0.00744    0.00316
AFIX  43
H29   2    0.761507    1.175416    0.707180    11.00000   -1.20000
AFIX   0
C2    1    0.544130    0.591866    0.598512    11.00000    0.02358    0.01736 =
         0.01745    0.00304    0.01093    0.00392
AFIX  23
H2A   2    0.459064    0.633035    0.546322    11.00000   -1.20000
H2B   2    0.646225    0.630163    0.574723    11.00000   -1.20000
AFIX   0
C18   1    0.348288    0.616624    0.826257    11.00000    0.01600    0.01856 =
         0.01251   -0.00079    0.00474   -0.00066
C16   1    1.034067    0.449090    0.454380    11.00000    0.01662    0.03073 =
         0.03339   -0.00747    0.00011    0.00219
AFIX  43
H16   2    1.120223    0.441146    0.521602    11.00000   -1.20000
AFIX   0
C26   1    0.224551    0.935634    0.559926    11.00000    0.03436    0.04609 =
         0.02986    0.01741    0.01275    0.01681
AFIX  23
H26A  2    0.222705    0.905729    0.457890    11.00000   -1.20000
H26B  2    0.294439    1.038347    0.602075    11.00000   -1.20000
AFIX   0
C25   1    0.055624    0.945835    0.592695    11.00000    0.03062    0.06533 =
         0.04218    0.02833    0.00984    0.02239
AFIX  23
H25A  2    0.043106    1.057152    0.635408    11.00000   -1.20000
H25B  2   -0.024785    0.903497    0.506667    11.00000   -1.20000
AFIX   0
C10   1    0.004860    0.072459    0.029193    11.00000    0.01696    0.03787 =
         0.02101    0.00481   -0.00009    0.00490
AFIX  23
H10A  2   -0.038263    0.013137   -0.068834    11.00000   -1.20000
H10B  2   -0.018203    0.182944    0.044355    11.00000   -1.20000
AFIX   0
C14   1    0.936008    0.530300    0.245995    11.00000    0.03568    0.02671 =
         0.03231   -0.00044    0.02030   -0.00284
AFIX  43
H14   2    0.956097    0.578005    0.173736    11.00000   -1.20000
AFIX   0
C11   1   -0.064005   -0.008706    0.131360    11.00000    0.01715    0.06576 =
         0.03714    0.02640    0.00025   -0.00097
AFIX  23
H11A  2   -0.151056    0.044801    0.167233    11.00000   -1.20000
H11B  2   -0.105515   -0.121766    0.085151    11.00000   -1.20000
AFIX   0
HKLF 4

REM  a_a.res in P1
REM R1 =  0.0509 for    6277 Fo > 4sig(Fo)  and  0.0620 for all    7614 data
REM    361 parameters refined using      3 restraints

END

WGHT      0.0566      0.0000

REM Highest difference peak  0.673,  deepest hole -0.291,  1-sigma level  0.072
Q1    1   0.5566  0.7760  0.7823  11.00000  0.05    0.67
Q2    1   0.5491  0.2369  0.3820  11.00000  0.05    0.67
Q3    1   0.5679  0.5851  0.8160  11.00000  0.05    0.62
Q4    1   0.5113  0.4194  0.3394  11.00000  0.05    0.61
Q5    1   0.6407  0.3710  0.3623  11.00000  0.05    0.57
Q6    1   0.6454  0.6628  0.8118  11.00000  0.05    0.48
Q7    1   0.4497  0.6374  0.8014  11.00000  0.05    0.45
Q8    1   0.5535  0.0562  0.3439  11.00000  0.05    0.43
Q9    1   0.1938  0.7569  0.7817  11.00000  0.05    0.42
Q10   1   0.4474  0.3604  0.3422  11.00000  0.05    0.40
Q11   1   0.2759  0.0451  0.2396  11.00000  0.05    0.38
Q12   1   0.2784  0.6514  0.8167  11.00000  0.05    0.36
Q13   1   0.5931  0.1201  0.3272  11.00000  0.05    0.36
Q14   1   0.3198  0.5277  0.8320  11.00000  0.05    0.36
Q15   1   0.7664  0.4930  0.3458  11.00000  0.05    0.34
Q16   1   0.9456  0.4543  0.4600  11.00000  0.05    0.34
Q17   1   0.1042  0.5595  0.8777  11.00000  0.05    0.34
Q18   1   0.4702  0.4777  0.2654  11.00000  0.05    0.32
Q19   1   0.1465  0.6543  0.8241  11.00000  0.05    0.31
Q20   1   0.7157  0.5194  0.9085  11.00000  0.05    0.31
;
_shelx_res_checksum              55122
_shelx_hkl_file
;
   0   0  -1    8.64    1.78
   0   0  -1    7.37    1.61
   0   0  -1    6.10    1.44
   0   0   1    8.04    1.78
   0   0   1    7.70    1.52
   0   0   1   10.16    1.86
   0   0   1    8.89    1.44
   0   0   1    9.40    1.02
   0   0   1    9.23    1.35
   0   0   1    6.10    1.19
   0   0  -2 5650.61   44.45
   0   0  -2 4952.72   19.05
   0   0  -2 5343.20   40.22
   0   0  -2 5462.91   37.85
   0   0  -2 4854.09   19.05
   0   0   2 5006.15   41.82
   0   0   2 5467.99   40.72
   0   0   2 5605.23   20.23
   0   0   2 5999.26   45.47
   0   0   2 5265.14   37.17
   0   0   2 4968.81   26.50
   0   0   2 6206.61   35.81
   0   0   2 6758.12   40.72
   0   0   2 5573.65   29.04
   0   0  -3 1215.79   25.57
   0   0  -3 1086.50   10.58
   0   0  -3 1144.33   23.11
   0   0  -3 1155.51   21.59
   0   0  -3 1064.15   10.58
   0   0   3 1103.69   24.38
   0   0   3 1099.46   22.69
   0   0   3 1206.98   11.18
   0   0   3 1305.19   26.42
   0   0   3 1149.32   21.50
   0   0   3 1062.54   15.07
   0   0   3 1258.03   20.32
   0   0   3 1173.79   11.09
   0   0  -4  826.24   24.81
   0   0  -4  699.42    9.23
   0   0  -4  724.31   21.67
   0   0  -4  804.82   24.55
   0   0  -4  728.46   20.23
   0   0  -4  683.92    9.23
   0   0   4  719.40   23.11
   0   0   4  713.47   21.50
   0   0   4  780.78    9.74
   0   0   4  805.50   24.64
   0   0   4  763.59   20.66
   0   0   4  709.32   14.31
   0   0   4  831.07   19.90
   0   0   4  787.98    9.82
   0   0  -5  150.87   13.63
   0   0  -5  131.65    4.06
   0   0  -5  134.45   11.60
   0   0  -5  159.17   13.55
   0   0  -5  128.52   11.26
   0   0  -5  152.48    4.32
   0   0  -5  135.13    4.15
   0   0   5  142.07   13.12
   0   0   5  148.76   12.11
   0   0   5  153.33    4.40
   0   0   5  157.14   13.72
   0   0   5  140.97   10.75
   0   0   5  136.56    7.62
   0   0   5  157.98   11.18
   0   0  -6  306.99   19.98
   0   0  -6  239.60   16.26
   0   0  -6  265.76   18.46
   0   0  -6  232.83   14.99
   0   0   6  263.05   18.71
   0   0   6  213.44   15.41
   0   0   6  253.15   18.20
   0   0   6  225.97   14.65
   0   0   6  212.25    9.82
   0   0   6  255.94   14.82
   0   0  -7  337.30   23.20
   0   0  -7  286.34   18.80
   0   0  -7  319.61   22.18
   0   0  -7  305.13   19.05
   0   0   7  293.79   21.67
   0   0   7  248.24   18.29
   0   0   7  303.44   21.84
   0   0   7  214.46   15.16
   0   0   7  272.45   12.19
   0   0   7  318.17   18.63
   0   0  -8  112.43   18.80
   0   0  -8   91.18   15.58
   0   0  -8  132.50   16.00
   0   0  -8  115.74   15.83
   0   0   8  106.85   16.68
   0   0   8  115.48   17.86
   0   0   8    1.35    3.05
   0   0   8  107.10   15.32
   0   0  -9  518.83   33.36
   0   0  -9  405.63   26.67
   0   0  -9  500.12   32.00
   0   0  -9  441.27   25.65
   0   0   9  405.54   26.75
   0   0   9  418.58   29.80
   0   0   9    0.51    3.56
   0   0   9  477.34   26.33
   0   0 -10  113.20   21.25
   0   0 -10   81.87   16.85
   0   0 -10   80.77   18.46
   0   0 -10  105.15   18.63
   0   0  10   75.78   16.00
   0   0  10   61.89   16.59
   0   0  10   66.38   14.22
   0   0  10   90.68   16.76
   0   0 -11  101.68   22.61
   0   0 -11   86.70   18.80
   0   0 -11   82.29   19.39
   0   0  11   87.71   19.13
   0   0  11   71.54   19.22
   0   0  11   89.41   18.46
   0   0 -12   42.84   18.03
   0   0 -12   34.54   14.99
   0   0 -12   47.58   17.69
   0   0  12   38.95   15.75
   0   0  12   28.36   15.41
   0   0  12   37.25   14.05
   0   0 -13   -4.06   14.39
   0   0 -13    7.37   13.63
   0   0  13    6.35   11.51
   0  -1  13   31.24   14.99
   0   1 -13   38.69   18.03
   0   1 -13   37.85   17.10
   0  -1  12   18.63   11.85
   0   1 -12   32.34   16.93
   0   1 -12   25.23   15.07
   0  -1  11   25.99   12.19
   0  -1  11   24.89   10.75
   0  -1  11   15.41   10.50
   0   1 -11   33.95   15.66
   0   1 -11   24.13   11.77
   0   1 -11   39.96   15.16
   0   1 -11   26.25   11.94
   0  -1  10  562.17   36.15
   0  -1  10  462.19   28.62
   0  -1  10  480.98   29.80
   0  -1  10  454.82   28.02
   0   1 -10  597.82   37.08
   0   1 -10  495.12   29.55
   0   1 -10  527.72   34.97
   0   1 -10  466.76   30.39
   0  -1   9   38.35   13.29
   0  -1   9   41.32   11.35
   0  -1   9   39.45   12.95
   0  -1   9   43.09   11.43
   0  -1   9   43.35   11.60
   0   1  -9   31.50   12.87
   0   1  -9   43.35   12.11
   0   1  -9   57.91   15.07
   0   1  -9   36.49   11.85
   0  -1   8  263.73   22.18
   0  -1   8  235.03   18.12
   0  -1   8  237.82   21.67
   0  -1   8  255.77   19.39
   0  -1   8  239.43   18.03
   0   1  -8  298.27   23.54
   0   1  -8  270.08   19.05
   0   1  -8  269.23   22.35
   0   1  -8  271.77   20.49
   0  -1   7   19.81    7.70
   0  -1   7   12.36    6.35
   0  -1   7   11.60    3.64
   0  -1   7    7.03    6.10
   0  -1   7   16.51    6.94
   0  -1   7    6.60    5.93
   0  -1   7   16.59    5.50
   0   1  -7   14.48    7.20
   0   1  -7   11.26    3.64
   0   1  -7    4.32    5.08
   0   1  -7   12.87    6.60
   0   1  -7   10.67    7.11
   0   1  -7   11.26    3.64
   0  -1   6  145.71   13.46
   0  -1   6  133.09   11.43
   0  -1   6  183.81    8.97
   0  -1   6  186.01   16.00
   0  -1   6  161.63   13.46
   0  -1   6  197.10   13.29
   0  -1   6  188.38    9.14
   0   1  -6  162.13   14.05
   0   1  -6  170.18    8.64
   0   1  -6  179.49   13.38
   0   1  -6  194.39   16.00
   0   1  -6  139.36   12.95
   0   1  -6  161.20    8.55
   0  -1   5  155.87   13.12
   0  -1   5  146.39   10.58
   0  -1   5  147.66    8.13
   0  -1   5  159.59   13.89
   0  -1   5  141.14   11.85
   0  -1   5  167.98   11.35
   0  -1   5  161.63    8.47
   0   1  -5  166.79   13.55
   0   1  -5  148.67    8.04
   0   1  -5  132.84   10.33
   0   1  -5  153.58   13.46
   0   1  -5  153.24   12.53
   0   1  -5  146.13    8.04
   0  -1   4   50.29    7.79
   0  -1   4   54.02    6.43
   0  -1   4   56.39    5.25
   0  -1   4   55.71    8.81
   0  -1   4   48.00    7.62
   0  -1   4   62.48    6.94
   0  -1   4   54.95    5.50
   0   1  -4   54.35    5.16
   0   1  -4   57.83    6.27
   0   1  -4   59.86    8.97
   0   1  -4   59.18    8.47
   0   1  -4   56.73    5.42
   0  -1   3  906.93   21.50
   0  -1   3  874.25   16.85
   0  -1   3  742.93   14.99
   0  -1   3  978.13   22.86
   0  -1   3  713.05   18.88
   0  -1   3  970.43   18.12
   0  -1   3  828.11   15.83
   0   1  -3  771.30   15.24
   0   1  -3  899.99   17.10
   0   1  -3 1015.98   23.20
   0   1  -3  768.67   19.73
   0   1  -3  785.18   15.49
   0  -1   2 1028.17   18.80
   0  -1   2  790.18   11.77
   0  -1   2  500.03   11.43
   0  -1   2  747.76   16.42
   0  -1   2  889.83    7.70
   0  -1   2 1029.10   15.75
   0  -1   2  581.82   12.36
   0   1  -2  664.79   13.21
   0   1  -2  892.88   12.45
   0   1  -2 1079.98   19.90
   0   1  -2  762.41   16.68
   0   1  -2  631.01    5.50
   0   1  -2  882.12   16.09
   0   1  -2  659.71   13.29
   0  -1   1 5003.61   32.34
   0  -1   1 4856.21   20.32
   0  -1   1 3295.58   26.75
   0  -1   1 3648.72   28.62
   0  -1   1 4635.14   28.28
   0  -1   1 3096.79   25.99
   0   1  -1 4509.25   24.47
   0   1  -1 3154.10   26.16
   0   1  -1 4632.01   25.31
   0   1  -1 5306.37   34.97
   0   1  -1 3475.07   27.94
   0   1  -1 3097.89   19.81
   0   1  -1 3991.44   25.74
   0   1  -1 3088.15   26.08
   0  -1   0  260.26    7.28
   0  -1   0  141.05    4.83
   0  -1   0  156.29    5.50
   0  -1   0  183.30    4.49
   0  -1   0  196.59    4.66
   0  -1   0  251.88    6.52
   0  -1   0  150.11    5.33
   0   1   0  163.74    5.16
   0   1   0  193.71    6.01
   0   1   0  281.68    7.45
   0   1   0  185.08    4.49
   0   1   0  163.66    5.76
   0   1   0  207.60    6.01
   0   1   0  204.04    6.18
   0  -1  -1 1708.96   22.77
   0  -1  -1 1330.76   20.15
   0  -1  -1 1302.82   13.55
   0  -1  -1 1500.94   10.50
   0  -1  -1 1746.80   18.63
   0  -1  -1 1267.52   13.38
   0   1   1 1040.62   17.78
   0   1   1 1287.75   13.46
   0   1   1 1757.73   22.35
   0   1   1 1439.73   10.24
   0   1   1 1084.81   17.27
   0   1   1 1507.29   18.03
   0   1   1 1272.85   13.46
   0  -1  -2 9999.00   67.73
   0  -1  -2 7469.47   58.25
   0  -1  -2 7592.57   34.97
   0  -1  -2 8299.78   38.86
   0  -1  -2 7487.25   26.50
   0   1   2 7189.91   57.23
   0   1   2 7496.31   33.78
   0   1   2 9854.05   65.11
   0   1   2 7795.68   37.68
   0   1   2 7180.00   49.78
   0   1   2 8620.06   50.80
   0   1   2 7342.90   33.70
   0  -1  -3 2099.60   36.58
   0  -1  -3 1663.49   32.17
   0  -1  -3 1810.22   23.88
   0   1   3 1501.78   30.48
   0   1   3 1958.38   34.54
   0   1   3 1732.67   23.37
   0   1   3 1594.32   26.08
   0   1   3 1917.23   28.19
   0  -1  -4 1038.75   30.06
   0  -1  -4  917.17   27.35
   0  -1  -4  910.57   20.57
   0   1   4  821.08   25.99
   0   1   4 1044.85   29.21
   0   1   4  960.01   21.00
   0   1   4  844.02   20.83
   0   1   4  978.73   23.37
   0  -1  -5  465.91   22.44
   0  -1  -5  386.58   20.15
   0  -1  -5  403.00   15.83
   0   1   5  358.98   19.05
   0   1   5  413.25   20.66
   0   1   5  408.25   16.09
   0   1   5  372.61   15.16
   0   1   5  431.28   17.86
   0  -1  -6  380.06   23.11
   0  -1  -6  302.59   19.73
   0  -1  -6  298.27   15.41
   0   1   6  254.76   17.69
   0   1   6  304.62   20.32
   0   1   6  320.29   16.00
   0   1   6  279.39   14.14
   0   1   6  350.09   17.95
   0  -1  -7    2.29    6.27
   0  -1  -7    7.37    7.03
   0  -1  -7   -0.59    4.57
   0  -1  -7    4.32    5.08
   0   1   7    5.00    6.52
   0   1   7   -0.25    4.91
   0   1   7   -2.03    3.98
   0   1   7   -0.59    3.89
   0   1   7    5.59    6.69
   0  -1  -8   10.24   10.33
   0  -1  -8   10.75    8.21
   0  -1  -8    4.91    7.70
   0  -1  -8    9.65    7.45
   0   1   8   11.43    8.72
   0   1   8   13.46    9.57
   0   1   8   11.18    6.86
   0   1   8   13.38    8.89
   0  -1  -9  143.85   23.79
   0  -1  -9  107.27   18.96
   0  -1  -9   91.95   17.95
   0   1   9   88.47   17.78
   0   1   9   93.22   18.37
   0   1   9  116.92   18.12
   0  -1 -10   36.49   16.34
   0  -1 -10   25.40   12.02
   0  -1 -10   30.73   13.46
   0   1  10   30.48   12.87
   0   1  10   30.99   13.29
   0   1  10   23.62   11.35
   0  -1 -11  249.85   34.63
   0  -1 -11  217.67   25.74
   0  -1 -11  279.22   29.38
   0   1  11  224.95   25.40
   0   1  11  185.84   27.94
   0   1  11  243.24   24.98
   0  -1 -12   38.69   18.80
   0  -1 -12   33.44   16.00
   0  -1 -12   50.97   17.95
   0   1  12   39.71   16.42
   0   1  12   41.40   17.10
   0   1  12   40.13   15.24
   0  -2  13    7.54   11.51
   0   2 -13    6.01   15.07
   0   2 -13    1.44   12.70
   0  -2  12   17.10   12.87
   0  -2  12   33.44   13.55
   0  -2  12   27.43   12.95
   0   2 -12   35.47   15.49
   0   2 -12   29.63   16.17
   0   2 -12   20.23   12.62
   0  -2  11  236.47   26.84
   0  -2  11  232.83   23.79
   0  -2  11  214.79   22.35
   0   2 -11  318.00   30.31
   0   2 -11  248.41   27.01
   0   2 -11  239.09   24.98
   0  -2  10   81.79   18.71
   0  -2  10   56.56   13.46
   0  -2  10   62.23   15.16
   0  -2  10   73.66   14.90
   0   2 -10  111.59   20.91
   0   2 -10   98.89   16.26
   0   2 -10  106.09   20.66
   0   2 -10   88.98   18.03
   0  -2   9   47.58   14.31
   0  -2   9   79.08   13.89
   0  -2   9   84.75   16.09
   0  -2   9   61.97   13.21
   0   2  -9   76.71   16.51
   0   2  -9   72.90   13.12
   0   2  -9  106.00   19.56
   0   2  -9   59.27   13.38
   0  -2   8   36.32   11.77
   0  -2   8   37.42    9.23
   0  -2   8   47.75   11.85
   0  -2   8   36.83    9.82
   0   2  -8   42.76   12.11
   0   2  -8   48.17   10.16
   0   2  -8   50.46   13.38
   0   2  -8   38.95   11.51
   0   2  -8   35.47    7.62
   0  -2   7  117.09   16.76
   0  -2   7   74.84    9.31
   0  -2   7   93.89    9.31
   0  -2   7  122.17   13.89
   0  -2   7   88.31   10.92
   0  -2   7  100.67    9.31
   0   2  -7  134.87   15.07
   0   2  -7   95.08    9.14
   0   2  -7   95.33   10.16
   0   2  -7  123.86   15.07
   0   2  -7   95.93   14.73
   0   2  -7   81.79    8.81
   0  -2   6  513.83   24.21
   0  -2   6  463.96   17.78
   0  -2   6  496.98   17.69
   0  -2   6  537.37   24.38
   0  -2   6  500.88   20.32
   0  -2   6  532.71   18.37
   0   2  -6  462.19   17.02
   0   2  -6  631.94   26.92
   0   2  -6  597.39   25.91
   0   2  -6  494.27   17.69
   0  -2   5   85.51   11.94
   0  -2   5   68.41    7.11
   0  -2   5   72.05    7.96
   0  -2   5   64.09   10.41
   0  -2   5   71.20    8.72
   0  -2   5   70.95    8.04
   0   2  -5   66.55    7.37
   0   2  -5   89.41    7.62
   0   2  -5  102.70   10.92
   0   2  -5   80.26   11.43
   0   2  -5   64.01    7.20
   0  -2   4  592.48   20.91
   0  -2   4  518.40   13.63
   0  -2   4  589.78   21.50
   0  -2   4  623.47   18.54
   0   2  -4  467.86   16.17
   0   2  -4  672.24   15.49
   0   2  -4  729.13   23.71
   0   2  -4  511.80   19.81
   0   2  -4  475.05   16.26
   0  -2   3  138.26    9.40
   0  -2   3  108.03    5.16
   0  -2   3  114.30    8.13
   0  -2   3  121.75    9.40
   0  -2   3  135.13    8.30
   0  -2   3   98.47    7.54
   0   2  -3  117.85    8.30
   0   2  -3  155.44    6.10
   0   2  -3  173.65   11.01
   0   2  -3  120.48    8.97
   0   2  -3  106.09    4.66
   0   2  -3  144.10    7.70
   0   2  -3  122.09    8.38
   0  -2   2   32.60    5.25
   0  -2   2   27.35    2.46
   0  -2   2   18.88    4.15
   0  -2   2   28.96    5.25
   0  -2   2   33.44    5.00
   0  -2   2   22.52    4.66
   0   2  -2   28.11    5.08
   0   2  -2   33.53    2.62
   0   2  -2   38.95    5.84
   0   2  -2   23.71    4.91
   0   2  -2   27.26    3.81
   0   2  -2   27.18    4.32
   0   2  -2   20.74    4.49
   0  -2   1  692.39   16.26
   0  -2   1  485.89    9.65
   0  -2   1  490.63   14.22
   0  -2   1  531.36   13.46
   0  -2   1  686.55   15.24
   0  -2   1  501.72   14.48
   0   2  -1  486.74    9.65
   0   2  -1  481.40   14.22
   0   2  -1  619.58   10.92
   0   2  -1  765.79   17.69
   0   2  -1  529.16   13.46
   0   2  -1  460.24   12.62
   0   2  -1  593.42   13.97
   0   2  -1  488.77   14.48
   0  -2   0 3256.55   35.56
   0  -2   0 2297.04   26.92
   0  -2   0 2293.40   28.87
   0  -2   0 2591.51   23.37
   0  -2   0 3265.35   32.60
   0  -2   0 2488.47   29.97
   0   2   0 2162.09   26.16
   0   2   0 2136.69   27.85
   0   2   0 3577.09   37.34
   0   2   0 2454.86   22.69
   0   2   0 2086.48   29.12
   0   2   0 2857.95   30.90
   0   2   0 2143.88   28.02
   0  -2  -1 6853.79   57.57
   0  -2  -1 4712.44   46.65
   0  -2  -1 5612.77   42.42
   0  -2  -1 6595.90   27.77
   0  -2  -1 5677.88   25.82
   0  -2  -1 7207.09   49.95
   0  -2  -1 4808.88   39.28
   0   2   1 4483.26   45.47
   0   2   1 4843.08   39.28
   0   2   1 7575.22   58.93
   0   2   1 6307.70   29.80
   0   2   1 4341.87   45.55
   0   2   1 6377.38   49.02
   0   2   1 4848.42   39.62
   0  -2  -2  303.10   14.14
   0  -2  -2  239.01   12.78
   0  -2  -2  244.43    8.55
   0  -2  -2  260.34    6.01
   0  -2  -2  315.12   11.43
   0  -2  -2  247.22    8.72
   0   2   2  254.42   13.12
   0   2   2  246.46    8.64
   0   2   2  319.53   14.22
   0   2   2  260.17    6.10
   0   2   2  228.93   11.85
   0   2   2  291.42   12.02
   0   2   2  231.22    8.47
   0  -2  -3 2105.19   41.06
   0  -2  -3 1684.41   36.66
   0  -2  -3 1707.52   19.47
   0  -2  -3 1902.76   21.17
   0  -2  -3 1741.47   19.73
   0   2   3 1604.14   35.81
   0   2   3 1650.37   19.13
   0   2   3 2103.24   39.54
   0   2   3 1741.89   20.23
   0   2   3 1607.53   32.26
   0   2   3 1960.08   33.10
   0   2   3 1659.01   19.30
   0  -2  -4  212.85   15.32
   0  -2  -4  189.56   14.90
   0  -2  -4  191.60    4.91
   0  -2  -4  208.19    9.40
   0  -2  -4  192.95    5.00
   0   2   4  165.69   13.97
   0   2   4  181.86    4.74
   0   2   4  234.78   15.92
   0   2   4  201.33    8.97
   0   2   4  175.85   12.11
   0   2   4  211.75   12.87
   0   2   4  189.99    4.91
   0  -2  -5  816.93   31.33
   0  -2  -5  714.57   28.87
   0  -2  -5  757.75   19.47
   0   2   5  687.82   28.28
   0   2   5  812.27   30.39
   0   2   5  669.28   18.20
   0   2   5  606.54   22.52
   0   2   5  833.53   26.50
   0  -2  -6   63.58   12.95
   0  -2  -6   71.88   13.38
   0  -2  -6   75.27    8.81
   0   2   6   72.56   13.72
   0   2   6   79.67   13.89
   0   2   6   70.02    8.13
   0   2   6   57.23    9.99
   0   2   6  111.93   14.65
   0  -2  -7    7.87    7.79
   0  -2  -7    6.94    7.79
   0  -2  -7    1.86    5.50
   0   2   7    2.88    7.03
   0   2   7    9.14    8.21
   0   2   7    7.37    6.01
   0   2   7    9.31    7.20
   0  -2  -8  181.61   24.98
   0  -2  -8  117.35   19.81
   0   2   8  129.37   20.66
   0   2   8  135.80   20.40
   0   2   8  140.88   18.88
   0  -2  -9  145.71   24.30
   0  -2  -9  108.54   20.32
   0  -2  -9   99.06   19.81
   0   2   9  108.46   20.83
   0   2   9  119.63   21.00
   0   2   9  132.16   19.56
   0  -2 -10  194.56   29.38
   0  -2 -10  145.96   24.47
   0  -2 -10  154.85   24.55
   0   2  10  141.81   24.81
   0   2  10  181.18   26.67
   0   2  10  195.15   22.35
   0  -2 -11  224.87   28.02
   0  -2 -11  174.07   27.94
   0  -2 -11  194.81   29.46
   0   2  11  144.69   25.91
   0   2  11  152.65   26.08
   0   2  11  178.22   25.40
   0  -2 -12   67.05   23.37
   0  -2 -12   37.34   16.85
   0  -2 -12   40.72   16.51
   0   2  12   33.87   16.76
   0   2  12   31.92   16.85
   0   2  12   23.88   14.56
   0  -3  13   -5.50   11.94
   0  -3  13    3.56   10.67
   0  -3  13   10.24   11.77
   0   3 -13    1.86   13.46
   0   3 -13   -4.15   10.67
   0   3 -13   -1.86   11.68
   0  -3  12   65.70   20.15
   0  -3  12   82.80   19.39
   0  -3  12   86.10   18.54
   0   3 -12  103.55   23.28
   0   3 -12   73.07   20.15
   0   3 -12   99.14   22.18
   0  -3  11    7.03   11.51
   0  -3  11    6.18    9.31
   0  -3  11    7.37    9.40
   0   3 -11   10.84   12.36
   0   3 -11   10.50   12.11
   0   3 -11   17.69   12.45
   0  -3  10   66.21   17.19
   0  -3  10   39.62   13.04
   0  -3  10   36.07   11.94
   0   3 -10   53.68   15.92
   0   3 -10   48.51   15.49
   0   3 -10   56.73   15.16
   0  -3   9  157.14   19.30
   0  -3   9  148.50   17.27
   0  -3   9  143.93   16.68
   0   3  -9  181.01   20.40
   0   3  -9  168.99   20.91
   0   3  -9  168.14   23.11
   0  -3   8   85.43   15.92
   0  -3   8   71.80   11.09
   0  -3   8   88.39   12.19
   0  -3   8   65.36   13.21
   0  -3   8   60.28   11.60
   0   3  -8   62.40   10.16
   0   3  -8   77.72   11.43
   0   3  -8  119.80   19.30
   0   3  -8  109.39   17.86
   0   3  -8   75.69   11.26
   0  -3   7   69.17   13.04
   0  -3   7   62.40    9.23
   0  -3   7   70.27   10.58
   0  -3   7   68.41   13.21
   0  -3   7   62.23   10.84
   0   3  -7   55.37    9.74
   0   3  -7   67.14    9.57
   0   3  -7   85.43   15.32
   0   3  -7   73.24   13.55
   0   3  -7   52.41    9.48
   0  -3   6   50.80   10.75
   0  -3   6   54.10    6.43
   0  -3   6    0.00    2.03
   0  -3   6   45.63   10.41
   0  -3   6   45.30    8.89
   0   3  -6   50.63    8.97
   0   3  -6   58.42    7.79
   0   3  -6   50.12   11.26
   0   3  -6   50.29   11.09
   0   3  -6   54.02    9.14
   0  -3   5  499.18   22.18
   0  -3   5  457.78   13.29
   0  -3   5  422.05   18.71
   0  -3   5  499.78   23.20
   0  -3   5  449.06   18.96
   0   3  -5  409.95   18.37
   0   3  -5  590.96   14.99
   0   3  -5  596.72   25.31
   0   3  -5  581.39   24.98
   0   3  -5  405.63    8.30
   0   3  -5  435.94   18.96
   0  -3   4   59.27    9.65
   0  -3   4   65.70    4.83
   0  -3   4   54.86    9.06
   0  -3   4   56.81    9.74
   0  -3   4   64.09    8.97
   0   3  -4   44.45    8.30
   0   3  -4   71.71    5.16
   0   3  -4   83.06   11.51
   0   3  -4   47.24    8.72
   0   3  -4   43.86    4.91
   0   3  -4   61.47    6.77
   0   3  -4   45.21    8.38
   0  -3   3   82.97    8.81
   0  -3   3   76.54    4.40
   0  -3   3   69.68    8.64
   0  -3   3   59.94    7.45
   0  -3   3   72.39    8.04
   0  -3   3   69.09    9.48
   0   3  -3   55.88    8.64
   0   3  -3   87.04    4.49
   0   3  -3   90.93    9.82
   0   3  -3   61.21    7.62
   0   3  -3   45.04    5.33
   0   3  -3   72.64    7.03
   0   3  -3   61.64    8.72
   0  -3   2  208.95   11.68
   0  -3   2  164.67    6.35
   0  -3   2  160.36   11.01
   0  -3   2  179.66   10.75
   0  -3   2  187.70   10.58
   0  -3   2  157.98   10.75
   0   3  -2  152.31    6.18
   0   3  -2  177.71   11.43
   0   3  -2  199.81    7.03
   0   3  -2  234.35   12.95
   0   3  -2  155.70   10.16
   0   3  -2  156.55    9.06
   0   3  -2  189.23   10.08
   0   3  -2  172.63   11.35
   0  -3   1 1192.67   25.99
   0  -3   1  873.66   17.36
   0  -3   1  896.60   23.11
   0  -3   1  978.39   20.83
   0  -3   1 1229.76   24.81
   0  -3   1  913.96   23.37
   0   3  -1  822.10   16.76
   0   3  -1 1055.60   25.23
   0   3  -1 1129.26   19.73
   0   3  -1 1264.81   27.43
   0   3  -1  972.71   20.74
   0   3  -1  819.22   21.25
   0   3  -1 1073.04   23.03
   0   3  -1 1067.54   25.48
   0  -3   0  405.46   16.17
   0  -3   0  294.38   12.28
   0  -3   0  327.82   13.97
   0  -3   0  343.65   10.67
   0  -3   0  438.90   15.16
   0  -3   0  292.77   13.12
   0   3   0  305.30   12.45
   0   3   0  351.02   14.39
   0   3   0  468.70   17.27
   0   3   0  324.52   10.41
   0   3   0  337.73   14.99
   0   3   0  392.25   14.56
   0   3   0  362.79   14.65
   0  -3  -1 1307.22   30.31
   0  -3  -1  949.35   24.64
   0  -3  -1  941.56   22.18
   0  -3  -1 1248.04   16.09
   0  -3  -1 1416.02   27.01
   0  -3  -1  942.23   22.01
   0   3   1  965.26   24.98
   0   3   1  891.94   21.50
   0   3   1 1448.87   31.16
   0   3   1 1032.06   14.65
   0   3   1  852.07   24.55
   0   3   1 1149.24   25.57
   0   3   1  921.32   22.01
   0  -3  -2   63.16    9.99
   0  -3  -2   54.19    9.48
   0  -3  -2   42.76    6.43
   0  -3  -2   53.76    3.22
   0  -3  -2   54.78    7.54
   0  -3  -2   42.76    6.52
   0   3   2   36.24    7.54
   0   3   2   45.30    6.60
   0   3   2   52.83    9.23
   0   3   2   55.20    3.30
   0   3   2   39.62    7.79
   0   3   2   60.87    8.72
   0   3   2   50.63    6.94
   0  -3  -3  962.22   31.33
   0  -3  -3  850.80   29.21
   0  -3  -3  849.02   18.96
   0  -3  -3  909.13   11.85
   0  -3  -3  869.93   19.22
   0   3   3  836.91   28.96
   0   3   3  798.30   18.46
   0   3   3 1065.17   31.41
   0   3   3  849.10   11.43
   0   3   3  817.27   27.09
   0   3   3  966.70   26.75
   0   3   3  813.63   18.71
   0  -3  -4 1137.13   36.83
   0  -3  -4  863.33   31.66
   0  -3  -4  961.03   18.03
   0  -3  -4  963.40   15.41
   0  -3  -4  976.52   18.29
   0   3   4  888.47   32.43
   0   3   4  859.60   17.10
   0   3   4 1250.84   36.91
   0   3   4  942.66   15.16
   0   3   4  864.77   29.12
   0   3   4  975.17   28.87
   0   3   4  887.88   17.44
   0  -3  -5  372.44   24.30
   0  -3  -5  309.11   21.50
   0  -3  -5  325.54   11.18
   0  -3  -5  327.31    8.72
   0   3   5  242.99   18.80
   0   3   5  359.06   22.35
   0   3   5  302.76   10.84
   0   3   5  283.03   18.29
   0   3   5  367.19   20.07
   0   3   5  290.49    7.37
   0  -3  -6   78.74   15.24
   0  -3  -6   78.15   15.24
   0   3   6   55.62   13.72
   0   3   6  105.15   16.76
   0   3   6   81.87   13.29
   0   3   6  112.10   15.32
   0  -3  -7  591.81   34.71
   0  -3  -7  522.89   31.58
   0   3   7  497.74   30.31
   0   3   7  586.30   32.77
   0   3   7  471.92   25.15
   0   3   7  579.70   28.53
   0  -3  -8   26.84   14.14
   0  -3  -8   29.72   12.45
   0   3   8   31.16   11.68
   0   3   8   37.08   13.29
   0   3   8   43.26   13.29
   0  -3  -9  298.02   30.23
   0  -3  -9  254.25   26.84
   0   3   9  268.90   25.82
   0   3   9  312.41   28.53
   0   3   9  294.21   24.55
   0  -3 -10  207.09   31.50
   0  -3 -10  114.72   23.54
   0  -3 -10  155.36   26.58
   0   3  10  118.19   23.71
   0   3  10  152.23   25.74
   0   3  10  165.52   24.30
   0  -3 -11   34.20   19.13
   0  -3 -11   59.52   19.39
   0  -3 -11   30.31   15.32
   0   3  11   31.66   14.31
   0   3  11   60.79   18.63
   0   3  11   37.76   15.66
   0  -4  13   86.61   22.86
   0  -4  13  121.07   25.31
   0  -4  13  106.17   21.93
   0   4 -13  147.57   28.36
   0   4 -13   83.48   23.20
   0   4 -13   98.55   23.54
   0  -4  12   66.89   19.56
   0  -4  12   74.51   19.05
   0  -4  12   50.46   15.07
   0   4 -12   66.04   19.90
   0   4 -12   77.81   21.34
   0   4 -12   53.68   17.78
   0  -4  11   24.98   13.80
   0  -4  11   36.32   13.80
   0  -4  11   23.28   11.09
   0   4 -11   43.69   15.92
   0   4 -11   37.25   15.58
   0   4 -11   21.17   14.14
   0  -4  10   64.94   16.68
   0  -4  10   32.51   12.45
   0  -4  10   51.39   13.38
   0   4 -10   78.23   18.37
   0   4 -10   64.60   17.27
   0   4 -10   58.16   16.85
   0  -4   9  138.09   21.25
   0  -4   9  130.64   14.65
   0  -4   9  131.23   20.83
   0  -4   9  121.75   17.69
   0   4  -9  104.48   14.90
   0   4  -9  146.72   22.10
   0   4  -9  117.18   20.74
   0   4  -9  117.09   14.39
   0  -4   8   17.19    8.38
   0  -4   8   21.00    8.04
   0  -4   8   17.53    8.21
   0  -4   8   19.98    8.64
   0   4  -8    9.82    7.45
   0   4  -8   23.45   10.84
   0   4  -8   13.21    9.48
   0   4  -8   12.28    7.79
   0  -4   7   82.38   14.73
   0  -4   7   71.03   12.19
   0  -4   7   71.63   14.31
   0  -4   7   60.37   11.68
   0   4  -7   56.81   10.75
   0   4  -7   93.39   11.51
   0   4  -7  100.50   17.02
   0   4  -7   54.10   13.12
   0   4  -7   73.15   12.62
   0  -4   6   45.63   10.16
   0  -4   6   41.40    5.59
   0  -4   6   47.84   10.16
   0  -4   6   48.60   10.75
   0  -4   6   33.36    8.38
   0   4  -6   26.58    7.87
   0   4  -6   46.73    5.84
   0   4  -6   49.44   11.85
   0   4  -6   39.96   11.01
   0   4  -6   33.87    4.15
   0   4  -6   33.95    8.64
   0  -4   5   33.61    8.72
   0  -4   5   29.21    3.98
   0  -4   5   28.36    8.13
   0  -4   5   34.29    8.55
   0  -4   5   32.68    7.96
   0   4  -5   28.87    8.21
   0   4  -5   33.10    3.98
   0   4  -5   24.72    8.47
   0   4  -5   24.47    7.62
   0   4  -5   24.55    4.74
   0   4  -5   34.63    6.86
   0   4  -5   18.20    6.77
   0  -4   4    2.79    4.74
   0  -4   4    2.12    1.95
   0  -4   4    1.95    3.89
   0  -4   4    2.88    5.00
   0  -4   4    1.44    4.57
   0   4  -4    4.32    5.16
   0   4  -4    2.79    2.03
   0   4  -4    2.54    4.15
   0   4  -4    2.71    5.33
   0   4  -4    4.15    3.30
   0   4  -4    1.27    3.56
   0   4  -4    2.54    5.00
   0  -4   3 1741.05   37.85
   0  -4   3 1713.70   21.25
   0  -4   3 1324.24   18.63
   0  -4   3 1377.84   34.97
   0  -4   3 1452.00   34.88
   0  -4   3 1589.16   34.12
   0   4  -3 1423.72   19.22
   0   4  -3 1148.31   32.00
   0   4  -3 1664.09   20.83
   0   4  -3 1813.35   40.55
   0   4  -3 1461.15   35.05
   0   4  -3 1288.26   28.19
   0   4  -3 1657.48   32.85
   0   4  -3 1288.68   34.20
   0  -4   2  489.45   20.07
   0  -4   2  388.95   12.36
   0  -4   2  372.78   18.71
   0  -4   2  414.18   17.53
   0  -4   2  499.95   19.39
   0   4  -2  371.51   12.19
   0   4  -2  372.61   18.12
   0   4  -2  483.94   13.80
   0   4  -2  526.78   21.67
   0   4  -2  399.96   17.36
   0   4  -2  370.41   16.59
   0   4  -2  494.44   18.54
   0   4  -2  381.16   18.37
   0  -4   1 1844.68   37.93
   0  -4   1 1507.29   27.69
   0  -4   1 1502.72   34.97
   0  -4   1 1668.57   30.39
   0  -4   1 1936.54   36.15
   0   4  -1 1379.44   26.50
   0   4  -1 1352.01   33.10
   0   4  -1 1998.09   39.88
   0   4  -1 1559.95   29.46
   0   4  -1 1679.16   36.07
   0   4  -1 1806.92   34.88
   0   4  -1 1329.75   32.93
   0  -4   0  613.57   23.20
   0  -4   0  512.56   18.80
   0  -4   0  520.10   20.49
   0  -4   0  592.06   16.26
   0  -4   0  716.26   22.69
   0   4   0  459.31   17.86
   0   4   0  475.56   19.64
   0   4   0  738.87   25.15
   0   4   0  538.55   15.58
   0   4   0  599.09   23.20
   0   4   0  631.51   21.59
   0   4   0  489.96   19.98
   0  -4  -1  274.74   17.19
   0  -4  -1  227.58   14.05
   0  -4  -1  226.82   13.55
   0  -4  -1  265.68    9.40
   0  -4  -1  281.17   14.99
   0   4   1  225.46   14.48
   0   4   1  237.15   13.97
   0   4   1  295.73   17.10
   0   4   1  220.81    8.64
   0   4   1  191.68   14.65
   0   4   1  249.08   14.56
   0   4   1  239.01   14.05
   0  -4  -2   43.18    9.99
   0  -4  -2   31.33    7.79
   0  -4  -2   40.13    7.54
   0  -4  -2   39.62    7.45
   0  -4  -2   44.36    7.79
   0   4   2   37.93    8.97
   0   4   2   39.79    7.45
   0   4   2   48.68    9.31
   0   4   2   47.92    3.56
   0   4   2   37.51    3.30
   0   4   2   31.66    7.87
   0   4   2   43.94    8.64
   0   4   2   43.18    7.79
   0  -4  -3   50.29   11.43
   0  -4  -3   39.28    9.74
   0  -4  -3   40.13    7.11
   0  -4  -3   52.32    8.38
   0  -4  -3   41.40    6.94
   0   4   3   48.34   10.41
   0   4   3   43.52    7.45
   0   4   3   47.75   10.33
   0   4   3   41.06    9.48
   0   4   3   48.60    9.40
   0   4   3   30.99    6.60
   0  -4  -4  684.94   31.75
   0  -4  -4  547.95   27.52
   0  -4  -4  649.46   19.05
   0  -4  -4  677.06   19.47
   0   4   4  645.57   30.39
   0   4   4  608.82   18.37
   0   4   4  775.45   31.83
   0   4   4  628.55   28.19
   0   4   4  771.38   28.96
   0   4   4  597.65   18.29
   0  -4  -5  290.23   23.62
   0  -4  -5  250.02   21.25
   0   4   5  239.52   21.00
   0   4   5  306.91   22.69
   0   4   5  227.24   18.80
   0   4   5  232.66   18.03
   0  -4  -6  934.87   42.33
   0  -4  -6  773.58   37.93
   0   4   6  712.88   35.90
   0   4   6  956.12   40.55
   0   4   6  756.56   33.53
   0   4   6  879.16   34.80
   0  -4  -7   14.14   10.67
   0  -4  -7    8.72   10.08
   0   4   7    6.10    8.72
   0   4   7    8.38    9.06
   0   4   7    5.08    7.20
   0   4   7   14.39    9.23
   0  -4  -8  455.75   35.39
   0  -4  -8  445.51   33.61
   0   4   8  376.25   31.07
   0   4   8  509.00   34.54
   0   4   8  380.99   26.42
   0   4   8  548.71   32.34
   0  -4  -9   10.58   14.90
   0  -4  -9   19.90   13.63
   0   4   9   24.72   13.63
   0   4   9   27.85   13.38
   0   4   9   23.03   12.45
   0  -4 -10   47.41   20.07
   0  -4 -10   57.66   19.73
   0   4  10   20.57   13.80
   0   4  10   53.76   17.95
   0   4  10   67.56   17.86
   0  -4 -11   39.79   21.42
   0  -4 -11   44.03   19.30
   0  -4 -11   47.75   17.95
   0   4  11   39.45   18.12
   0   4  11   42.08   17.36
   0   4  11   43.43   17.86
   0  -5  13    2.46   13.55
   0  -5  13   20.49   14.22
   0  -5  13   10.08   12.87
   0   5 -13   30.90   16.93
   0   5 -13   29.55   17.36
   0   5 -13   13.38   14.39
   0  -5  12   15.16   14.05
   0  -5  12   26.67   13.80
   0  -5  12   21.08   12.62
   0   5 -12   26.50   15.16
   0   5 -12   22.69   14.99
   0   5 -12   20.66   14.56
   0  -5  11   26.84   12.70
   0  -5  11   26.42   13.04
   0  -5  11   17.86   11.51
   0   5 -11   22.86   13.21
   0   5 -11   20.57   13.89
   0   5 -11   43.26   16.68
   0  -5  10   40.81   14.14
   0  -5  10   37.76   14.31
   0  -5  10   30.14   11.68
   0   5 -10   43.09   14.48
   0   5 -10   38.95   14.22
   0  -5   9  108.54   19.13
   0  -5   9    9.99    5.93
   0  -5   9   75.61   17.36
   0  -5   9   74.84   14.73
   0   5  -9   72.39   14.14
   0   5  -9   78.99   17.69
   0   5  -9   96.94   19.47
   0   5  -9   73.91   14.39
   0  -5   8  282.10   23.62
   0  -5   8  259.24   20.32
   0  -5   8  289.89   24.38
   0  -5   8  231.47   20.15
   0   5  -8  198.62   18.03
   0   5  -8  270.76   24.47
   0   5  -8  253.40   23.88
   0   5  -8  216.06   18.96
   0  -5   7  233.17   20.15
   0  -5   7  201.67   18.12
   0  -5   7  195.49   18.71
   0  -5   7  178.30   17.27
   0   5  -7  184.40   17.36
   0   5  -7  269.06   21.76
   0   5  -7  219.20   20.07
   0   5  -7  176.53   17.27
   0  -5   6  112.60   16.26
   0  -5   6   83.56   14.22
   0  -5   6   87.37   15.07
   0  -5   6   83.06   13.04
   0   5  -6   76.45   13.46
   0   5  -6  130.72   18.71
   0   5  -6   66.55   13.72
   0   5  -6   69.09    7.54
   0   5  -6   68.83   12.95
   0  -5   5  228.26   16.93
   0  -5   5  254.50    9.40
   0  -5   5  174.92   16.17
   0  -5   5  209.46   16.93
   0  -5   5  199.55   15.66
   0   5  -5  152.06   15.16
   0   5  -5  235.45    7.20
   0   5  -5  236.98   18.88
   0   5  -5  171.78   15.58
   0   5  -5  177.03   11.77
   0   5  -5  213.95   20.83
   0   5  -5  166.20   15.92
   0  -5   4  166.45   14.05
   0  -5   4  180.84    7.62
   0  -5   4  144.61    6.60
   0  -5   4  164.67   15.41
   0  -5   4  176.78   15.16
   0  -5   4  154.77   13.55
   0   5  -4  142.83   14.48
   0   5  -4  193.12    7.62
   0   5  -4  196.85   16.68
   0   5  -4  153.24   13.80
   0   5  -4  150.79   11.35
   0   5  -4  200.49   13.89
   0   5  -4  154.26   14.99
   0  -5   3   53.93   10.24
   0  -5   3   46.90    5.25
   0  -5   3   47.84    9.91
   0  -5   3   43.26    8.89
   0  -5   3   47.16    9.40
   0   5  -3   45.30    5.33
   0   5  -3   52.24   10.67
   0   5  -3   51.56   10.75
   0   5  -3   36.74    8.64
   0   5  -3   42.67    8.38
   0   5  -3   76.45   10.84
   0   5  -3   44.11    9.91
   0  -5   2  274.99   17.36
   0  -5   2  240.02   11.77
   0  -5   2  237.23   17.02
   0  -5   2  253.91   15.07
   0  -5   2  275.25   16.51
   0   5  -2  229.27   11.60
   0   5  -2  207.17   16.09
   0   5  -2  300.81   18.80
   0   5  -2  233.67   14.65
   0   5  -2  223.68   15.41
   0   5  -2  284.56   16.17
   0   5  -2  219.03   16.59
   0  -5   1  343.91   18.96
   0  -5   1  273.47   14.22
   0  -5   1  266.27   17.53
   0  -5   1  308.26   14.90
   0  -5   1  365.33   18.80
   0   5  -1  278.21   14.48
   0   5  -1  246.04   16.93
   0   5  -1  405.80   21.25
   0   5  -1  271.44   14.39
   0   5  -1  226.73   15.58
   0   5  -1  341.54   17.86
   0   5  -1  287.35   18.20
   0  -5   0  294.97   18.20
   0  -5   0  263.65   15.58
   0  -5   0  261.44   16.93
   0  -5   0  278.29   12.62
   0  -5   0  302.51   17.02
   0   5   0  218.60   14.22
   0   5   0  234.44   16.09
   0   5   0  336.80   19.73
   0   5   0  234.94   11.94
   0   5   0  213.19   15.83
   0   5   0  290.65   16.93
   0   5   0  240.11   16.34
   0  -5  -1  137.92   14.48
   0  -5  -1  115.31   12.02
   0  -5  -1  108.88   11.43
   0  -5  -1  129.96    7.79
   0  -5  -1  136.99   12.02
   0   5   1  105.15   11.51
   0   5   1  115.82   12.28
   0   5   1  151.13   14.39
   0   5   1  115.57    7.54
   0   5   1   96.86   13.97
   0   5   1  122.76   12.19
   0   5   1  129.45   12.95
   0  -5  -2   33.95   10.33
   0  -5  -2   47.24   10.58
   0  -5  -2   31.16    7.87
   0  -5  -2   41.82    8.55
   0   5   2   28.28    8.81
   0   5   2   28.96    7.62
   0   5   2   44.28   10.50
   0   5   2   35.64    4.23
   0   5   2   33.53    3.56
   0   5   2   35.22    9.40
   0   5   2   36.66    9.06
   0   5   2   33.19    8.13
   0  -5  -3  642.44   31.33
   0  -5  -3  647.94   30.48
   0  -5  -3  572.00   22.27
   0   5   3  602.81   29.46
   0   5   3  562.43   22.10
   0   5   3  725.83   31.75
   0   5   3  495.37   26.50
   0   5   3  632.36   27.43
   0   5   3  563.28   22.18
   0  -5  -4   23.96    9.91
   0  -5  -4   29.38   10.50
   0  -5  -4   21.25    6.27
   0   5   4   31.50   10.92
   0   5   4   10.24    5.33
   0   5   4   26.58    9.91
   0   5   4   19.56    9.14
   0   5   4   30.48    9.82
   0   5   4   25.57    6.94
   0  -5  -5  303.02   26.25
   0  -5  -5  293.53   23.71
   0   5   5  335.87   25.91
   0   5   5  414.77   27.01
   0   5   5  302.85   23.79
   0   5   5  330.62   23.03
   0  -5  -6    6.10   11.01
   0  -5  -6    5.50    8.55
   0   5   6   -1.19    7.20
   0   5   6   -1.10    5.84
   0   5   6    0.17    8.04
   0   5   6   -3.05    7.20
   0  -5  -7   56.47   16.51
   0  -5  -7   66.89   16.68
   0   5   7   73.24   18.20
   0   5   7   80.85   17.95
   0   5   7   44.11   13.04
   0   5   7   81.11   16.85
   0  -5  -8  134.96   26.16
   0  -5  -8  107.52   22.94
   0   5   8  111.50   22.27
   0   5   8  139.02   23.96
   0   5   8  104.14   18.88
   0   5   8  153.16   23.62
   0  -5  -9   80.43   22.52
   0  -5  -9   56.47   19.05
   0   5   9   68.66   19.81
   0   5   9   96.60   21.59
   0   5   9   93.39   19.90
   0  -5 -10   95.67   26.67
   0  -5 -10  102.78   26.33
   0   5  10   86.02   23.79
   0   5  10  130.05   25.99
   0   5  10  119.80   24.38
   0  -6  13    7.20   15.75
   0  -6  13    3.64   12.19
   0  -6  13    5.16   11.51
   0   6 -13    5.59   12.70
   0   6 -13    3.73   13.38
   0   6 -13    0.76   13.38
   0  -6  12   33.27   15.58
   0  -6  12   19.13   13.04
   0  -6  12   26.67   13.46
   0   6 -12   57.32   18.63
   0   6 -12   72.98   21.50
   0   6 -12   28.28   17.10
   0  -6  11   80.01   19.73
   0  -6  11   92.03   20.91
   0  -6  11   71.97   17.10
   0   6 -11   76.71   20.57
   0   6 -11   77.13   21.17
   0  -6  10   16.68    9.99
   0  -6  10   16.26    9.14
   0  -6  10   12.62   11.09
   0  -6  10   20.23   11.26
   0   6 -10   16.59    9.48
   0   6 -10   21.42   12.87
   0   6 -10    9.14   12.11
   0  -6   9  107.86   19.22
   0  -6   9   75.86   15.49
   0  -6   9  129.62   21.84
   0  -6   9  112.01   18.63
   0   6  -9   81.45   16.00
   0   6  -9  163.40   25.15
   0   6  -9   88.14   19.39
   0   6  -9   89.07   16.76
   0  -6   8  129.54   19.39
   0  -6   8  141.90   20.07
   0  -6   8  129.20   21.17
   0  -6   8  130.89   19.05
   0   6  -8   98.13   16.93
   0   6  -8  177.37   25.15
   0   6  -8  121.83   20.32
   0   6  -8  120.31   18.54
   0  -6   7  335.19   24.89
   0  -6   7  272.79   22.69
   0  -6   7  278.55   24.30
   0  -6   7  302.93   22.18
   0   6  -7  316.73   23.88
   0   6  -7  326.55   25.91
   0   6  -7  287.10   23.54
   0   6  -7  300.39   23.54
   0  -6   6   98.38   16.26
   0  -6   6  124.97   18.54
   0  -6   6   91.86   16.59
   0  -6   6  107.27   16.09
   0   6  -6   81.28   15.32
   0   6  -6  126.32   19.64
   0   6  -6   90.85   16.68
   0   6  -6   90.00   11.43
   0   6  -6   84.50   15.16
   0  -6   5  224.28   18.96
   0  -6   5  189.73   17.53
   0  -6   5  217.93   19.22
   0  -6   5  195.41   17.27
   0   6  -5  171.70   16.85
   0   6  -5  224.02   20.07
   0   6  -5  160.27   17.53
   0   6  -5  159.93   13.46
   0   6  -5  162.13   16.51
   0  -6   4   78.15   13.72
   0  -6   4   70.86    7.11
   0  -6   4   64.94   13.38
   0  -6   4   58.93   12.19
   0  -6   4   62.06   12.02
   0   6  -4   42.16   11.43
   0   6  -4   88.39   14.90
   0   6  -4   48.00   11.18
   0   6  -4   68.16   11.35
   0   6  -4   68.49   11.18
   0   6  -4   44.28   11.26
   0  -6   3  165.86   15.07
   0  -6   3  116.50    8.89
   0  -6   3  108.79   13.04
   0  -6   3  135.38   13.72
   0  -6   3  120.05   13.38
   0   6  -3  129.20    9.14
   0   6  -3  106.68   15.66
   0   6  -3  152.48   16.09
   0   6  -3  123.02   13.29
   0   6  -3  101.60   12.36
   0   6  -3  156.63   14.22
   0   6  -3   99.06   14.99
   0  -6   2  418.67   23.45
   0  -6   2  326.30   15.58
   0  -6   2  322.32   21.42
   0  -6   2  384.46   19.64
   0  -6   2  381.42   21.17
   0   6  -2  329.94   15.75
   0   6  -2  305.13   21.00
   0   6  -2  441.10   24.64
   0   6  -2  317.83   17.95
   0   6  -2  333.24   20.74
   0   6  -2  416.38   21.42
   0   6  -2  332.39   21.84
   0  -6   1  150.70   15.66
   0  -6   1  132.25   11.94
   0  -6   1  140.20   14.05
   0  -6   1  152.06   12.11
   0  -6   1  166.79   14.82
   0   6  -1  137.83   12.28
   0   6  -1  107.61   12.62
   0   6  -1  147.66   14.65
   0   6  -1  131.06   11.60
   0   6  -1  104.14   15.24
   0   6  -1  158.41   14.31
   0   6  -1  105.07   15.07
   0  -6   0  181.86   17.27
   0  -6   0  153.67   13.72
   0  -6   0  121.58   13.89
   0  -6   0  188.55   12.02
   0  -6   0  159.51   14.56
   0   6   0  128.78   12.78
   0   6   0  151.38   14.99
   0   6   0  187.11   17.27
   0   6   0  145.88   10.58
   0   6   0   98.97   15.24
   0   6   0  171.36   15.24
   0   6   0  161.12   15.58
   0  -6  -1  146.39   16.59
   0  -6  -1  110.74   13.29
   0  -6  -1  105.66   12.78
   0  -6  -1  161.63   14.65
   0   6   1  108.29   13.04
   0   6   1   91.61   13.80
   0   6   1  150.20   15.32
   0   6   1  113.20   16.51
   0   6   1  125.05   14.05
   0   6   1  102.44   14.48
   0  -6  -2  298.78   22.27
   0  -6  -2  254.76   20.15
   0  -6  -2  258.99   18.12
   0   6   2  207.34   18.46
   0   6   2  218.01   16.68
   0   6   2  329.43   23.28
   0   6   2  221.48   20.32
   0   6   2  292.94   20.66
   0   6   2  219.37   17.02
   0  -6  -3  110.23   18.46
   0  -6  -3  106.42   16.85
   0  -6  -3  103.29   12.02
   0   6   3  101.60   16.85
   0   6   3  111.00   12.95
   0   6   3  148.67   17.86
   0   6   3  104.22   17.95
   0   6   3  131.06   17.95
   0   6   3  111.08   13.29
   0  -6  -4    6.43   10.24
   0  -6  -4    4.06    8.21
   0   6   4    3.30    7.45
   0   6   4    5.16    7.96
   0   6   4    0.68    7.54
   0   6   4    8.21    8.30
   0  -6  -5  117.51   21.76
   0  -6  -5  107.95   20.32
   0   6   5  103.04   19.39
   0   6   5  134.19   21.67
   0   6   5  118.53   20.23
   0   6   5   99.82   17.27
   0  -6  -6   19.13   13.38
   0  -6  -6    9.14    8.38
   0   6   6   15.49   10.67
   0   6   6    8.30   10.16
   0   6   6   15.07   10.92
   0   6   6   11.18   10.24
   0  -6  -7  151.38   27.35
   0  -6  -7  132.59   24.47
   0   6   7  123.27   23.45
   0   6   7  180.67   26.92
   0   6   7  138.09   23.11
   0   6   7  154.51   23.45
   0  -6  -8   17.10   16.68
   0  -6  -8   20.83   13.97
   0   6   8   13.21   11.43
   0   6   8    3.98   10.41
   0   6   8    9.14   12.28
   0   6   8   11.01   11.68
   0  -6  -9   16.34   18.03
   0  -6  -9   58.50   20.15
   0   6   9   43.09   16.34
   0   6   9   52.58   18.29
   0   6   9   57.15   18.03
   0  -7  12   37.00   17.36
   0  -7  12   21.08   14.73
   0  -7  12   22.52   13.55
   0   7 -12   22.61   15.24
   0   7 -12   17.95   16.00
   0  -7  11   19.64   13.89
   0  -7  11   17.27   11.68
   0  -7  11   28.53   13.72
   0   7 -11   42.67   17.61
   0   7 -11   14.05   12.11
   0  -7  10   84.66   19.39
   0  -7  10   78.40   17.10
   0  -7  10   70.86   19.30
   0  -7  10   72.47   17.10
   0   7 -10   83.06   17.69
   0   7 -10   87.04   20.91
   0   7 -10   89.41   21.17
   0   7 -10   71.80   16.76
   0  -7   9   21.93   11.85
   0  -7   9   27.43   11.51
   0  -7   9   18.63   11.68
   0  -7   9   14.82   10.75
   0   7  -9   31.24   12.28
   0   7  -9   26.58   13.46
   0   7  -9   21.42   12.87
   0   7  -9   25.65   11.51
   0  -7   8  209.71   22.35
   0  -7   8  170.60   24.04
   0  -7   8  130.05   21.34
   0  -7   8  141.47   20.40
   0   7  -8  159.25   23.11
   0   7  -8  178.90   25.40
   0   7  -8  128.27   22.27
   0   7  -8  127.00   20.49
   0  -7   7   64.01   15.07
   0  -7   7   37.68   13.04
   0  -7   7   49.87   13.38
   0  -7   7   57.57   13.80
   0   7  -7   47.92   13.55
   0   7  -7   74.67   17.10
   0   7  -7   26.42   12.53
   0   7  -7   53.25   14.22
   0  -7   6  352.71   25.74
   0  -7   6  278.46   24.04
   0  -7   6  280.49   24.04
   0  -7   6  339.68   24.13
   0   7  -6  286.76   24.55
   0   7  -6  372.95   27.94
   0   7  -6  294.89   24.64
   0   7  -6  274.74   18.29
   0   7  -6  307.16   25.31
   0  -7   5    8.72    8.21
   0  -7   5    3.73    5.93
   0  -7   5    4.06    7.28
   0  -7   5    6.77    7.87
   0   7  -5    0.34    5.25
   0   7  -5    6.86    7.03
   0   7  -5    6.69    7.96
   0   7  -5    2.62    5.50
   0   7  -5    5.00    6.69
   0  -7   4   46.99   12.36
   0  -7   4   37.59   12.11
   0  -7   4   46.48   11.77
   0  -7   4   40.89   11.26
   0   7  -4   54.52   13.72
   0   7  -4   60.70   13.55
   0   7  -4   35.90   10.84
   0   7  -4   54.10   11.60
   0   7  -4   45.80   12.70
   0  -7   3   33.70   10.67
   0  -7   3   41.06    9.48
   0  -7   3   43.18   11.77
   0  -7   3   33.36    9.48
   0  -7   3   40.47   11.26
   0   7  -3   26.08    6.60
   0   7  -3   32.85   11.09
   0   7  -3   36.15   11.60
   0   7  -3   30.14    9.65
   0   7  -3   31.58    9.82
   0   7  -3   22.44    9.82
   0  -7   2  126.57   18.20
   0  -7   2  121.07   11.85
   0  -7   2  115.65   17.36
   0  -7   2  144.27   14.39
   0  -7   2  129.11   15.66
   0   7  -2  101.09   10.58
   0   7  -2  123.10   18.20
   0   7  -2  163.66   16.93
   0   7  -2  113.20   14.82
   0   7  -2  107.19   15.92
   0   7  -2  126.66   14.56
   0   7  -2  107.02   16.85
   0  -7   1   53.17   13.55
   0  -7   1   25.74    8.55
   0  -7   1   28.28   10.41
   0  -7   1   33.02    8.47
   0  -7   1   57.15   12.87
   0   7  -1   30.06    8.47
   0   7  -1   38.78   11.43
   0   7  -1   45.80   12.28
   0   7  -1   22.69    7.79
   0   7  -1   30.48   10.58
   0   7  -1   41.99   10.92
   0   7  -1   28.19   10.33
   0  -7   0   37.08   12.02
   0  -7   0   38.10   10.50
   0  -7   0   32.00   10.50
   0   7   0   29.63    9.14
   0   7   0   26.75    9.91
   0   7   0   46.82   12.78
   0   7   0   29.63   10.92
   0   7   0   44.62   11.85
   0   7   0   37.59   11.18
   0  -7  -1   58.42   14.56
   0  -7  -1   71.46   13.72
   0  -7  -1   73.83   13.97
   0   7   1   49.70   12.19
   0   7   1   45.72   11.60
   0   7   1   84.41   16.34
   0   7   1   52.66   13.21
   0   7   1   89.66   15.58
   0   7   1   54.69   12.45
   0  -7  -2  164.17   20.49
   0  -7  -2  128.18   15.58
   0  -7  -2  119.38   14.56
   0   7   2  123.02   18.63
   0   7   2  120.14   14.82
   0   7   2  175.51   20.07
   0   7   2  127.51   20.91
   0   7   2  142.66   17.36
   0   7   2  106.93   16.09
   0  -7  -3   24.55   11.51
   0  -7  -3   35.31   12.19
   0  -7  -3   26.75    8.97
   0   7   3   22.18   10.33
   0   7   3   23.71    9.31
   0   7   3   18.88   10.50
   0   7   3   29.80   12.87
   0   7   3   24.89   10.67
   0  -7  -4  346.36   30.14
   0  -7  -4  352.46   28.53
   0   7   4  291.16   25.15
   0   7   4  392.25   29.63
   0   7   4  285.83   27.01
   0   7   4  393.35   28.53
   0  -7  -5   87.20   21.00
   0  -7  -5   51.56   16.00
   0   7   5   56.30   15.58
   0   7   5   83.65   19.05
   0   7   5   51.98   16.34
   0   7   5   67.14   16.85
   0  -7  -6   64.43   20.49
   0  -7  -6   47.75   16.68
   0   7   6   40.47   13.72
   0   7   6   61.04   17.27
   0   7   6   48.94   16.26
   0   7   6   82.55   18.37
   0  -7  -7   51.73   20.32
   0  -7  -7   56.05   17.10
   0   7   7   58.59   18.29
   0   7   7   56.73   18.03
   0   7   7   63.08   18.29
   0   7   7   47.84   16.26
   0  -7  -8   -0.42   16.09
   0  -7  -8   -2.20   11.43
   0   7   8    2.37    9.14
   0   7   8    0.34   10.67
   0   7   8    4.74   11.51
   0   7   8    6.60   13.38
   0  -8  12   64.01   20.66
   0  -8  12   51.73   20.23
   0  -8  12   54.35   18.63
   0   8 -12   65.53   20.15
   0   8 -12   61.89   22.18
   0  -8  11   53.17   17.95
   0  -8  11   36.49   15.58
   0  -8  11   51.81   18.46
   0  -8  11   44.03   16.85
   0   8 -11   40.13   16.51
   0   8 -11   46.40   18.37
   0   8 -11   43.86   16.68
   0  -8  10   79.33   19.81
   0  -8  10   63.50   17.27
   0  -8  10   73.07   20.83
   0  -8  10   55.96   16.42
   0   8 -10   63.50   17.19
   0   8 -10   64.68   19.13
   0   8 -10   63.67   18.20
   0  -8   9   59.86   16.42
   0  -8   9   38.95   13.97
   0  -8   9   39.37   15.75
   0  -8   9   37.00   13.72
   0   8  -9   33.44   13.80
   0   8  -9   40.55   15.83
   0   8  -9   42.33   16.42
   0  -8   8   79.84   18.20
   0  -8   8   76.79   17.95
   0  -8   8   62.82   17.27
   0  -8   8   59.18   15.32
   0   8  -8   80.01   17.69
   0   8  -8   82.38   19.90
   0   8  -8   69.43   18.20
   0   8  -8   38.95   13.89
   0  -8   7   26.25   12.02
   0  -8   7   12.78    9.48
   0  -8   7    9.48    8.38
   0  -8   7   12.87   10.16
   0   8  -7   11.43   10.50
   0   8  -7   11.60   10.92
   0   8  -7    0.08    9.06
   0   8  -7    2.79    9.23
   0  -8   6  108.88   19.39
   0  -8   6   98.55   19.73
   0  -8   6  112.69   19.81
   0  -8   6  104.56   17.86
   0   8  -6   57.49   15.49
   0   8  -6  113.70   21.00
   0   8  -6   90.42   16.85
   0   8  -6   63.92   18.63
   0   8  -6   78.99   17.53
   0  -8   5   58.33   14.73
   0  -8   5   42.50   13.63
   0  -8   5   50.12   13.63
   0  -8   5   48.17   13.12
   0   8  -5   35.81   12.45
   0   8  -5   48.17   14.05
   0   8  -5   32.00   11.68
   0   8  -5   43.52   11.35
   0   8  -5   24.47   11.51
   0  -8   4  266.44   23.62
   0  -8   4  245.10   23.96
   0  -8   4  255.18   22.35
   0  -8   4  305.72   23.88
   0   8  -4  238.16   23.54
   0   8  -4  270.33   24.72
   0   8  -4  246.80   21.34
   0   8  -4  225.72   20.40
   0   8  -4  219.54   21.76
   0  -8   3   44.36   13.21
   0  -8   3   25.40   11.60
   0  -8   3   38.18   11.18
   0  -8   3   36.15   13.29
   0   8  -3   24.55    9.99
   0   8  -3   35.39   12.53
   0   8  -3   29.80   10.16
   0   8  -3   27.69   10.50
   0   8  -3   28.02   10.41
   0  -8   2   21.42   10.58
   0  -8   2   34.63   12.78
   0  -8   2   31.58    9.91
   0   8  -2   27.09    8.30
   0   8  -2   18.46    9.74
   0   8  -2   43.60   13.29
   0   8  -2   24.64    9.06
   0   8  -2   26.75   11.09
   0   8  -2   35.47   12.19
   0  -8   1   38.18   12.87
   0  -8   1   39.79   10.84
   0  -8   1   52.41   13.97
   0   8  -1   43.60   10.41
   0   8  -1   49.95   13.21
   0   8  -1   43.52   13.55
   0   8  -1   32.34   11.35
   0   8  -1   53.00   14.05
   0  -8   0   10.16    9.74
   0  -8   0    9.14    7.28
   0  -8   0    9.99    8.72
   0   8   0   11.94    7.28
   0   8   0   11.94    8.97
   0   8   0   16.34   10.41
   0   8   0    5.42    7.11
   0   8   0   18.37   10.08
   0   8   0    9.74    8.89
   0  -8  -1   40.13   14.22
   0  -8  -1   26.33   10.24
   0  -8  -1   15.66    9.06
   0   8   1   26.92    9.82
   0   8   1   22.35    9.91
   0   8   1   26.75   11.77
   0   8   1   25.57   12.28
   0   8   1   31.83   11.60
   0   8   1   25.48   10.33
   0  -8  -2   80.09   18.54
   0  -8  -2   65.53   15.66
   0  -8  -2   61.38   13.97
   0   8   2   45.47   13.04
   0   8   2   36.41   12.36
   0   8   2   60.62   16.17
   0   8   2   59.77   16.93
   0   8   2   79.42   16.68
   0   8   2   57.91   14.14
   0  -8  -3  161.63   25.74
   0  -8  -3  119.12   21.25
   0   8   3  105.92   19.56
   0   8   3  137.07   23.20
   0   8   3  140.37   24.13
   0   8   3  165.52   23.37
   0  -8  -4  103.04   22.77
   0  -8  -4   76.20   18.88
   0   8   4   65.45   16.51
   0   8   4  129.54   22.94
   0   8   4   91.27   20.49
   0   8   4   99.99   19.81
   0  -8  -5   95.50   23.54
   0  -8  -5   70.61   18.96
   0   8   5   53.42   16.85
   0   8   5   84.41   20.23
   0   8   5   69.76   19.56
   0   8   5   82.21   19.47
   0  -8  -6  129.20   26.92
   0  -8  -6  111.93   23.96
   0   8   6   81.79   19.73
   0   8   6  141.64   26.08
   0   8   6   91.52   21.76
   0   8   6  124.88   23.96
   0  -8  -7  143.59   30.06
   0  -8  -7   90.93   21.93
   0   8   7   83.14   22.35
   0   8   7  109.05   23.62
   0   8   7   95.76   23.88
   0   8   7   89.24   21.59
   0  -9  11   84.58   21.59
   0  -9  11   64.60   18.63
   0  -9  11   87.12   24.04
   0  -9  11   68.75   19.22
   0   9 -11   70.78   20.15
   0   9 -11   72.30   23.20
   0   9 -11   46.73   20.74
   0  -9  10   39.03   16.26
   0  -9  10   12.02   11.35
   0  -9  10   16.51   14.82
   0  -9  10   30.99   15.66
   0   9 -10   16.93   13.55
   0   9 -10   27.69   16.42
   0   9 -10   24.21   16.76
   0  -9   9   48.68   16.59
   0  -9   9   53.76   16.68
   0  -9   9   36.83   15.92
   0  -9   9   60.45   17.19
   0   9  -9   46.40   16.76
   0   9  -9   60.54   19.90
   0   9  -9   35.31   16.34
   0  -9   8   30.23   14.31
   0  -9   8   11.09   11.01
   0  -9   8   29.97   14.39
   0  -9   8   24.30   12.62
   0   9  -8   26.84   13.89
   0   9  -8   20.83   14.31
   0   9  -8   19.47   12.53
   0  -9   7  127.67   22.10
   0  -9   7  114.04   21.42
   0  -9   7  137.16   23.62
   0  -9   7  120.73   20.74
   0   9  -7  104.82   21.17
   0   9  -7  130.38   24.21
   0   9  -7   73.74   18.12
   0  -9   6   36.32   13.80
   0  -9   6   27.35   12.95
   0  -9   6   34.46   13.38
   0   9  -6   27.85   13.55
   0   9  -6   29.29   13.55
   0   9  -6   20.40   11.77
   0  -9   5  144.27   22.77
   0  -9   5  103.46   19.90
   0  -9   5  122.09   20.32
   0   9  -5   87.20   19.13
   0   9  -5  160.44   25.23
   0   9  -5  109.05   19.22
   0   9  -5   81.70   16.51
   0   9  -5   76.79   17.95
   0  -9   4   41.40   13.72
   0  -9   4   32.00   13.55
   0  -9   4   43.94   12.87
   0   9  -4   36.07   14.14
   0   9  -4   53.59   16.26
   0   9  -4   29.55   11.18
   0   9  -4   40.05   12.45
   0   9  -4   33.10   13.72
   0  -9   3   46.90   14.73
   0  -9   3   34.04   13.46
   0  -9   3   41.74   12.36
   0   9  -3   26.50   12.11
   0   9  -3   66.46   17.27
   0   9  -3   28.02   10.08
   0   9  -3   39.71   12.87
   0   9  -3   29.04   12.87
   0  -9   2  154.51   23.11
   0  -9   2  133.60   22.52
   0   9  -2  157.82   23.71
   0   9  -2  179.24   25.82
   0   9  -2  121.41   21.25
   0   9  -2  136.31   22.18
   0  -9   1   57.40   16.51
   0  -9   1   54.35   15.66
   0   9  -1   46.14   15.07
   0   9  -1   84.16   18.71
   0   9  -1   60.11   16.59
   0   9  -1   41.23   13.97
   0  -9   0   26.25   13.38
   0  -9   0   24.81   10.08
   0  -9   0   32.68   12.11
   0   9   0   16.26    9.23
   0   9   0   10.67    9.91
   0   9   0   39.54   14.65
   0   9   0    8.72   10.92
   0   9   0   12.95    9.82
   0  -9  -1   21.17   13.38
   0  -9  -1   11.18    9.14
   0  -9  -1   21.25   10.75
   0   9   1   11.85    9.06
   0   9   1   12.19   10.08
   0   9   1   21.76   12.53
   0   9   1   13.12   11.77
   0   9   1   12.95    9.99
   0  -9  -2   68.66   19.22
   0  -9  -2   91.35   18.88
   0   9   2   75.52   17.02
   0   9   2  113.87   22.44
   0   9   2   66.80   19.64
   0  -9  -3    5.50   13.04
   0  -9  -3   17.86   11.68
   0   9   3   21.17   11.18
   0   9   3   20.15   13.29
   0   9   3   11.35   12.87
   0  -9  -4   -4.06   12.78
   0  -9  -4   -2.03    9.23
   0   9   4    2.29    8.72
   0   9   4    4.83   10.33
   0   9   4    3.89   11.60
   0  -9  -5   25.40   15.32
   0  -9  -5    2.79   11.35
   0   9   5   18.71   13.12
   0   9   5   36.07   16.26
   0   9   5   19.39   14.90
   0 -10  10   75.35   20.74
   0 -10  10   43.01   16.85
   0 -10  10   75.35   23.20
   0  10 -10   58.00   19.56
   0  10 -10   65.45   20.74
   0  10 -10   63.50   19.39
   0 -10   9   -3.22   10.58
   0 -10   9    2.12   10.24
   0 -10   9   -8.47    6.94
   0  10  -9    2.29   12.19
   0  10  -9    8.89   13.72
   0  10  -9    8.04   13.04
   0 -10   8   48.60   16.93
   0 -10   8   43.01   15.92
   0 -10   8   36.83   16.76
   0  10  -8   23.96   14.39
   0  10  -8   48.17   18.37
   0  10  -8   21.25   14.39
   0 -10   7   15.75   12.53
   0 -10   7    8.64    8.64
   0 -10   7    8.21   11.77
   0  10  -7    3.13    9.48
   0  10  -7    9.40   12.87
   0  10  -7    4.74   10.33
   0 -10   6   84.75   19.56
   0 -10   6   50.38   17.19
   0 -10   6   57.83   16.68
   0  10  -6   50.80   17.44
   0  10  -6   85.68   21.34
   0  10  -6   44.28   15.32
   0 -10   5  116.33   22.35
   0 -10   5  114.13   22.52
   0 -10   5  121.32   20.74
   0  10  -5   87.88   21.00
   0  10  -5  126.66   24.38
   0  10  -5  100.41   18.96
   0  10  -5   84.24   18.54
   0 -10   4  132.92   23.54
   0 -10   4  121.16   22.77
   0  10  -4   56.30   17.27
   0  10  -4  139.78   24.38
   0  10  -4   98.38   20.32
   0 -10   3  190.07   23.37
   0  10  -3  210.05   25.91
   0  10  -3  266.36   28.62
   0  10  -3  218.01   25.48
   0 -10   2   10.08   12.36
   0 -10   2   18.29   12.28
   0  10  -2   14.90   12.19
   0  10  -2    4.91   11.09
   0  10  -2    9.74   11.51
   0 -10   1   51.73   16.68
   0 -10   1   58.25   17.10
   0  10  -1   56.56   16.68
   0  10  -1   67.56   18.71
   0  10  -1   59.10   18.63
   0 -10   0    8.38    9.91
   0 -10   0   19.13   12.62
   0  10   0   21.25   13.46
   0  10   0   13.12   12.45
   0  10   0   14.39   13.38
   0 -10  -1   65.70   19.47
   0 -10  -1   52.49   16.85
   0  10   1   41.32   16.59
   0  10   1   45.55   15.32
   0  10   1   60.11   18.46
   0  10   1   40.22   16.17
   0 -10  -2   24.64   15.16
   0 -10  -2   14.73   11.94
   0  10   2   12.78   10.16
   0  10   2   13.80   13.46
   0  10   2    8.89   13.80
   0 -10  -3    5.00   14.14
   0 -10  -3   16.68   12.53
   0  10   3   11.85   10.75
   0  10   3    8.21   12.87
   0  10   3   16.26   15.07
   0 -10  -4   25.99   19.05
   0 -10  -4   15.75   13.72
   0  10   4   20.91   13.46
   0  10   4    9.48   13.55
   0  10   4   22.52   15.32
   0 -11   8   25.91   15.24
   0 -11   8    7.20   11.60
   0 -11   8   19.73   14.56
   0  11  -8   26.25   16.09
   0  11  -8   16.85   16.42
   0  11  -8   11.35   13.89
   0 -11   7   39.12   17.61
   0 -11   7   32.17   14.31
   0 -11   7   41.40   16.42
   0  11  -7   32.68   17.44
   0  11  -7   51.90   18.20
   0  11  -7   35.73   16.42
   0 -11   6   34.97   15.92
   0 -11   6   17.27   13.12
   0  11  -6   21.76   15.07
   0  11  -6   17.02   15.32
   0 -11   5   48.94   17.78
   0 -11   5   40.72   16.93
   0  11  -5   46.82   17.69
   0  11  -5   53.42   17.19
   0  11  -5   41.23   15.16
   0 -11   4  169.33   27.43
   0 -11   4  184.91   30.73
   0  11  -4  164.25   28.45
   0  11  -4  207.85   31.75
   0  11  -4  103.88   21.34
   0 -11   3    5.42   12.87
   0 -11   3   21.84   13.89
   0  11  -3    2.62   11.51
   0  11  -3   10.67   14.39
   0  11  -3   12.95   12.19
   0 -11   2  271.01   30.82
   0 -11   2  178.47   28.96
   0  11  -2  205.14   30.39
   0  11  -2  274.65   31.50
   0  11  -2  167.81   28.45
   0 -11   1   48.17   18.88
   0 -11   1   40.39   16.34
   0  11  -1   22.35   13.80
   0  11  -1   33.87   16.26
   0  11  -1   45.38   18.03
   0 -11   0  135.97   25.48
   0  11   0  114.13   23.03
   0  11   0  181.27   29.29
   0  11   0  105.15   24.55
   0 -11  -1   -2.03   14.48
   0  11   1   -0.68   11.43
   0  11   1    2.88   13.63
  -1  11   1   18.63   14.73
  -1  11   1    4.23   13.38
   1 -11  -1   21.17   15.92
  -1  11   0  152.48   27.26
  -1  11   0  170.09   29.38
  -1  11   0  121.16   26.84
   1 -11   0  143.42   26.67
   1 -11   0  169.67   27.60
  -1  11  -1    0.85   10.92
  -1  11  -1    7.03   13.29
  -1  11  -1   10.67   12.78
   1 -11   1    2.62   11.68
   1 -11   1   14.22   12.02
  -1  11  -2   78.91   20.49
  -1  11  -2  139.87   26.25
  -1  11  -2   86.95   21.50
   1 -11   2  127.93   23.96
   1 -11   2  126.49   24.98
  -1  11  -3   38.35   16.26
  -1  11  -3   70.19   20.49
  -1  11  -3   37.51   15.83
   1 -11   3   56.05   17.69
   1 -11   3   37.17   17.02
  -1  11  -4   28.96   15.49
  -1  11  -4   55.46   19.22
  -1  11  -4   36.58   14.90
   1 -11   4   43.77   16.42
   1 -11   4   36.58   17.27
  -1  11  -5    3.64   12.02
  -1  11  -5   -5.84    7.79
  -1  11  -5   -2.79    9.57
   1 -11   5   -3.39   11.01
   1 -11   5    1.02   11.77
  -1  11  -6    3.39   12.62
  -1  11  -6   22.94   13.63
   1 -11   6   10.84   12.62
   1 -11   6    6.01    9.91
  -1  11  -7   34.46   16.76
  -1  11  -7   42.25   19.13
  -1  11  -7   27.26   14.39
   1 -11   7   47.58   17.10
   1 -11   7   17.53   14.39
   1 -11   7   41.91   16.68
  -1  11  -8    4.57   13.63
  -1  11  -8   12.19   14.65
  -1  11  -8    9.14   13.46
   1 -11   8   11.60   11.85
   1 -11   8   17.10   14.99
  -1  10   4   12.78   10.24
  -1  10   4   28.53   15.75
  -1  10   4   15.24   15.66
   1 -10  -4    3.30   15.32
   1 -10  -4   11.85   12.28
  -1  10   3   16.85   11.85
  -1  10   3   28.53   15.58
  -1  10   3    9.06   14.56
   1 -10  -3    7.20   14.48
   1 -10  -3   14.73   12.19
  -1  10   2   39.79   14.39
  -1  10   2   23.88   14.48
  -1  10   2   28.62   14.22
   1 -10  -2   24.30   15.92
   1 -10  -2   34.63   13.63
  -1  10   1   45.72   14.39
  -1  10   1   42.76   15.24
  -1  10   1   64.18   19.22
  -1  10   1   69.59   20.15
   1 -10  -1   62.23   18.37
   1 -10  -1   39.45   13.21
   1 -10  -1   47.58   15.24
  -1  10   0    8.55   10.75
  -1  10   0   11.09   12.62
  -1  10   0   13.63   12.87
   1 -10   0    8.04   12.62
   1 -10   0   13.21   11.43
  -1  10  -1   59.86   17.10
  -1  10  -1   82.89   20.23
  -1  10  -1   63.08   17.86
   1 -10   1   86.19   19.73
   1 -10   1   53.00   17.10
  -1  10  -2    3.39   10.08
  -1  10  -2    9.23   11.60
  -1  10  -2    4.66    9.31
   1 -10   2   -1.10    9.31
   1 -10   2    4.40    9.99
  -1  10  -3   88.98   20.15
  -1  10  -3  129.03   23.88
  -1  10  -3   88.64   19.64
   1 -10   3  142.07   23.28
   1 -10   3   97.36   22.18
  -1  10  -4   31.92   14.05
  -1  10  -4   43.01   14.99
  -1  10  -4   48.85   14.99
   1 -10   4   38.69   14.22
   1 -10   4   56.30   16.42
  -1  10  -5   29.12   14.31
  -1  10  -5   86.95   21.34
  -1  10  -5   38.44   13.89
  -1  10  -5   50.12   14.39
   1 -10   5   80.85   18.71
   1 -10   5   30.31   14.14
   1 -10   5   50.04   14.65
  -1  10  -6   20.91   14.05
  -1  10  -6   31.16   15.66
  -1  10  -6   19.73   12.70
   1 -10   6   18.71   11.94
   1 -10   6   22.77   13.72
   1 -10   6   17.86   11.94
  -1  10  -7   23.62   14.05
  -1  10  -7   38.61   17.10
  -1  10  -7   29.12   12.53
   1 -10   7   52.32   16.93
   1 -10   7   48.00   16.59
   1 -10   7   54.69   17.27
  -1  10  -8   17.69   13.89
  -1  10  -8   14.48   12.11
  -1  10  -8    7.28   12.11
   1 -10   8   30.82   14.39
   1 -10   8   10.84   10.75
   1 -10   8   21.42   14.73
  -1  10  -9    2.03   12.11
  -1  10  -9   -1.52   12.02
  -1  10  -9   -5.00    7.28
   1 -10   9    3.56   10.84
   1 -10   9    2.37    9.40
   1 -10   9   -0.68   11.35
  -1   9   6    9.57   11.77
  -1   9   6   10.75   14.48
  -1   9   6    6.60   13.63
  -1   9   6   13.55   13.38
   1  -9  -6    1.10   15.92
   1  -9  -6   13.38   11.77
  -1   9   5   10.67    9.74
  -1   9   5   22.18   12.62
  -1   9   5    7.96   10.58
  -1   9   5   38.52   15.75
   1  -9  -5   -5.50   13.04
   1  -9  -5   21.50   13.97
  -1   9   4   10.75   10.92
  -1   9   4   10.92   11.85
  -1   9   4   12.87   14.31
  -1   9   4   26.33   14.31
   1  -9  -4   16.42   15.41
   1  -9  -4   12.45   11.94
  -1   9   3   58.84   15.75
  -1   9   3   87.20   21.17
  -1   9   3   80.18   20.32
  -1   9   3  111.16   21.25
   1  -9  -3   53.00   17.95
   1  -9  -3   45.30   15.32
  -1   9   2   69.26   15.75
  -1   9   2   81.87   17.10
  -1   9   2  117.26   23.45
  -1   9   2   93.30   20.57
  -1   9   2  104.65   19.64
   1  -9  -2   90.00   20.49
   1  -9  -2   99.14   19.13
   1  -9  -2   74.42   16.51
  -1   9   1   -0.34    6.77
  -1   9   1    4.57    9.40
  -1   9   1    6.01    9.82
  -1   9   1    2.29    9.48
  -1   9   1    2.79    9.23
  -1   9   1    2.29    9.65
   1  -9  -1   -1.78    9.40
   1  -9  -1   -1.27    6.60
   1  -9  -1    0.76    8.30
  -1   9   0  118.36   18.29
  -1   9   0  116.58   20.23
  -1   9   0  161.96   25.31
  -1   9   0  113.79   22.18
  -1   9   0  154.26   23.11
  -1   9   0  113.54   19.73
   1  -9   0  187.87   22.94
   1  -9   0  132.33   19.81
   1  -9   0  125.64   21.50
  -1   9  -1   18.12    9.14
  -1   9  -1   25.48   12.11
  -1   9  -1   25.82   12.78
  -1   9  -1   25.74   12.62
  -1   9  -1   32.17   12.19
   1  -9   1   20.66   12.02
   1  -9   1   15.58    8.81
   1  -9   1   14.65   11.01
  -1   9  -2  149.52   23.54
  -1   9  -2  178.64   26.08
  -1   9  -2  131.32   21.42
  -1   9  -2  133.94   21.67
   1  -9   2  177.88   21.50
   1  -9   2  144.10   23.62
  -1   9  -3   21.76   12.11
  -1   9  -3   26.75   12.87
  -1   9  -3   15.07   10.41
  -1   9  -3   15.24    9.74
  -1   9  -3   31.24   13.04
   1  -9   3   11.68   10.16
   1  -9   3   21.67   12.11
   1  -9   3   14.82    8.81
  -1   9  -4   51.31   15.49
  -1   9  -4   42.25   15.16
  -1   9  -4   37.93   11.94
  -1   9  -4   57.74   14.73
  -1   9  -4   37.25   13.38
   1  -9   4   51.73   14.14
   1  -9   4   69.17   18.12
   1  -9   4   57.66   13.89
  -1   9  -5   68.75   17.44
  -1   9  -5   89.49   18.96
  -1   9  -5   64.35   15.83
  -1   9  -5   76.28   15.58
  -1   9  -5   59.60   16.17
   1  -9   5   83.82   17.61
   1  -9   5   76.88   18.29
   1  -9   5   91.61   18.29
  -1   9  -6    2.29    9.65
  -1   9  -6    5.76    8.89
  -1   9  -6   -3.47    8.55
   1  -9   6    3.39    8.97
   1  -9   6    5.16    9.48
   1  -9   6    4.74    8.55
  -1   9  -7   96.18   21.25
  -1   9  -7  119.97   22.69
  -1   9  -7   89.58   18.46
   1  -9   7   91.52   18.71
   1  -9   7  101.85   20.74
   1  -9   7  126.57   22.61
  -1   9  -8   38.86   15.16
  -1   9  -8   49.44   17.69
  -1   9  -8   37.68   15.24
   1  -9   8   32.51   13.46
   1  -9   8   44.45   15.16
   1  -9   8   47.24   16.76
  -1   9  -9   38.18   15.49
  -1   9  -9   65.53   20.49
  -1   9  -9   42.84   17.19
   1  -9   9   44.96   15.32
   1  -9   9   39.62   14.82
   1  -9   9   63.84   18.63
  -1   9 -10   17.61   13.46
  -1   9 -10   25.82   15.75
  -1   9 -10   15.16   12.28
   1  -9  10   28.79   14.73
   1  -9  10   28.62   13.80
   1  -9  10   31.24   16.00
  -1   9 -11   39.37   16.68
  -1   9 -11   37.34   18.46
  -1   9 -11   28.87   15.49
   1  -9  11   43.77   18.12
   1  -9  11   30.56   14.39
   1  -9  11   40.72   18.29
  -1   8   7   37.17   16.17
  -1   8   7   73.15   21.17
  -1   8   7   45.55   17.36
  -1   8   7   67.99   19.56
   1  -8  -7   51.31   21.00
   1  -8  -7   58.33   19.30
  -1   8   6   41.82   16.09
  -1   8   6   49.11   17.27
  -1   8   6   46.90   18.12
  -1   8   6   35.56   14.82
   1  -8  -6   53.59   19.81
   1  -8  -6   46.82   17.19
  -1   8   5   15.58   11.01
  -1   8   5   14.56   12.53
  -1   8   5    8.04   11.43
  -1   8   5    8.47   10.84
   1  -8  -5   18.03   14.65
   1  -8  -5   20.74   12.78
  -1   8   4   71.54   17.44
  -1   8   4   87.97   20.15
  -1   8   4   59.10   17.02
  -1   8   4   86.87   18.37
   1  -8  -4   72.81   18.20
   1  -8  -4   74.59   17.02
  -1   8   3   44.87   13.89
  -1   8   3   41.15   15.16
  -1   8   3   41.32   14.73
  -1   8   3   43.69   13.80
   1  -8  -3   30.73   14.90
   1  -8  -3   40.39   13.21
  -1   8   2   13.72    9.06
  -1   8   2   15.83    9.40
  -1   8   2   14.14   11.35
  -1   8   2    3.89    7.54
  -1   8   2   22.86   10.92
  -1   8   2   10.08    8.47
   1  -8  -2   13.89   11.68
   1  -8  -2   16.42    9.65
   1  -8  -2   11.94    8.55
  -1   8   1   28.53   10.50
  -1   8   1   26.50   10.84
  -1   8   1   54.78   15.32
  -1   8   1   36.41   13.72
  -1   8   1   52.66   14.05
  -1   8   1   34.12   12.62
   1  -8  -1   39.62   13.21
   1  -8  -1   45.47   12.36
   1  -8  -1   33.36   11.43
  -1   8   0   19.30    8.97
  -1   8   0   12.62    9.14
  -1   8   0   17.78    9.74
  -1   8   0   18.37   11.01
  -1   8   0   11.68    8.89
  -1   8   0   10.67    9.14
   1  -8   0   14.48    9.91
   1  -8   0   18.03    8.47
   1  -8   0   10.67    9.40
  -1   8  -1   14.99    7.96
  -1   8  -1   19.98   10.24
  -1   8  -1   14.22   10.41
  -1   8  -1   13.55    9.74
  -1   8  -1   28.11   10.84
  -1   8  -1   13.46    9.57
   1  -8   1   26.16   11.18
   1  -8   1    4.49    4.15
   1  -8   1   19.56   10.41
  -1   8  -2  133.09   13.97
  -1   8  -2  127.00   20.07
  -1   8  -2  185.67   21.00
  -1   8  -2  130.81   14.31
  -1   8  -2   95.76   17.19
  -1   8  -2  158.66   17.95
  -1   8  -2  125.13   19.47
   1  -8   2  150.53   18.20
   1  -8   2  139.53   14.39
   1  -8   2  127.42   20.83
   1  -8   2  123.70   14.39
  -1   8  -3   29.89   11.94
  -1   8  -3   38.78   11.85
  -1   8  -3   34.12   10.41
  -1   8  -3   36.49   11.77
  -1   8  -3   25.82   11.26
   1  -8   3   45.38   12.78
   1  -8   3   26.84   11.51
   1  -8   3   51.22   11.85
  -1   8  -4  156.88   23.11
  -1   8  -4  194.64   20.74
  -1   8  -4  127.17   18.37
  -1   8  -4  108.29   16.85
  -1   8  -4  145.96   21.76
   1  -8   4  173.90   19.13
   1  -8   4  153.24   22.44
   1  -8   4  201.84   19.47
  -1   8  -5   43.69   13.97
  -1   8  -5   56.30   15.66
  -1   8  -5   32.68   11.60
  -1   8  -5   36.49   10.75
  -1   8  -5   27.77   11.85
   1  -8   5   43.01   12.53
   1  -8   5   37.93   13.12
   1  -8   5   48.00   13.29
   1  -8   5   45.97   13.04
  -1   8  -6    4.32    7.28
  -1   8  -6    0.25    7.03
  -1   8  -6   -3.64    7.54
  -1   8  -6   -0.17    6.27
   1  -8   6   -0.34    7.62
   1  -8   6    1.27    7.54
   1  -8   6    0.51    8.13
   1  -8   6   -1.86    7.79
  -1   8  -7  115.31   21.08
  -1   8  -7  157.82   24.47
  -1   8  -7   73.40   17.53
  -1   8  -7   88.14   18.37
   1  -8   7  111.00   19.13
   1  -8   7  113.54   20.07
   1  -8   7  102.53   19.90
   1  -8   7  111.42   19.39
  -1   8  -8    2.79    9.74
  -1   8  -8   10.58   11.77
  -1   8  -8    3.39    8.04
  -1   8  -8   11.01   10.58
   1  -8   8   -0.51    7.96
   1  -8   8    7.37    9.40
   1  -8   8   11.85   11.43
   1  -8   8    5.93   10.41
  -1   8  -9   49.19   15.49
  -1   8  -9   50.46   16.09
  -1   8  -9   65.19   17.61
  -1   8  -9   39.62   16.00
   1  -8   9   67.48   17.36
   1  -8   9   40.22   14.31
   1  -8   9   50.54   16.85
   1  -8   9   53.17   15.83
  -1   8 -10   -2.03    9.23
  -1   8 -10    1.61    8.47
  -1   8 -10    2.20   11.60
   1  -8  10    9.48   12.36
   1  -8  10    1.61    8.13
   1  -8  10    4.83   10.92
   1  -8  10   17.53   12.70
  -1   8 -11   65.62   20.66
  -1   8 -11   52.32   19.56
   1  -8  11   41.32   16.17
   1  -8  11   54.10   19.13
   1  -8  11   36.83   15.92
  -1   7   8   23.03   13.97
  -1   7   8   49.27   16.42
  -1   7   8   25.40   14.73
  -1   7   8   29.29   14.99
   1  -7  -8   38.44   19.39
   1  -7  -8   29.04   16.00
  -1   7   7   18.96   11.01
  -1   7   7   20.07   13.55
  -1   7   7   18.96   12.87
  -1   7   7   31.07   13.63
   1  -7  -7   31.33   18.37
   1  -7  -7   29.21   14.65
  -1   7   6   38.86   14.65
  -1   7   6   20.15   13.21
  -1   7   6   25.57   13.72
  -1   7   6   35.22   13.72
   1  -7  -6   31.16   16.42
   1  -7  -6   44.45   15.49
  -1   7   5    3.05    8.64
  -1   7   5    7.03   10.50
  -1   7   5    6.94    9.57
  -1   7   5    1.86    9.06
   1  -7  -5    3.81   10.92
   1  -7  -5   -1.52    7.87
  -1   7   4   44.96   13.72
  -1   7   4   41.06   14.05
  -1   7   4   30.14   12.62
  -1   7   4   27.94   11.26
   1  -7  -4   29.97   13.72
   1  -7  -4   36.58   13.21
  -1   7   3   59.94   14.05
  -1   7   3   45.97   10.92
  -1   7   3   59.52   15.41
  -1   7   3   64.35   16.26
  -1   7   3   81.79   15.66
  -1   7   3   45.04   11.35
   1  -7  -3   79.42   17.95
   1  -7  -3   74.25   15.92
   1  -7  -3   65.02   13.12
  -1   7   2   44.53   11.43
  -1   7   2   61.97   13.55
  -1   7   2   88.31   16.68
  -1   7   2   64.77   15.58
  -1   7   2   86.44   15.66
  -1   7   2   65.28   13.72
   1  -7  -2   73.57   16.51
   1  -7  -2   65.53   14.14
   1  -7  -2   64.77   13.46
  -1   7   1   30.39   10.08
  -1   7   1   25.06    9.91
  -1   7   1   41.40   12.53
  -1   7   1   50.80   13.55
  -1   7   1   48.85   12.11
  -1   7   1   33.87   11.01
   1  -7  -1   43.77   12.53
   1  -7  -1   43.86   11.77
   1  -7  -1   54.19   12.62
  -1   7   0    6.43    5.93
  -1   7   0    9.40    7.45
  -1   7   0    1.35    7.28
  -1   7   0   -3.56    6.10
  -1   7   0    4.91    7.37
  -1   7   0   -0.68    6.01
   1  -7   0    5.93    8.30
   1  -7   0    1.61    5.42
   1  -7   0    7.20    7.54
  -1   7  -1  132.08   13.38
  -1   7  -1  132.59   18.63
  -1   7  -1  163.91   18.12
  -1   7  -1  124.20   12.36
  -1   7  -1  122.68   14.99
  -1   7  -1  161.37   16.59
  -1   7  -1  159.25   17.86
   1  -7   1  159.85   17.19
   1  -7   1    2.03    2.46
   1  -7   1  133.01   16.51
   1  -7   1  145.96   12.87
  -1   7  -2   32.43    7.87
  -1   7  -2   18.20    8.30
  -1   7  -2   41.99   11.43
  -1   7  -2   35.31    9.57
  -1   7  -2   47.92   12.19
  -1   7  -2   43.69   11.01
  -1   7  -2   27.85    9.74
   1  -7   2   29.89   10.16
   1  -7   2   39.12    8.97
   1  -7   2   36.49   11.68
   1  -7   2   51.39   10.50
   1  -7   2   42.50   10.75
  -1   7  -3  248.75   15.16
  -1   7  -3  278.21   22.77
  -1   7  -3  321.73   17.10
  -1   7  -3  344.92   25.06
  -1   7  -3  244.51   18.71
  -1   7  -3  234.01   19.05
  -1   7  -3  313.68   21.25
  -1   7  -3  275.33   22.86
   1  -7   3  338.49   22.52
   1  -7   3  345.94   17.78
   1  -7   3  271.10   15.75
   1  -7   3  258.57   21.08
   1  -7   3  301.24   20.66
   1  -7   3  327.31   22.01
  -1   7  -4  225.97   21.25
  -1   7  -4  271.01   23.20
  -1   7  -4  211.24   19.13
  -1   7  -4  233.08   18.80
  -1   7  -4  229.44   21.59
   1  -7   4  277.79   21.08
   1  -7   4  204.55   20.40
   1  -7   4  271.44   20.83
  -1   7  -5   14.31    8.30
  -1   7  -5   20.32   10.50
  -1   7  -5   16.42    9.31
  -1   7  -5   14.56    6.94
  -1   7  -5   13.80    7.96
   1  -7   5   15.83    8.55
   1  -7   5   17.61    8.81
   1  -7   5   18.71    8.21
   1  -7   5   18.96    9.31
  -1   7  -6   90.68   17.27
  -1   7  -6  148.93   21.76
  -1   7  -6   88.90   17.10
  -1   7  -6   92.37   17.44
   1  -7   6  116.50   17.44
   1  -7   6  112.18   18.88
   1  -7   6   90.59   17.27
   1  -7   6  108.96   17.19
  -1   7  -7   30.99   11.68
  -1   7  -7   41.32   13.12
  -1   7  -7   21.50    9.99
  -1   7  -7   35.81   12.62
   1  -7   7   28.79   11.09
   1  -7   7   30.65   11.51
   1  -7   7   29.29   11.85
   1  -7   7   36.24   12.19
  -1   7  -8  271.44   24.64
  -1   7  -8  400.63   31.41
  -1   7  -8  379.13   30.90
  -1   7  -8  238.50   23.37
   1  -7   8  373.88   27.43
   1  -7   8  292.94   25.65
   1  -7   8  313.43   27.94
   1  -7   8  328.92   26.16
  -1   7  -9   33.44   12.11
  -1   7  -9   36.91   13.72
  -1   7  -9   21.84   13.12
  -1   7  -9   19.64   10.67
   1  -7   9   45.55   14.22
   1  -7   9   30.56   11.94
   1  -7   9   41.82   15.07
   1  -7   9   20.15   11.68
  -1   7 -10   31.41   12.70
  -1   7 -10   55.20   16.93
  -1   7 -10   28.45   14.31
   1  -7  10   33.78   13.38
   1  -7  10   31.33   12.78
   1  -7  10   24.64   13.55
   1  -7  10   31.66   13.72
  -1   7 -11    8.21   12.45
  -1   7 -11    1.27   12.11
   1  -7  11    4.06   11.35
   1  -7  11    5.08   11.35
   1  -7  11    9.14   12.02
  -1   7 -12   19.73   13.21
  -1   7 -12   12.11   12.11
  -1   7 -12   -4.32    9.14
   1  -7  12   10.08   12.78
   1  -7  12   12.70   14.39
   1  -7  12   16.68   13.72
  -1   6   9   46.06   18.63
  -1   6   9   29.04   13.46
  -1   6   9   34.63   14.90
   1  -6  -9   28.28   18.71
   1  -6  -9    5.50   12.70
  -1   6   8    1.69   10.16
  -1   6   8    9.91   11.26
  -1   6   8    9.99   12.02
  -1   6   8   15.32   11.51
   1  -6  -8    6.43   14.82
   1  -6  -8    5.84    9.14
  -1   6   7  234.52   26.50
  -1   6   7  234.10   25.06
  -1   6   7  206.58   24.30
  -1   6   7  265.34   25.23
   1  -6  -7  237.40   29.04
   1  -6  -7  184.06   27.60
  -1   6   6   42.50   14.82
  -1   6   6   33.61   13.89
  -1   6   6   33.95   13.63
  -1   6   6   34.12   12.19
   1  -6  -6   19.47   13.72
   1  -6  -6   36.32   13.55
  -1   6   5   97.79   19.05
  -1   6   5  129.37   21.50
  -1   6   5   84.07   17.27
  -1   6   5   99.74   16.68
   1  -6  -5  105.75   20.32
   1  -6  -5   74.93   16.42
  -1   6   4   96.86   17.86
  -1   6   4  129.62   20.23
  -1   6   4   91.18   17.10
  -1   6   4   88.05   14.99
   1  -6  -4   96.94   18.63
   1  -6  -4   80.77   16.68
  -1   6   3   11.18    8.21
  -1   6   3   25.23    8.47
  -1   6   3   25.23   10.58
  -1   6   3   26.33    9.91
  -1   6   3   27.26    9.57
  -1   6   3   20.40    8.21
   1  -6  -3   24.72   11.01
   1  -6  -3   19.05    9.23
   1  -6  -3   20.91    8.13
  -1   6   2  316.73   22.18
  -1   6   2  295.14   19.13
  -1   6   2  403.51   25.82
  -1   6   2  284.22   22.61
  -1   6   2  393.01   22.86
  -1   6   2  300.90   19.39
   1  -6  -2  377.86   23.88
   1  -6  -2  280.75   20.32
   1  -6  -2  344.76   20.91
  -1   6   1   60.70   11.85
  -1   6   1   71.37   12.28
  -1   6   1  103.04   16.00
  -1   6   1   64.26   13.21
  -1   6   1   77.64   13.04
  -1   6   1   57.74   11.43
   1  -6  -1   70.70   13.38
   1  -6  -1   72.81   12.36
   1  -6  -1   79.08   13.29
  -1   6   0   72.47   11.94
  -1   6   0   57.66   11.51
  -1   6   0   63.75   13.04
  -1   6   0   58.76    8.04
  -1   6   0   42.50   11.26
  -1   6   0   75.18   12.36
  -1   6   0   55.03   11.35
   1  -6   0   65.11   11.68
   1  -6   0   62.40   11.18
   1  -6   0   67.90   12.45
   1  -6   0   55.62    7.79
   1  -6   0   61.47   10.67
  -1   6  -1   52.83    9.40
  -1   6  -1   48.09   10.58
  -1   6  -1   66.55   10.67
  -1   6  -1   83.39   14.05
  -1   6  -1   69.51   10.08
  -1   6  -1   49.78   11.35
  -1   6  -1   72.81   12.02
  -1   6  -1   45.97   10.16
   1  -6   1   57.57   11.43
   1  -6   1    0.85    2.20
   1  -6   1   63.75   12.36
   1  -6   1   49.44    8.30
   1  -6   1   59.27   10.58
  -1   6  -2  127.76   11.18
  -1   6  -2  119.97   14.22
  -1   6  -2  142.07   11.77
  -1   6  -2  130.89   14.99
  -1   6  -2  129.28   12.78
  -1   6  -2  111.00   13.21
  -1   6  -2  141.98   13.63
  -1   6  -2  108.03   15.49
   1  -6   2  160.19   14.73
   1  -6   2  111.93   10.58
   1  -6   2  118.28   14.39
   1  -6   2  144.86   12.62
   1  -6   2  166.11   15.07
  -1   6  -3  267.63   14.22
  -1   6  -3  179.57   16.34
  -1   6  -3  305.72   14.99
  -1   6  -3  315.04   21.76
  -1   6  -3  269.57   18.20
  -1   6  -3  243.67   17.27
  -1   6  -3  348.14   20.32
  -1   6  -3  206.50   18.29
   1  -6   3  298.53   19.05
   1  -6   3  332.06   15.58
   1  -6   3  238.08   13.21
   1  -6   3  269.06   20.32
   1  -6   3  270.76   18.12
   1  -6   3  280.58   18.63
  -1   6  -4  174.32   17.27
  -1   6  -4  285.66   13.46
  -1   6  -4  307.33   21.50
  -1   6  -4  214.88   17.10
  -1   6  -4  198.29   14.99
  -1   6  -4  290.74   18.88
  -1   6  -4  203.20   18.63
   1  -6   4  279.82   19.22
   1  -6   4  257.72   13.12
   1  -6   4  226.82   12.02
   1  -6   4  236.38   19.73
   1  -6   4  261.11   18.63
   1  -6   4  246.71   18.37
  -1   6  -5  398.09   25.15
  -1   6  -5  547.10   29.21
  -1   6  -5  410.79   25.65
  -1   6  -5  397.50   19.13
  -1   6  -5  409.78   25.74
   1  -6   5  521.87   26.33
   1  -6   5  428.32   26.08
   1  -6   5  469.64   27.01
   1  -6   5  450.33   24.72
  -1   6  -6   65.87   13.63
  -1   6  -6   93.47   16.68
  -1   6  -6  100.24   16.85
  -1   6  -6   93.72   10.50
  -1   6  -6   88.05   15.24
   1  -6   6   93.55   15.07
   1  -6   6  103.80   16.59
   1  -6   6   89.41   16.42
   1  -6   6  116.58   17.10
  -1   6  -7  118.87   18.03
  -1   6  -7  174.16   20.23
  -1   6  -7  142.32   17.69
  -1   6  -7  123.70   18.20
   1  -6   7  166.79   17.95
   1  -6   7  122.26   18.96
   1  -6   7  149.77   21.84
   1  -6   7  126.49   17.95
  -1   6  -8   59.01   13.63
  -1   6  -8   83.31   17.19
  -1   6  -8   69.51   17.10
  -1   6  -8   47.92   13.04
   1  -6   8   69.43   14.99
   1  -6   8   68.92   14.48
   1  -6   8   81.02   17.27
   1  -6   8   71.12   14.99
  -1   6  -9   -2.29    7.37
  -1   6  -9    9.14   10.75
  -1   6  -9    5.59    8.38
  -1   6  -9   11.35    9.48
   1  -6   9    9.06    8.97
   1  -6   9    7.79    9.06
   1  -6   9    5.25    9.31
   1  -6   9    7.87    9.14
  -1   6 -10   26.50   12.36
  -1   6 -10   20.49   11.68
   1  -6  10   34.54   13.04
   1  -6  10   33.53   14.39
   1  -6  10   30.14   12.78
  -1   6 -11    8.81   12.19
  -1   6 -11    2.20   11.43
   1  -6  11   -2.20    9.91
   1  -6  11   16.26   12.45
   1  -6  11    8.72   11.43
  -1   6 -12   86.87   21.34
  -1   6 -12   79.75   22.18
  -1   6 -12   71.12   21.42
   1  -6  12   70.53   19.81
   1  -6  12   82.46   21.42
   1  -6  12   66.04   18.63
  -1   5  10   31.24   17.69
  -1   5  10   44.36   17.61
  -1   5  10   56.89   16.59
   1  -5 -10   42.16   20.83
   1  -5 -10   31.92   17.61
  -1   5   9   11.60   10.84
  -1   5   9    7.28   11.18
  -1   5   9    3.05    9.48
   1  -5  -9    3.22   14.31
   1  -5  -9    4.74    9.31
  -1   5   8   34.20   14.82
  -1   5   8   64.35   17.27
  -1   5   8   57.15   16.26
  -1   5   8   36.83   12.70
   1  -5  -8   71.03   21.08
   1  -5  -8   37.42   15.41
  -1   5   7  114.64   21.08
  -1   5   7  124.63   21.00
  -1   5   7   94.74   17.78
  -1   5   7  125.30   19.13
   1  -5  -7  110.91   22.77
   1  -5  -7   91.44   19.81
  -1   5   6  102.78   18.63
  -1   5   6  150.28   22.52
  -1   5   6  116.16   18.80
  -1   5   6  137.33   18.71
   1  -5  -6  141.22   22.94
   1  -5  -6  107.86   19.05
  -1   5   5  138.00   16.85
  -1   5   5  186.35   20.23
  -1   5   5  148.25   17.95
  -1   5   5  147.15   15.58
   1  -5  -5  152.48   18.20
   1  -5  -5  120.73   19.05
  -1   5   4  361.69   24.98
  -1   5   4  334.51   17.02
  -1   5   4  448.13   27.35
  -1   5   4  385.65   25.23
  -1   5   4  410.96   22.69
  -1   5   4  362.37   17.78
   1  -5  -4  407.32   26.75
   1  -5  -4  396.99   26.08
   1  -5  -4  352.97   17.44
  -1   5   3  582.41   28.36
  -1   5   3  712.54   24.98
  -1   5   3  956.54   36.41
  -1   5   3  793.39   33.61
  -1   5   3  861.21   30.39
  -1   5   3  734.98   25.48
   1  -5  -3  776.80   33.19
   1  -5  -3  769.86   32.93
   1  -5  -3  671.73   24.21
  -1   5   2  165.27   15.24
  -1   5   2  180.17   13.63
  -1   5   2  261.61   19.13
  -1   5   2  169.24   15.32
  -1   5   2  227.41   15.75
  -1   5   2  167.38   13.38
   1  -5  -2  219.45   17.78
   1  -5  -2  211.75   17.02
   1  -5  -2  197.02   14.22
  -1   5   1   11.43    6.01
  -1   5   1   12.62    5.93
  -1   5   1   19.73    7.20
  -1   5   1   16.76    3.64
  -1   5   1   19.22    7.62
  -1   5   1   16.93    6.60
  -1   5   1   17.10    6.43
   1  -5  -1   17.95    7.62
   1  -5  -1   15.07    6.43
   1  -5  -1   19.30    6.77
   1  -5  -1   13.38    3.30
   1  -5  -1   21.17    6.43
  -1   5   0   85.34    9.91
  -1   5   0   97.53   11.35
  -1   5   0  122.51   11.51
  -1   5   0  130.55   12.87
  -1   5   0   92.54    7.79
  -1   5   0   99.31   11.94
  -1   5   0  119.38   11.51
  -1   5   0   89.83   12.62
   1  -5   0  105.41   11.68
   1  -5   0   92.28   10.24
   1  -5   0   94.40   13.04
   1  -5   0  108.03    8.13
   1  -5   0  123.10   11.09
  -1   5  -1  119.38   10.24
  -1   5  -1  114.89   12.36
  -1   5  -1  147.99   11.77
  -1   5  -1  149.69   13.46
  -1   5  -1  114.89    9.99
  -1   5  -1   99.82   11.51
  -1   5  -1  136.48   12.11
  -1   5  -1  113.28   12.53
   1  -5   1  149.18   12.87
   1  -5   1  109.39   12.53
   1  -5   1  134.62   10.24
   1  -5   1  139.44   12.02
  -1   5  -2  774.68   22.27
  -1   5  -2  679.18   27.09
  -1   5  -2  951.04   24.72
  -1   5  -2  956.46   32.09
  -1   5  -2  756.31   24.98
  -1   5  -2  682.99   25.31
  -1   5  -2  909.72   28.36
  -1   5  -2  650.56   26.58
   1  -5   2  846.56   27.43
   1  -5   2  698.06   21.08
   1  -5   2  697.89   27.94
   1  -5   2  784.25   25.57
   1  -5   2  915.73   28.45
  -1   5  -3  136.73    9.40
  -1   5  -3  139.53   13.89
  -1   5  -3  160.44   10.08
  -1   5  -3  155.19   14.82
  -1   5  -3  104.56   11.68
  -1   5  -3  120.82   11.09
  -1   5  -3  149.94   12.62
  -1   5  -3  125.64   13.46
   1  -5   3  162.64   13.12
   1  -5   3  165.44   10.24
   1  -5   3  113.87   13.12
   1  -5   3  137.92   12.78
   1  -5   3  155.02   13.38
  -1   5  -4   80.09   12.95
  -1   5  -4  119.80    8.64
  -1   5  -4  115.48   15.92
  -1   5  -4   98.04   13.97
  -1   5  -4   81.19    9.31
  -1   5  -4  109.13   11.43
  -1   5  -4   80.69   13.04
   1  -5   4  113.70   11.85
   1  -5   4  109.89    8.55
   1  -5   4   91.95   14.14
   1  -5   4  101.94   12.36
   1  -5   4  106.51   12.11
  -1   5  -5   32.26    9.40
  -1   5  -5   46.99    6.60
  -1   5  -5   28.96    9.57
  -1   5  -5   24.55    9.06
  -1   5  -5   33.95    6.77
  -1   5  -5   34.29    8.13
  -1   5  -5   26.92    8.72
   1  -5   5   34.20    8.81
   1  -5   5   38.95    6.43
   1  -5   5   33.95    9.74
   1  -5   5   29.29    8.72
   1  -5   5   31.75    8.81
  -1   5  -6  457.02   24.89
  -1   5  -6  673.34   19.30
  -1   5  -6  700.94   32.68
  -1   5  -6  464.47   26.67
  -1   5  -6  490.55   16.68
  -1   5  -6  479.12   25.48
   1  -5   6  615.17   27.85
   1  -5   6  577.75   18.71
   1  -5   6  569.12   27.60
   1  -5   6  525.68   28.70
   1  -5   6  542.70   26.16
  -1   5  -7   37.42   10.58
  -1   5  -7   51.22   12.78
  -1   5  -7   36.83   11.35
  -1   5  -7   31.07   10.24
   1  -5   7   43.60   11.35
   1  -5   7   37.76   10.50
   1  -5   7   34.88   10.58
   1  -5   7   34.54   10.41
  -1   5  -8   54.19   12.02
  -1   5  -8   62.23   15.32
  -1   5  -8   51.05   13.80
  -1   5  -8   45.47   11.35
   1  -5   8   66.38   14.05
   1  -5   8   51.39   12.70
   1  -5   8   49.19   14.14
   1  -5   8   46.99   12.53
  -1   5  -9    2.46    6.94
  -1   5  -9    3.47    8.81
  -1   5  -9    3.30    9.65
  -1   5  -9   -1.61    6.35
   1  -5   9    2.20    8.13
   1  -5   9    3.13    4.40
   1  -5   9    0.08    7.70
   1  -5   9    4.23    7.96
  -1   5 -10   65.53   16.85
  -1   5 -10   50.04   16.68
   1  -5  10   58.08   15.75
   1  -5  10   57.15   16.26
   1  -5  10   47.50   14.14
  -1   5 -11    9.57   10.58
  -1   5 -11    5.67   11.01
  -1   5 -11    6.52   11.85
   1  -5  11   -4.15    9.23
   1  -5  11    5.33    9.91
   1  -5  11    7.62   10.84
  -1   5 -12   15.07   13.63
  -1   5 -12   14.99   13.72
  -1   5 -12   20.83   14.14
   1  -5  12   10.16   13.46
   1  -5  12    8.64   11.18
   1  -5  12    5.42   11.77
  -1   5 -13   21.08   15.66
  -1   5 -13   26.25   16.42
  -1   5 -13    6.94   13.72
   1  -5  13   15.92   15.41
   1  -5  13   12.95   12.53
   1  -5  13   17.95   14.22
  -1   4  11   30.39   16.76
  -1   4  11   55.46   19.64
  -1   4  11   56.56   16.76
   1  -4 -11   71.97   24.21
   1  -4 -11   43.09   18.20
   1  -4 -11   46.14   18.29
  -1   4  10   36.24   16.51
  -1   4  10   51.05   17.69
  -1   4  10   51.65   15.41
   1  -4 -10   54.27   20.57
   1  -4 -10   56.30   19.47
  -1   4   9   52.49   15.83
  -1   4   9   54.95   17.02
  -1   4   9   60.20   15.58
   1  -4  -9   61.13   19.81
   1  -4  -9   55.54   17.61
  -1   4   8  155.95   25.40
  -1   4   8  163.06   24.55
  -1   4   8  141.39   20.57
  -1   4   8  148.50   20.49
   1  -4  -8  188.63   28.11
   1  -4  -8  153.84   23.96
  -1   4   7    7.20    7.37
  -1   4   7    6.10    8.64
  -1   4   7    5.25    7.70
  -1   4   7    6.69    8.04
   1  -4  -7    2.46   10.16
   1  -4  -7    6.77    9.31
  -1   4   6   16.34    9.74
  -1   4   6   28.19   10.92
  -1   4   6   17.27    9.48
  -1   4   6   23.20    9.06
   1  -4  -6   30.73   12.45
   1  -4  -6   22.44   10.58
  -1   4   5   14.90    8.64
  -1   4   5   15.92    8.89
  -1   4   5   12.78    7.62
  -1   4   5   20.15    7.45
  -1   4   5   15.75    6.52
   1  -4  -5   17.95    9.99
   1  -4  -5   16.26    8.72
  -1   4   4  745.14   31.58
  -1   4   4  906.68   23.11
  -1   4   4 1221.54   39.96
  -1   4   4  914.21   33.53
  -1   4   4 1108.43   32.17
  -1   4   4  902.36   23.28
   1  -4  -4 1131.04   38.78
   1  -4  -4  983.47   36.58
   1  -4  -4  906.42   23.37
   1  -4  -4  905.07   23.20
  -1   4   3   30.90    8.47
  -1   4   3   33.10    6.69
  -1   4   3   44.28    9.91
  -1   4   3   36.49    9.40
  -1   4   3   49.19    8.81
  -1   4   3   30.23    6.43
   1  -4  -3   35.47    9.82
   1  -4  -3   23.20    7.37
   1  -4  -3   28.19    6.35
   1  -4  -3   29.89    6.43
  -1   4   2  905.91   30.14
  -1   4   2 1081.85   27.69
  -1   4   2 1373.60   37.68
  -1   4   2  883.31   29.97
  -1   4   2 1218.83   30.31
  -1   4   2 1065.25   27.60
   1  -4  -2 1305.95   35.56
   1  -4  -2 1027.24   32.09
   1  -4  -2  970.60   26.25
   1  -4  -2  828.95   28.28
  -1   4   1  963.82   28.62
  -1   4   1  898.63   25.99
  -1   4   1 1105.21   30.65
  -1   4   1 1313.24   34.80
  -1   4   1 1023.94   15.66
  -1   4   1 1116.14   32.43
  -1   4   1 1113.17   28.19
  -1   4   1  904.73   26.25
   1  -4  -1 1163.97   31.33
   1  -4  -1  889.49   27.52
   1  -4  -1 1023.68   27.77
   1  -4  -1 1032.06   15.83
   1  -4  -1 1213.84   26.58
  -1   4   0 1030.79   27.01
  -1   4   0 1210.11   30.90
  -1   4   0 1288.26   30.14
  -1   4   0 1509.24   35.98
  -1   4   0 1120.62   21.42
  -1   4   0  955.53   28.45
  -1   4   0 1307.99   29.97
  -1   4   0 1230.26   31.33
   1  -4   0 1373.60   31.75
   1  -4   0 1071.01   27.35
   1  -4   0 1044.09   28.87
   1  -4   0 1153.64   21.76
   1  -4   0 1419.41   29.38
  -1   4  -1  261.44   12.95
  -1   4  -1  250.95   15.41
  -1   4  -1  359.15   14.99
  -1   4  -1  360.93   18.46
  -1   4  -1  273.13   12.95
  -1   4  -1  330.11   16.68
  -1   4  -1  370.15   16.51
  -1   4  -1  290.23   16.51
   1  -4   1  340.27   15.92
   1  -4   1  263.05   15.24
   1  -4   1  294.04   13.38
   1  -4   1  376.17   16.59
  -1   4  -2  270.08   12.19
  -1   4  -2  215.73   14.22
  -1   4  -2  298.53   12.78
  -1   4  -2  308.26   17.53
  -1   4  -2  221.99   13.46
  -1   4  -2  202.86   12.70
  -1   4  -2  316.31   15.83
  -1   4  -2  173.65   13.04
   1  -4   2  280.16   14.39
   1  -4   2  208.78   14.82
   1  -4   2  246.88   13.55
   1  -4   2  276.94   14.90
  -1   4  -3   88.47    9.99
  -1   4  -3  145.79    8.97
  -1   4  -3  137.24   13.21
  -1   4  -3  123.53   12.02
  -1   4  -3  111.84    9.57
  -1   4  -3  153.75   11.68
  -1   4  -3   83.56    9.91
   1  -4   3  133.01   10.92
   1  -4   3  123.27    8.55
   1  -4   3   96.69   11.43
   1  -4   3  120.90   11.77
   1  -4   3  119.97   11.43
  -1   4  -4  110.15   11.77
  -1   4  -4  173.05    9.74
  -1   4  -4  155.36   13.46
  -1   4  -4  119.97   11.94
  -1   4  -4  115.82    8.89
  -1   4  -4  165.35   12.45
  -1   4  -4  123.86   12.45
   1  -4   4  145.71   11.94
   1  -4   4  154.43    9.14
   1  -4   4  113.45   12.02
   1  -4   4  120.39   12.70
   1  -4   4  133.01   12.11
  -1   4  -5  160.78   13.72
  -1   4  -5  236.30   11.77
  -1   4  -5  220.89   16.68
  -1   4  -5  178.30   15.24
  -1   4  -5  198.37    9.91
  -1   4  -5  233.93   14.56
  -1   4  -5  153.50   13.63
   1  -4   5  228.93   15.58
   1  -4   5  204.47   10.84
   1  -4   5  172.80   14.31
   1  -4   5  222.84   17.27
   1  -4   5  187.02   14.90
  -1   4  -6   21.84    7.45
  -1   4  -6   45.89    7.62
  -1   4  -6   32.43   10.08
  -1   4  -6   30.06    9.74
  -1   4  -6   31.16    4.57
  -1   4  -6   24.55    7.54
   1  -4   6   39.28    9.23
   1  -4   6   38.18    6.86
   1  -4   6   42.42    9.57
   1  -4   6   34.04   10.16
   1  -4   6   35.05    9.40
  -1   4  -7  173.31   15.32
  -1   4  -7  183.98   12.87
  -1   4  -7  196.51   18.37
  -1   4  -7  179.66   19.05
  -1   4  -7  162.64   15.16
   1  -4   7  175.85   17.02
   1  -4   7  165.10   12.36
   1  -4   7  154.09   14.14
   1  -4   7  172.04   17.95
   1  -4   7  146.64   15.92
  -1   4  -8  247.48   18.20
  -1   4  -8  317.07   25.15
  -1   4  -8  265.00   22.61
  -1   4  -8  247.90   18.37
   1  -4   8  266.36   21.67
   1  -4   8  229.95   17.44
   1  -4   8  250.69   22.52
   1  -4   8  268.90   20.83
  -1   4  -9   13.89    9.57
  -1   4  -9   15.66   10.67
  -1   4  -9    8.55    8.72
   1  -4   9   11.35    9.40
   1  -4   9   14.39    9.74
   1  -4   9   22.35   10.08
  -1   4 -10   13.21   10.84
  -1   4 -10   15.16   11.43
  -1   4 -10   19.05   12.45
   1  -4  10   14.05   10.75
   1  -4  10   15.66   10.41
   1  -4  10   19.22   10.92
  -1   4 -11    0.93    9.91
  -1   4 -11    5.25   10.75
  -1   4 -11    9.74   11.43
   1  -4  11   -3.98    9.31
   1  -4  11    6.35   10.24
   1  -4  11   -0.93    9.31
  -1   4 -12   45.47   16.59
  -1   4 -12   22.86   14.90
  -1   4 -12   28.28   15.58
   1  -4  12   40.05   16.51
   1  -4  12   33.95   13.89
   1  -4  12   20.07   12.53
  -1   4 -13   19.98   15.32
  -1   4 -13   25.15   16.34
  -1   4 -13   10.67   14.22
   1  -4  13   10.92   14.05
   1  -4  13   13.97   12.95
   1  -4  13   17.36   13.80
  -1   3  11  106.68   24.72
  -1   3  11  111.00   24.13
  -1   3  11  118.11   21.17
   1  -3 -11  123.78   27.01
   1  -3 -11   91.61   23.03
   1  -3 -11  115.48   24.55
  -1   3  10  223.26   26.33
  -1   3  10  217.84   30.73
  -1   3  10  217.93   22.77
   1  -3 -10  254.25   30.39
   1  -3 -10  188.38   28.70
  -1   3   9  180.17   21.34
  -1   3   9  199.05   24.21
  -1   3   9  211.92   20.66
   1  -3  -9  217.76   26.58
   1  -3  -9  190.16   27.18
  -1   3   8    0.51    7.96
  -1   3   8    6.43    9.31
  -1   3   8    8.13    7.54
  -1   3   8    1.27    7.20
   1  -3  -8    8.97    9.06
   1  -3  -8    5.76    7.28
  -1   3   7   39.12   12.53
  -1   3   7   28.62   11.43
  -1   3   7   22.35    8.55
  -1   3   7   54.10   11.94
   1  -3  -7   50.97   15.07
   1  -3  -7   28.62   10.50
  -1   3   6   92.79   16.26
  -1   3   6  119.46   18.03
  -1   3   6   87.37   13.63
  -1   3   6   95.25   11.43
   1  -3  -6  126.07   18.71
   1  -3  -6   71.46   14.05
  -1   3   5  397.59   23.79
  -1   3   5  423.66   11.68
  -1   3   5  518.83   26.75
  -1   3   5  411.05   21.42
  -1   3   5  494.19   20.74
  -1   3   5  437.04   12.02
   1  -3  -5  510.02   27.18
   1  -3  -5  408.08   23.54
   1  -3  -5  420.45   11.85
   1  -3  -5  397.25   11.51
  -1   3   4  460.66   23.03
  -1   3   4  590.37   15.66
  -1   3   4  756.48   29.55
  -1   3   4  628.55   25.15
  -1   3   4  742.76   23.28
  -1   3   4  624.40   16.17
   1  -3  -4  749.71   29.55
   1  -3  -4  572.93   25.91
   1  -3  -4  615.43   16.09
   1  -3  -4  586.22   15.75
  -1   3   3  950.53   30.48
  -1   3   3 1015.05   21.93
  -1   3   3 1338.38   35.64
  -1   3   3  919.12   28.62
  -1   3   3 1065.17   25.65
  -1   3   3 1062.71   22.52
   1  -3  -3 1314.17   35.14
   1  -3  -3  897.11   29.38
   1  -3  -3 1039.26   22.18
   1  -3  -3 1044.43   22.27
  -1   3   2 1320.09   32.68
  -1   3   2 1360.31   26.50
  -1   3   2 1835.96   38.52
  -1   3   2 1344.82   32.68
  -1   3   2 1616.34   29.63
  -1   3   2 1327.21   26.25
   1  -3  -2 1730.21   36.32
   1  -3  -2 1180.74   30.99
   1  -3  -2 1399.34   26.92
   1  -3  -2 1272.43   25.57
  -1   3   1 2315.58   38.95
  -1   3   1 2804.44   39.12
  -1   3   1 2835.34   43.01
  -1   3   1 3500.13   49.44
  -1   3   1 2767.02   21.08
  -1   3   1 2645.18   43.01
  -1   3   1 3073.59   39.12
  -1   3   1 2775.74   39.12
   1  -3  -1 3305.99   44.79
   1  -3  -1 2265.55   38.35
   1  -3  -1 2770.66   38.86
   1  -3  -1 2605.22   20.49
   1  -3  -1 3067.75   39.62
   1  -3  -1 2392.12   35.90
  -1   3   0  108.88    8.38
  -1   3   0  111.76    8.81
  -1   3   0  125.73    8.89
  -1   3   0  150.53   10.33
  -1   3   0  112.01    6.52
  -1   3   0   91.27    8.55
  -1   3   0  150.36    9.40
  -1   3   0  119.12    9.14
   1  -3   0  157.90    9.74
   1  -3   0  108.12    8.30
   1  -3   0   98.97    8.13
   1  -3   0  124.63    6.77
   1  -3   0  135.13    8.38
   1  -3   0  114.13    8.97
  -1   3  -1   78.74    6.52
  -1   3  -1   75.18    7.87
  -1   3  -1  110.40    7.79
  -1   3  -1  106.76    9.40
  -1   3  -1   86.36    7.03
  -1   3  -1   74.67    7.28
  -1   3  -1  116.24    8.38
  -1   3  -1   77.30    8.04
   1  -3   1  108.88    8.13
   1  -3   1   70.78    7.96
   1  -3   1   79.42    7.03
   1  -3   1  113.37    8.30
   1  -3   1   72.90    7.70
  -1   3  -2   18.88    4.06
  -1   3  -2    9.91    4.06
  -1   3  -2   20.15    4.32
  -1   3  -2   16.42    5.00
  -1   3  -2   18.71    5.08
  -1   3  -2   16.42    4.40
  -1   3  -2   26.67    5.67
  -1   3  -2    8.55    3.89
   1  -3   2   14.31    4.23
   1  -3   2   13.80    3.56
   1  -3   2   10.75    5.08
   1  -3   2    9.91    4.32
   1  -3   2   11.18    4.40
   1  -3   2    7.45    3.73
  -1   3  -3  398.60   16.93
  -1   3  -3  650.56   16.34
  -1   3  -3  653.27   22.27
  -1   3  -3  530.00   20.49
  -1   3  -3  412.40   13.38
  -1   3  -3  566.15   18.71
  -1   3  -3  432.21   18.03
   1  -3   3  549.64   18.12
   1  -3   3  575.47   15.32
   1  -3   3  534.49   19.98
   1  -3   3  491.31   19.39
   1  -3   3  558.45   19.22
  -1   3  -4  467.77   19.22
  -1   3  -4  695.94   18.20
  -1   3  -4  645.15   24.38
  -1   3  -4  491.39   21.42
  -1   3  -4  490.72   13.04
  -1   3  -4  601.80   20.07
  -1   3  -4  478.69   19.47
   1  -3   4  564.63   20.40
   1  -3   4  537.96   16.17
   1  -3   4  525.60   20.40
   1  -3   4  536.86   22.69
   1  -3   4  523.99   20.07
  -1   3  -5  564.71   21.42
  -1   3  -5  756.73   21.08
  -1   3  -5  773.92   28.70
  -1   3  -5  576.31   24.98
  -1   3  -5  701.87   12.53
  -1   3  -5  703.90   22.35
  -1   3  -5  580.21   22.01
   1  -3   5  666.31   24.38
   1  -3   5  631.26   19.13
   1  -3   5  535.76   21.08
   1  -3   5  605.52   25.99
   1  -3   5  600.53   23.03
  -1   3  -6   35.64    7.54
  -1   3  -6   45.30    8.21
  -1   3  -6   46.14   11.18
  -1   3  -6   43.09    9.99
  -1   3  -6   57.49    8.64
  -1   3  -6   38.44    7.87
   1  -3   6   56.30   10.67
   1  -3   6   47.16    8.30
   1  -3   6   18.03    5.84
   1  -3   6   45.04   10.67
   1  -3   6   37.68    8.89
  -1   3  -7  921.15   28.11
  -1   3  -7 1330.85   43.43
  -1   3  -7  978.81   37.25
  -1   3  -7  905.57   27.94
   1  -3   7 1110.04   37.59
   1  -3   7 1051.62   29.97
   1  -3   7 1092.60   31.07
   1  -3   7 1076.51   39.20
   1  -3   7 1050.69   34.71
  -1   3  -8   51.05   13.04
  -1   3  -8   40.55    8.97
  -1   3  -8   51.39   10.41
  -1   3  -8   50.04   12.87
  -1   3  -8   36.24   11.18
  -1   3  -8   32.85    8.13
   1  -3   8   35.56   11.26
   1  -3   8   44.11   10.16
   1  -3   8   33.36    8.30
   1  -3   8   44.45   11.77
   1  -3   8   26.92    9.65
  -1   3  -9  225.12   22.10
  -1   3  -9  188.72   17.44
  -1   3  -9  183.98   21.59
  -1   3  -9  183.64   21.25
   1  -3   9  169.58   19.73
   1  -3   9  164.17   15.66
   1  -3   9  184.57   20.40
   1  -3   9  178.56   18.46
  -1   3 -10   91.95   18.88
  -1   3 -10   71.20   17.69
  -1   3 -10   98.21   19.64
   1  -3  10   91.52   18.54
   1  -3  10   75.78   17.19
   1  -3  10   77.38   15.75
  -1   3 -11   20.66   12.53
  -1   3 -11    6.43   11.35
  -1   3 -11    9.82   11.60
   1  -3  11   24.30   13.80
   1  -3  11   21.76   11.51
   1  -3  11   26.33   12.19
  -1   3 -12   33.36   15.24
  -1   3 -12   22.44   14.65
  -1   3 -12   17.27   13.89
   1  -3  12   20.23   14.90
   1  -3  12   30.31   14.22
   1  -3  12   13.55   11.35
  -1   3 -13   39.03   18.80
  -1   3 -13   29.89   16.93
  -1   3 -13   34.37   16.85
   1  -3  13   30.23   14.65
   1  -3  13   29.12   14.05
  -1   2  12   18.54   13.29
  -1   2  12   24.81   15.58
  -1   2  12   25.82   13.38
   1  -2 -12   17.44   16.85
   1  -2 -12   20.66   14.31
   1  -2 -12   14.48   12.70
  -1   2  11   52.75   17.19
  -1   2  11   44.70   16.85
  -1   2  11   41.66   13.46
   1  -2 -11   77.13   22.18
   1  -2 -11   70.27   19.30
   1  -2 -11   50.21   17.27
  -1   2  10  152.14   25.06
  -1   2  10  147.40   24.81
  -1   2  10  173.65   20.07
   1  -2 -10  212.09   30.31
   1  -2 -10  144.27   23.71
   1  -2 -10  188.21   27.43
  -1   2   9   -2.46    5.25
  -1   2   9   -0.17    8.97
  -1   2   9   -2.88    6.35
   1  -2  -9   -4.83    6.94
   1  -2  -9    7.87    7.54
  -1   2   8   53.76   14.22
  -1   2   8   34.46   11.09
  -1   2   8   53.93   12.11
   1  -2  -8   81.11   18.03
   1  -2  -8   45.89   12.70
  -1   2   7   46.65   12.45
  -1   2   7   54.52   13.29
  -1   2   7   50.12   10.41
  -1   2   7   61.72   11.35
   1  -2  -7   46.82   13.55
   1  -2  -7   43.77   11.09
  -1   2   6   51.90   11.77
  -1   2   6   42.59   10.92
  -1   2   6   55.37    7.54
  -1   2   6   55.62    9.91
  -1   2   6   79.50   11.01
   1  -2  -6   73.91   14.31
   1  -2  -6   61.55   12.19
   1  -2  -6   63.50    7.62
  -1   2   5  352.97   20.66
  -1   2   5  381.50    7.79
  -1   2   5  444.49   23.37
  -1   2   5  361.01   12.53
  -1   2   5  324.77   17.10
  -1   2   5  451.94   17.44
  -1   2   5  406.39   16.85
  -1   2   5  396.06    8.04
   1  -2  -5  407.41   22.86
   1  -2  -5  336.54   20.15
   1  -2  -5  330.87    7.45
   1  -2  -5  360.33   12.62
   1  -2  -5  324.18    7.37
   1  -2  -5  375.49    7.96
  -1   2   4  129.54   12.45
  -1   2   4  140.20    6.52
  -1   2   4  161.03   14.05
  -1   2   4  153.33    7.11
  -1   2   4  133.18   11.01
  -1   2   4  183.30   10.50
  -1   2   4  164.84   10.16
  -1   2   4  155.61    6.86
   1  -2  -4  186.94   15.16
   1  -2  -4  140.20   12.19
   1  -2  -4  144.18    6.69
   1  -2  -4  163.83    7.45
   1  -2  -4  146.05    6.77
  -1   2   3  497.74   19.90
  -1   2   3  625.59   14.05
  -1   2   3  809.82   25.57
  -1   2   3  705.94   10.41
  -1   2   3  588.67   19.98
  -1   2   3  834.80   18.63
  -1   2   3  702.63   17.36
  -1   2   3  610.09   14.05
   1  -2  -3  798.64   25.15
   1  -2  -3  602.22   21.76
   1  -2  -3  607.13   14.05
   1  -2  -3  636.68    9.91
   1  -2  -3  610.43   14.05
  -1   2   2  681.64   20.66
  -1   2   2  871.54   17.44
  -1   2   2  864.60   23.20
  -1   2   2 1168.29   26.92
  -1   2   2  822.86   21.84
  -1   2   2 1126.55   19.30
  -1   2   2  987.70   18.29
  -1   2   2  859.52   17.44
   1  -2  -2 1127.06   25.57
   1  -2  -2  699.16   20.91
   1  -2  -2  869.34   17.44
   1  -2  -2  854.61   17.27
  -1   2   1 1673.06   28.45
  -1   2   1 2048.04   27.77
  -1   2   1 2241.16   33.02
  -1   2   1 2783.61   37.25
  -1   2   1 2331.75   16.09
  -1   2   1 1626.50   28.28
  -1   2   1 2234.56   25.91
  -1   2   1 2097.74   28.19
   1  -2  -1 2608.10   32.93
   1  -2  -1 1807.26   29.63
   1  -2  -1 1807.85   26.08
   1  -2  -1 1908.43   14.73
   1  -2  -1 1644.95   24.81
  -1   2   0  700.01   16.51
  -1   2   0  589.01   15.58
  -1   2   0  816.51   17.78
  -1   2   0  977.29   20.49
  -1   2   0  648.36   12.53
  -1   2   0  641.76   16.76
  -1   2   0  773.58   15.66
  -1   2   0  590.45   15.66
   1  -2   0  921.83   16.85
   1  -2   0  726.17   17.44
   1  -2   0  679.69   12.87
   1  -2   0  894.40   16.00
   1  -2   0  597.99   15.83
  -1   2  -1 3181.37   31.75
  -1   2  -1 2465.95   32.85
  -1   2  -1 3527.56   33.53
  -1   2  -1 3883.91   40.47
  -1   2  -1 2824.33   32.26
  -1   2  -1 2540.62   30.14
  -1   2  -1 3485.06   35.14
  -1   2  -1 2379.25   32.51
   1  -2   1 3577.51   31.16
   1  -2   1 3805.68   34.88
   1  -2   1 2531.82   33.36
   1  -2   1 2949.64   33.10
   1  -2   1 3365.51   33.95
   1  -2   1 2557.22   33.27
  -1   2  -2   40.13    6.01
  -1   2  -2   69.00    5.33
  -1   2  -2   68.83    6.86
  -1   2  -2   45.63    5.50
  -1   2  -2   38.52    4.15
  -1   2  -2   57.40    5.76
  -1   2  -2   33.78    5.50
   1  -2   2   53.85    5.00
   1  -2   2   58.93    5.25
   1  -2   2   41.15    6.18
   1  -2   2   43.94    5.42
   1  -2   2   54.61    5.84
   1  -2   2   49.11    5.76
  -1   2  -3    8.30    3.56
  -1   2  -3   15.83    4.15
  -1   2  -3   12.02    4.32
  -1   2  -3    9.65    4.06
  -1   2  -3    8.30    2.37
  -1   2  -3   12.02    3.98
  -1   2  -3    7.03    3.47
   1  -2   3    6.69    3.39
   1  -2   3    8.30    3.39
   1  -2   3    6.52    3.56
   1  -2   3   13.72    5.00
   1  -2   3    7.45    3.98
   1  -2   3   10.84    3.89
  -1   2  -4  200.99   11.18
  -1   2  -4  299.46   13.12
  -1   2  -4  327.14   16.76
  -1   2  -4  201.50   13.46
  -1   2  -4  304.29    7.70
  -1   2  -4  290.40   13.29
  -1   2  -4  239.69   12.45
   1  -2   4  277.45   14.22
   1  -2   4  251.96   12.02
   1  -2   4   -0.42    1.10
   1  -2   4  253.99   14.73
   1  -2   4  288.88    7.62
   1  -2   4  279.39   14.65
   1  -2   4   -0.17    1.44
  -1   2  -5   44.70    7.11
  -1   2  -5   61.64    9.48
  -1   2  -5   57.74   10.08
  -1   2  -5   65.70   11.01
  -1   2  -5   61.04    8.30
  -1   2  -5   44.20    7.03
   1  -2   5   46.48    8.89
   1  -2   5   62.06    8.81
   1  -2   5   48.60    7.62
   1  -2   5   56.64   10.41
   1  -2   5   44.36    2.20
   1  -2   5   48.51    8.97
   1  -2   5   64.01    8.64
  -1   2  -6  202.18   15.58
  -1   2  -6  189.65   11.68
  -1   2  -6  198.54   13.72
  -1   2  -6  230.12   17.44
  -1   2  -6  221.23   17.27
  -1   2  -6  176.44   11.35
   1  -2   6  160.69   14.14
   1  -2   6  168.99   12.53
   1  -2   6  187.45   11.68
   1  -2   6  181.52   14.90
   1  -2   6  183.72   14.48
   1  -2   6  185.75   11.43
  -1   2  -7  383.79   23.11
  -1   2  -7  289.38   14.22
  -1   2  -7  378.71   20.07
  -1   2  -7  412.57   24.64
  -1   2  -7  413.50   24.47
  -1   2  -7  316.39   14.82
   1  -2   7  330.53   21.76
   1  -2   7  345.60   19.22
   1  -2   7  346.45   15.58
   1  -2   7  337.73   22.01
   1  -2   7  353.14   20.91
   1  -2   7  423.41   19.73
  -1   2  -8  180.59   18.71
  -1   2  -8  181.94   16.34
  -1   2  -8  207.94   19.30
  -1   2  -8  146.64   16.17
   1  -2   8  155.53   17.69
   1  -2   8  158.32   15.16
   1  -2   8  202.77   19.05
   1  -2   8  136.99   16.26
  -1   2  -9  637.19   34.54
  -1   2  -9  620.25   29.80
  -1   2  -9  641.00   35.31
  -1   2  -9  563.70   32.17
   1  -2   9  556.08   32.51
   1  -2   9  532.54   30.73
   1  -2   9  522.97   29.04
  -1   2 -10  119.63   21.34
  -1   2 -10   85.00   16.34
  -1   2 -10  103.29   20.49
  -1   2 -10  124.46   20.91
   1  -2  10   82.46   18.54
   1  -2  10   74.51   14.99
   1  -2  10   69.93   15.49
   1  -2  10   98.55   17.44
  -1   2 -11  349.07   31.24
  -1   2 -11  304.71   27.94
  -1   2 -11  265.85   26.16
   1  -2  11  281.00   27.09
   1  -2  11  286.84   25.65
  -1   2 -12   11.43   11.68
  -1   2 -12   15.83   13.80
  -1   2 -12   22.01   13.21
   1  -2  12   11.09   10.41
   1  -2  12    9.57   11.26
  -1   2 -13   -3.39   12.87
  -1   2 -13   15.24   14.73
   1  -2  13   18.63   14.22
  -1   1  12   19.30   13.55
  -1   1  12   23.62   14.65
  -1   1  12   37.59   13.46
   1  -1 -12   58.93   21.17
   1  -1 -12   38.01   15.66
   1  -1 -12   41.06   16.85
  -1   1  11   29.72   13.72
  -1   1  11   38.95   15.83
  -1   1  11   35.47   13.04
   1  -1 -11   37.85   17.53
   1  -1 -11   53.59   16.76
   1  -1 -11   46.23   15.83
  -1   1  10   13.12    9.99
  -1   1  10    9.06   11.09
  -1   1  10    3.73    7.79
   1  -1 -10    7.62   12.53
   1  -1 -10    7.79    9.31
   1  -1 -10   10.67   10.67
  -1   1   9   43.69   13.29
  -1   1   9   47.92   14.31
  -1   1   9   59.10   12.70
   1  -1  -9   61.47   16.59
   1  -1  -9   48.51   13.63
   1  -1  -9   49.70   14.31
  -1   1   8   88.47   16.00
  -1   1   8   94.15   17.19
  -1   1   8   98.63   13.38
  -1   1   8   84.41   13.12
   1  -1  -8  108.88   19.05
   1  -1  -8   75.10   14.65
   1  -1  -8   82.63   16.34
   1  -1  -8  110.32   13.12
  -1   1   7   49.44   11.85
  -1   1   7   48.09   11.51
  -1   1   7   40.64    8.13
  -1   1   7   48.43    8.64
  -1   1   7   43.60    9.06
   1  -1  -7   57.74   13.55
   1  -1  -7   51.39   11.68
   1  -1  -7   58.33   10.16
  -1   1   6  269.49   18.20
  -1   1   6  311.40   20.15
  -1   1   6  286.93   14.65
  -1   1   6  277.11   14.14
  -1   1   6  352.88   16.17
  -1   1   6  302.17   15.07
   1  -1  -6  326.30   21.50
   1  -1  -6  234.52   17.10
   1  -1  -6  256.62   13.89
  -1   1   5   49.61    9.74
  -1   1   5   54.02    9.82
  -1   1   5   56.30   10.16
  -1   1   5   52.49    7.37
  -1   1   5   38.61    6.94
  -1   1   5   56.30    6.86
  -1   1   5   51.14    7.28
   1  -1  -5   65.53   11.01
   1  -1  -5   44.20    3.05
   1  -1  -5   44.28    8.81
   1  -1  -5   40.39    2.88
   1  -1  -5   58.93    7.87
   1  -1  -5   40.13    2.88
   1  -1  -5   44.70    3.13
  -1   1   4  416.04   19.30
  -1   1   4  388.53   17.44
  -1   1   4  473.19    9.65
  -1   1   4  508.33   21.34
  -1   1   4  440.43   13.89
  -1   1   4  369.73   14.31
  -1   1   4  493.34   13.72
  -1   1   4  474.63    9.74
   1  -1  -4  496.98   21.17
   1  -1  -4  389.29   17.44
   1  -1  -4  405.29    9.06
   1  -1  -4  417.82   13.63
   1  -1  -4  400.55    8.97
   1  -1  -4  469.55    9.82
  -1   1   3  741.66   21.67
  -1   1   3  689.93   20.57
  -1   1   3  786.28   13.04
  -1   1   3  883.48   23.79
  -1   1   3  797.54   15.24
  -1   1   3  724.48   18.20
  -1   1   3  799.24   13.55
  -1   1   3  802.71   13.29
   1  -1  -3  879.41   23.62
   1  -1  -3  705.77   20.74
   1  -1  -3  720.75   12.53
   1  -1  -3  762.07   14.90
   1  -1  -3  689.43   12.28
  -1   1   2 1538.87   26.50
  -1   1   2 1686.61   19.56
  -1   1   2 1930.44   29.46
  -1   1   2 2119.41   31.41
  -1   1   2 1886.42   18.37
  -1   1   2 1872.79   18.29
  -1   1   2 1595.34   24.55
  -1   1   2 1982.34   14.90
  -1   1   2 1679.24   19.73
   1  -1  -2 2074.46   30.06
   1  -1  -2 1555.38   26.42
   1  -1  -2 1623.28   19.22
   1  -1  -2 1789.65   17.95
   1  -1  -2 1614.64   19.22
  -1   1   1 2180.71   26.84
  -1   1   1 2814.68   26.08
  -1   1   1 3301.76   33.02
  -1   1   1 3379.23   32.77
  -1   1   1 3371.10   21.25
  -1   1   1 3267.72   20.83
  -1   1   1 2751.78   29.38
  -1   1   1 3424.27   15.92
  -1   1   1 3058.52   14.82
  -1   1   1 2769.64   26.08
   1  -1  -1 3544.75   30.14
   1  -1  -1 2695.47   25.48
   1  -1  -1 3162.49   20.49
   1  -1  -1 2296.03   23.62
  -1   1   0  456.17   11.01
  -1   1   0  452.96   11.01
  -1   1   0  484.37   11.18
  -1   1   0  592.06   11.77
  -1   1   0  422.73    9.23
  -1   1   0  339.68    9.65
  -1   1   0  453.30    8.64
  -1   1   0  500.03    8.89
  -1   1   0  461.51   11.18
   1  -1   0  521.54    7.62
   1  -1   0  466.50   11.26
   1  -1   0  404.27    9.06
   1  -1   0  370.07   10.08
  -1   1  -1  805.08   15.24
  -1   1  -1 1076.43   16.85
  -1   1  -1 1192.84   17.36
  -1   1  -1  879.75   16.59
  -1   1  -1  749.62   12.87
  -1   1  -1 1015.64   16.09
  -1   1  -1  836.40   15.66
   1  -1   1  913.96   11.35
   1  -1   1 1116.47   17.10
   1  -1   1  751.06   14.65
   1  -1   1  835.13   16.17
   1  -1   1 1086.33   16.51
   1  -1   1  760.71   14.82
  -1   1  -2 1137.22   18.88
  -1   1  -2 1695.24   24.21
  -1   1  -2 1921.72   26.67
  -1   1  -2 1258.71   23.45
  -1   1  -2 1537.43   17.27
  -1   1  -2 1632.34   23.79
  -1   1  -2 1118.34   18.80
   1  -1   2 1407.13   20.57
   1  -1   2 1619.13   23.62
   1  -1   2  853.42   16.34
   1  -1   2 1327.38   24.13
   1  -1   2 1743.08   24.98
   1  -1   2  804.15   15.83
  -1   1  -3  319.61   12.70
  -1   1  -3  213.61    8.81
  -1   1  -3  315.97   12.53
  -1   1  -3  365.75   14.31
  -1   1  -3  250.44   12.53
  -1   1  -3  344.59   12.53
  -1   1  -3  215.98    8.97
   1  -1   3  283.03   11.94
   1  -1   3  283.88   11.68
   1  -1   3  222.08    9.14
   1  -1   3  245.44   12.45
   1  -1   3  316.05    8.04
   1  -1   3  324.35   12.87
   1  -1   3  263.65    9.82
  -1   1  -4   94.15    9.40
  -1   1  -4   65.45    5.84
  -1   1  -4  107.86    9.40
  -1   1  -4  115.06   10.58
  -1   1  -4   78.99    9.31
  -1   1  -4  115.06    8.81
  -1   1  -4   74.93    6.18
   1  -1   4   83.56    8.89
   1  -1   4   91.95    8.81
   1  -1   4  100.84    7.20
   1  -1   4  115.99   10.58
   1  -1   4  101.26    5.25
   1  -1   4  111.67    9.74
   1  -1   4   92.62    6.94
  -1   1  -5   48.85    9.31
  -1   1  -5   33.78    5.08
  -1   1  -5   46.73    8.72
  -1   1  -5   36.32    8.55
  -1   1  -5   41.57    8.47
  -1   1  -5   48.77    7.54
  -1   1  -5   40.47    5.59
   1  -1   5   47.33    9.06
   1  -1   5   39.96    7.79
   1  -1   5   41.99    5.76
   1  -1   5   41.82    9.06
   1  -1   5   46.65    8.97
   1  -1   5   42.84    3.98
   1  -1   5   32.77    7.62
   1  -1   5   41.57    5.67
  -1   1  -6 1042.56   33.87
  -1   1  -6  842.58   18.46
  -1   1  -6  913.53   29.72
  -1   1  -6 1056.19   34.37
  -1   1  -6  952.56   31.58
  -1   1  -6  838.61   18.54
   1  -1   6  895.58   31.50
   1  -1   6  794.16   27.69
   1  -1   6  816.17   18.03
   1  -1   6  924.37   32.43
   1  -1   6  918.36   30.90
   1  -1   6  744.97   13.04
   1  -1   6  963.40   29.63
   1  -1   6  822.69   18.03
  -1   1  -7  154.34   15.24
  -1   1  -7  128.52   13.97
  -1   1  -7  150.36   16.34
  -1   1  -7  141.47   14.99
  -1   1  -7  130.81    7.79
   1  -1   7  120.99   13.80
   1  -1   7  149.69   14.65
   1  -1   7  147.23   16.42
   1  -1   7  151.30   14.90
   1  -1   7  134.70   14.05
  -1   1  -8  506.89   29.46
  -1   1  -8  410.12   24.47
  -1   1  -8  461.68   28.11
  -1   1  -8  429.84   25.65
   1  -1   8  437.72   27.43
   1  -1   8  354.24   22.94
   1  -1   8  405.80   25.99
   1  -1   8  453.04   25.91
   1  -1   8  401.90   24.21
  -1   1  -9    7.20    9.48
  -1   1  -9    7.11    7.96
  -1   1  -9    7.62    9.06
  -1   1  -9    5.25    8.04
   1  -1   9    3.81    7.37
   1  -1   9    7.70    7.45
   1  -1   9    8.47    8.72
  -1   1 -10  409.35   30.31
  -1   1 -10  353.90   26.75
  -1   1 -10  389.63   30.73
  -1   1 -10  379.38   28.79
   1  -1  10  303.27   24.55
   1  -1  10  335.95   26.33
  -1   1 -11   33.95   15.49
  -1   1 -11   26.25   12.70
  -1   1 -11   28.62   14.05
  -1   1 -11   24.64   12.28
   1  -1  11   24.55   12.11
   1  -1  11   29.12   12.62
   1  -1  11   30.90   13.21
  -1   1 -12   41.57   17.27
  -1   1 -12   28.02   14.99
   1  -1  12   31.07   14.82
  -1   1 -13   26.75   17.36
  -1   1 -13   16.42   15.16
   1  -1  13   12.70   13.12
  -1   0  13    5.76   11.18
   1   0 -13   15.41   17.02
   1   0 -13    8.55   13.63
  -1   0  12   29.12   15.24
  -1   0  12   20.91   11.51
   1   0 -12   39.37   18.12
   1   0 -12   24.81   12.87
  -1   0  11    5.67    9.65
  -1   0  11   16.09   12.70
  -1   0  11   15.83   10.24
   1   0 -11   16.93   14.05
   1   0 -11   10.24    9.91
   1   0 -11   19.56   12.36
  -1   0  10   67.48   15.75
  -1   0  10   46.90   15.58
  -1   0  10   50.88   12.87
   1   0 -10  108.62   21.59
   1   0 -10   72.05   15.66
   1   0 -10   78.31   18.03
   1   0 -10   80.26   16.17
  -1   0   9   14.39   10.75
  -1   0   9   19.56    9.48
  -1   0   9   14.90   10.41
  -1   0   9   10.58    7.37
  -1   0   9    4.91    7.37
   1   0  -9    8.47   10.41
   1   0  -9   11.01    8.21
   1   0  -9    9.48    8.97
   1   0  -9   15.41    8.47
  -1   0   8   32.17   11.26
  -1   0   8   57.66   12.45
  -1   0   8   44.45   11.94
  -1   0   8    1.44    3.05
  -1   0   8   49.44   10.08
   1   0  -8   78.15   15.92
   1   0  -8   62.40   12.78
   1   0  -8   58.84   13.12
   1   0  -8   53.34   11.35
  -1   0   7  154.09   15.66
  -1   0   7  115.23   12.87
  -1   0   7  161.37   17.02
  -1   0   7    1.35    2.29
  -1   0   7  134.11    9.23
  -1   0   7  146.64   12.11
   1   0  -7  133.60   14.90
   1   0  -7  149.60   14.22
   1   0  -7  172.63   17.10
   1   0  -7  133.01   12.95
   1   0  -7  131.91    5.76
  -1   0   6  173.56   15.75
  -1   0   6  186.26   14.05
  -1   0   6  219.87    8.04
  -1   0   6  206.67   17.02
  -1   0   6    7.11    3.47
  -1   0   6  190.92    9.82
  -1   0   6  205.65   11.77
  -1   0   6  227.49   12.28
   1   0  -6  221.48   17.53
   1   0  -6  186.77    7.45
   1   0  -6  187.96   14.05
   1   0  -6  228.26   17.44
   1   0  -6  195.15   14.14
   1   0  -6  199.30    7.62
   1   0  -6  187.36    7.54
  -1   0   5  298.44   17.36
  -1   0   5  287.78   15.41
  -1   0   5  342.22   10.08
  -1   0   5  346.19   19.22
  -1   0   5  151.47   10.41
  -1   0   5  272.71   10.84
  -1   0   5  334.68   12.45
  -1   0   5  360.42   12.78
   1   0  -5  355.93   18.88
   1   0  -5  303.52    9.65
   1   0  -5  310.21   15.83
   1   0  -5  328.16   18.71
   1   0  -5  302.85   15.24
   1   0  -5  319.44    9.65
   1   0  -5  315.63    9.91
  -1   0   4 1025.04   27.60
  -1   0   4 1046.12   24.81
  -1   0   4 1253.97   18.37
  -1   0   4 1180.48   29.63
  -1   0   4  943.08   22.27
  -1   0   4 1115.21   19.22
  -1   0   4 1259.14   18.12
  -1   0   4 1320.18   18.46
   1   0  -4 1353.28   31.83
   1   0  -4 1186.75   17.95
   1   0  -4 1065.17   24.98
   1   0  -4 1178.03   25.06
   1   0  -4 1148.14   17.61
   1   0  -4 1186.15   18.03
  -1   0   3 1506.19   28.62
  -1   0   3 1399.34   24.47
  -1   0   3 1726.57   20.66
  -1   0   3 1633.44   20.07
  -1   0   3 1693.38   30.56
  -1   0   3 1501.19   24.38
  -1   0   3 1511.10   20.40
  -1   0   3 1554.87   10.33
  -1   0   3 1625.48   11.01
   1   0  -3 1691.77   30.31
   1   0  -3 1688.89   20.49
   1   0  -3 1531.84   25.57
   1   0  -3 1606.09   25.31
   1   0  -3 1598.22   19.90
   1   0  -3 1654.94   20.40
  -1   0   2 4329.59   39.71
  -1   0   2 3910.41   33.70
  -1   0   2 4713.46   32.60
  -1   0   2 4724.13   37.00
  -1   0   2 4894.13   42.25
  -1   0   2 4279.55   34.97
  -1   0   2 4483.43   35.81
  -1   0   2 4123.18   30.82
  -1   0   2 4409.51   31.75
   1   0  -2 4178.72   34.80
   1   0  -2 4457.26   35.73
   1   0  -2 4502.31   31.92
   1   0  -2 4441.52   31.83
  -1   0   1   22.77    2.96
  -1   0   1   18.80    2.79
  -1   0   1   21.59    2.96
  -1   0   1   20.40    2.79
  -1   0   1   22.77    3.05
  -1   0   1   19.30    2.71
  -1   0   1   18.96    2.79
  -1   0   1   19.81    2.88
  -1   0   1   18.63    2.79
  -1   0   1   18.29    2.79
   1   0  -1   20.23    2.88
   1   0  -1   21.93    3.05
  -1   0   0 1348.20   11.18
  -1   0   0  895.75   13.29
  -1   0   0 1215.70   15.41
  -1   0   0 1082.86   14.56
  -1   0   0 1109.87   14.99
  -1   0   0  929.28   13.72
  -1   0   0  927.25   13.63
  -1   0   0 1111.65   10.75
  -1   0   0  997.35   10.24
  -1   0   0  925.56   13.63
   1   0   0 1222.81   15.41
   1   0   0  941.56   13.80
   1   0   0 1056.19   14.56
   1   0   0  887.20   13.29
  -1   0  -1  189.48    6.52
  -1   0  -1  145.88    5.67
  -1   0  -1  187.36    7.62
  -1   0  -1  186.26    6.35
  -1   0  -1  140.37    4.91
  -1   0  -1  195.07    7.70
  -1   0  -1  187.19    7.11
  -1   0  -1  150.53    5.76
   1   0   1  192.27    7.96
   1   0   1  190.07    5.84
   1   0   1  152.31    6.86
   1   0   1  179.57    6.69
   1   0   1  169.33    6.86
   1   0   1    1.19    0.68
  -1   0  -2 1350.66   22.35
  -1   0  -2 1222.05   15.49
  -1   0  -2 1439.47   24.89
  -1   0  -2 1384.35   21.50
  -1   0  -2 1461.15   23.54
  -1   0  -2 1242.20   15.75
   1   0   2 1275.81   23.28
   1   0   2 1281.32   15.83
   1   0   2 1508.22   22.44
   1   0   2 1570.79   24.38
   1   0   2 1384.19   19.22
   1   0   2 1409.67   22.61
   1   0   2 1190.13   15.41
  -1   0  -3  169.24    9.99
  -1   0  -3  159.17    5.93
  -1   0  -3  180.00   10.92
  -1   0  -3  193.12   10.58
  -1   0  -3  180.34   10.16
  -1   0  -3  179.40    9.31
  -1   0  -3  161.37    6.01
   1   0   3  193.04   11.18
   1   0   3  169.92    6.18
   1   0   3  202.94   10.75
   1   0   3  157.73    9.57
   1   0   3  186.86    8.13
   1   0   3  198.54   10.50
   1   0   3  172.04    6.18
  -1   0  -4  219.54   14.14
  -1   0  -4  181.52    6.43
  -1   0  -4  194.31   13.12
  -1   0  -4  219.11   13.46
  -1   0  -4  216.06   12.78
  -1   0  -4  213.44   11.18
  -1   0  -4  190.24    6.60
   1   0   4  176.36   12.62
   1   0   4  186.52    6.52
   1   0   4  194.31   12.95
   1   0   4  191.26   12.11
   1   0   4  186.77    9.14
   1   0   4  209.04   12.62
   1   0   4  171.95    6.35
  -1   0  -5 1512.37   37.76
  -1   0  -5 1659.26   17.10
  -1   0  -5 1498.31   37.08
  -1   0  -5 1850.27   40.98
  -1   0  -5 1638.52   35.90
  -1   0  -5 1973.45   38.78
  -1   0  -5 1637.16   17.02
   1   0   5 1518.63   37.34
   1   0   5 1400.10   15.49
   1   0   5 1733.60   39.79
   1   0   5 1476.39   34.04
   1   0   5 1465.80   25.06
   1   0   5 1661.04   35.81
   1   0   5 1426.52   15.75
  -1   0  -6   15.41    7.79
  -1   0  -6   12.11    5.67
  -1   0  -6    9.06    6.27
  -1   0  -6    9.65    5.76
   1   0   6   17.53    7.28
   1   0   6   13.21    7.03
   1   0   6   17.44    6.35
   1   0   6   17.86    4.66
   1   0   6   14.90    6.60
  -1   0  -7  217.50   19.64
  -1   0  -7  168.40   16.51
  -1   0  -7  197.35   18.03
  -1   0  -7  210.82   16.76
   1   0   7  140.20   15.41
   1   0   7  201.42   18.54
   1   0   7  179.07   15.83
   1   0   7  207.17   16.93
  -1   0  -8  118.11   19.30
  -1   0  -8   96.52   16.68
  -1   0  -8   86.19   16.00
  -1   0  -8  117.01   16.59
   1   0   8   83.48   15.41
   1   0   8   89.91   16.26
   1   0   8  102.02   15.07
   1   0   8  104.82   16.42
  -1   0  -9    7.28    9.91
  -1   0  -9    6.18    8.89
  -1   0  -9   12.36    9.14
  -1   0  -9   15.83    9.14
   1   0   9   16.17    8.81
   1   0   9   23.20   11.60
   1   0   9   15.41    8.21
   1   0   9    9.06    9.31
  -1   0 -10  167.30   26.42
  -1   0 -10  152.14   23.54
  -1   0 -10  140.63   22.86
  -1   0 -10  134.96   20.40
   1   0  10  123.95   21.25
   1   0  10  128.86   22.10
   1   0  10   -1.02    3.98
   1   0  10  149.09   21.76
  -1   0 -11   45.38   17.44
  -1   0 -11   39.62   15.24
  -1   0 -11   35.64   14.99
   1   0  11   30.31   13.55
   1   0  11   42.93   15.66
   1   0  11   51.39   16.26
  -1   0 -12   85.60   22.94
  -1   0 -12   63.84   18.54
  -1   0 -12   76.62   20.40
   1   0  12   72.22   19.13
   1   0  12   81.11   19.39
  -1  -1  13   65.45   17.27
   1   1 -13  101.09   26.25
   1   1 -13   86.19   23.11
  -1  -1  12   72.30   16.09
   1   1 -12   91.27   21.76
   1   1 -12   93.89   22.52
  -1  -1  11   31.50   15.16
  -1  -1  11   43.43   12.62
  -1  -1  11   38.27   12.02
   1   1 -11   67.14   19.22
   1   1 -11   50.97   16.93
   1   1 -11   51.98   15.66
  -1  -1  10   57.06   16.85
  -1  -1  10   85.93   16.09
  -1  -1  10   57.32   16.17
  -1  -1  10   71.80   15.66
  -1  -1  10   74.59   13.72
   1   1 -10   79.08   18.54
   1   1 -10   66.89   14.05
   1   1 -10   86.70   19.13
   1   1 -10   85.26   17.10
  -1  -1   9    7.20    7.79
  -1  -1   9   -0.85    5.67
  -1  -1   9    7.96   10.08
  -1  -1   9    4.23    7.03
  -1  -1   9    0.51    6.27
   1   1  -9   12.70    9.91
   1   1  -9    4.57    6.52
   1   1  -9   -1.19    6.94
   1   1  -9    0.25    7.28
  -1  -1   8  144.27   17.78
  -1  -1   8  132.16   13.55
  -1  -1   8  165.69   19.13
  -1  -1   8  160.69   15.75
  -1  -1   8  138.00   13.12
   1   1  -8  175.51   19.13
   1   1  -8  147.66   14.31
   1   1  -8  172.55   18.88
   1   1  -8  151.97   16.09
  -1  -1   7   18.80    8.55
  -1  -1   7   19.56    6.94
  -1  -1   7   23.79    5.16
  -1  -1   7   13.04    6.86
  -1  -1   7   27.60    8.13
  -1  -1   7   12.70    5.93
  -1  -1   7   26.08    5.42
   1   1  -7   27.01    9.48
   1   1  -7   18.20    4.91
   1   1  -7   18.29    6.69
   1   1  -7   17.78    7.62
   1   1  -7   16.00    6.69
   1   1  -7   22.01    4.74
   1   1  -7   23.11    5.16
  -1  -1   6  736.41   28.79
  -1  -1   6  542.45   20.32
  -1  -1   6  759.53   19.13
  -1  -1   6  765.62   29.97
  -1  -1   6  708.81   25.91
  -1  -1   6  795.34   12.87
  -1  -1   6  756.99   21.08
  -1  -1   6  842.75   21.84
  -1  -1   6  747.84   18.96
   1   1  -6  793.99   30.23
   1   1  -6  712.88   18.63
   1   1  -6  710.34   23.11
   1   1  -6  859.60   31.50
   1   1  -6  763.51   27.09
   1   1  -6  802.96   19.47
   1   1  -6  691.71   18.46
  -1  -1   5 2733.91   49.87
  -1  -1   5 2790.04   39.71
  -1  -1   5 2928.73   36.07
  -1  -1   5 2907.81   51.56
  -1  -1   5 2766.68   46.23
  -1  -1   5 3114.48   24.89
  -1  -1   5 2781.83   33.95
  -1  -1   5 2846.18   35.39
   1   1  -5 2849.31   35.56
   1   1  -5 2793.52   39.79
   1   1  -5 3213.88   54.10
   1   1  -5 2864.89   47.24
   1   1  -5 2793.43   35.47
  -1  -1   4  108.71    9.57
  -1  -1   4   87.04    6.94
  -1  -1   4  105.07    7.62
  -1  -1   4  112.77   10.58
  -1  -1   4  103.55    9.23
  -1  -1   4  116.24    5.42
  -1  -1   4  119.04    6.60
  -1  -1   4  112.94    6.27
  -1  -1   4  104.05    7.54
   1   1  -4  102.28    7.37
   1   1  -4  103.80    7.37
   1   1  -4  137.67   11.18
   1   1  -4   90.42    8.21
   1   1  -4  131.57    5.59
   1   1  -4  102.44    7.54
  -1  -1   3 1220.27   25.99
  -1  -1   3 1073.89   16.85
  -1  -1   3 1150.85   24.81
  -1  -1   3  934.45   21.84
  -1  -1   3 1129.94   13.55
  -1  -1   3 1024.61   13.04
   1   1  -3 1028.00   19.81
   1   1  -3  855.71   14.99
   1   1  -3 1223.91   25.48
   1   1  -3 1143.99   24.30
   1   1  -3 1232.21   15.66
   1   1  -3  997.86   19.64
  -1  -1   2 2913.49   34.04
  -1  -1   2 2511.84   18.71
  -1  -1   2 2514.04   18.63
  -1  -1   2 2317.53   28.02
  -1  -1   2 2274.52   29.89
  -1  -1   2 2830.43   33.44
  -1  -1   2 2526.65   15.83
  -1  -1   2 2608.95   16.34
  -1  -1   2 2645.01   30.06
   1   1  -2 2212.63   27.52
   1   1  -2 3183.91   33.95
   1   1  -2 2775.82   33.19
   1   1  -2 2852.10   24.98
   1   1  -2 2167.17   27.35
  -1  -1   1  389.37   11.01
  -1  -1   1  344.42    6.86
  -1  -1   1  285.41    9.57
  -1  -1   1  294.29    9.82
  -1  -1   1  297.26    9.65
  -1  -1   1  336.63    7.28
  -1  -1   1  305.39    6.86
  -1  -1   1  331.04   10.41
   1   1  -1  325.20    6.69
   1   1  -1  262.80    9.40
   1   1  -1  379.21    9.31
   1   1  -1  306.49    9.14
   1   1  -1  280.16    9.82
  -1  -1   0 1269.46   19.13
  -1  -1   0  974.07   16.42
  -1  -1   0 1106.06   16.59
  -1  -1   0  947.48   16.26
  -1  -1   0 1016.99   16.34
  -1  -1   0  935.38   15.66
  -1  -1   0 1258.63   17.36
  -1  -1   0  889.66   15.75
   1   1   0  920.22   15.16
   1   1   0  927.42   16.09
   1   1   0 1134.68   13.46
   1   1   0 1086.84   18.46
   1   1   0  989.05   14.99
   1   1   0  939.02   16.34
  -1  -1  -1 1760.60   25.65
  -1  -1  -1 1383.68   18.37
  -1  -1  -1 1270.57   22.35
  -1  -1  -1 1402.05   18.54
  -1  -1  -1 1301.47   18.96
  -1  -1  -1 1621.67   23.11
  -1  -1  -1 1354.55   18.29
   1   1   1 1489.42   24.21
   1   1   1 1278.61   17.69
   1   1   1 1597.20   20.15
   1   1   1 1239.07   21.42
   1   1   1 1605.67   23.03
   1   1   1 1256.51   17.61
  -1  -1  -2 2331.08   34.54
  -1  -1  -2 2111.46   21.25
  -1  -1  -2 1860.76   32.00
  -1  -1  -2 1826.14   19.64
  -1  -1  -2 1891.75   25.65
  -1  -1  -2 2406.43   31.66
   1   1   2 1491.46   28.53
   1   1   2 1727.50   19.13
   1   1   2 1873.21   27.60
   1   1   2 1749.51   27.52
   1   1   2 2101.72   30.39
   1   1   2 1859.58   19.90
   1   1   2 1848.49   19.98
  -1  -1  -3  436.02   18.03
  -1  -1  -3  323.08   15.49
  -1  -1  -3  396.91    8.47
  -1  -1  -3  382.35   13.55
  -1  -1  -3  398.86   14.65
   1   1   3  338.24   15.83
   1   1   3  339.17    7.87
   1   1   3  358.64   14.99
   1   1   3  307.76   12.28
   1   1   3  339.34   13.55
   1   1   3  399.45   15.58
   1   1   3  337.47    7.87
   1   1   3  372.10    8.38
  -1  -1  -4 1093.95   30.99
  -1  -1  -4 1041.04   30.73
  -1  -1  -4 1019.45   24.38
   1   1   4  936.82   28.87
   1   1   4  953.58    9.40
   1   1   4  901.17    8.89
   1   1   4 1046.20   28.70
   1   1   4 1042.48   24.64
   1   1   4  982.11   24.04
   1   1   4 1073.72   27.69
   1   1   4  902.44    8.97
   1   1   4  979.91    9.57
  -1  -1  -5  316.82   19.64
  -1  -1  -5  270.50   17.44
  -1  -1  -5  276.18   14.65
   1   1   5  255.35   16.93
   1   1   5  292.77   17.69
   1   1   5  294.89   14.99
   1   1   5  258.40   13.38
   1   1   5  320.71   17.44
  -1  -1  -6   25.06    9.57
  -1  -1  -6   20.49    8.21
  -1  -1  -6   25.06    7.37
   1   1   6   20.32    8.21
   1   1   6   25.23    8.55
   1   1   6   18.29    6.35
   1   1   6   24.30    6.43
   1   1   6   19.56    8.04
  -1  -1  -7  100.84   17.27
  -1  -1  -7   73.74   14.56
  -1  -1  -7  101.68   15.58
  -1  -1  -7  111.84   12.53
   1   1   7   93.47   16.26
   1   1   7   78.91   14.39
   1   1   7  104.98   12.28
   1   1   7   96.26   10.58
   1   1   7   97.53   15.16
  -1  -1  -8   51.05   13.80
  -1  -1  -8   49.70   13.46
  -1  -1  -8   37.93   11.94
  -1  -1  -8   45.97   11.01
   1   1   8   45.72   13.63
   1   1   8   51.31   13.46
   1   1   8   34.97    8.97
   1   1   8   35.14   11.35
  -1  -1  -9  139.19   23.11
  -1  -1  -9  101.17   19.22
  -1  -1  -9  125.05   20.49
   1   1   9   96.60   19.05
   1   1   9  106.51   19.05
   1   1   9  130.30   20.40
  -1  -1 -10   16.59   13.89
  -1  -1 -10    3.22    9.40
  -1  -1 -10   18.12   11.26
   1   1  10   19.73   11.77
   1   1  10   21.76   12.36
   1   1  10   21.67   11.60
  -1  -1 -11   91.78   23.20
  -1  -1 -11   60.28   18.29
  -1  -1 -11   79.50   19.30
   1   1  11   93.55   22.18
   1   1  11   68.58   18.46
   1   1  11   87.20   18.88
  -1  -1 -12   29.04   15.92
  -1  -1 -12   24.89   15.92
  -1  -1 -12   30.23   15.24
   1   1  12   19.22   12.53
   1   1  12   23.88   14.99
   1   1  12   35.56   16.26
  -1  -2  13   23.20   14.73
  -1  -2  13   12.53   11.35
   1   2 -13   26.42   15.24
   1   2 -13   14.73   13.80
  -1  -2  12   34.71   17.02
  -1  -2  12   28.96   13.04
  -1  -2  12   24.89   11.68
   1   2 -12   46.90   17.61
   1   2 -12   47.75   17.02
   1   2 -12   29.55   13.97
  -1  -2  11  144.69   25.15
  -1  -2  11  166.71   20.66
  -1  -2  11  129.71   19.05
   1   2 -11  216.23   26.33
   1   2 -11  179.57   22.27
   1   2 -11  177.63   25.31
  -1  -2  10    5.84    9.99
  -1  -2  10    1.19    7.03
  -1  -2  10    2.46    7.45
   1   2 -10    0.34    9.65
   1   2 -10    2.12    8.89
   1   2 -10    7.54    9.91
  -1  -2   9  202.86   21.84
  -1  -2   9  204.80   16.68
  -1  -2   9  183.81   18.88
  -1  -2   9  180.25   16.17
   1   2  -9  258.23   23.88
   1   2  -9  201.25   20.49
   1   2  -9  232.83   21.67
  -1  -2   8  242.82   21.25
  -1  -2   8  215.05   15.32
  -1  -2   8  249.08   14.56
  -1  -2   8  247.56   19.90
  -1  -2   8  234.44   16.34
   1   2  -8  254.93   21.84
   1   2  -8  226.14   13.72
   1   2  -8  271.94   16.85
   1   2  -8  268.73   22.44
   1   2  -8  270.84   21.25
   1   2  -8  232.66   14.14
  -1  -2   7  196.76   17.86
  -1  -2   7  184.82   12.62
  -1  -2   7  170.85   12.19
  -1  -2   7  173.99   15.92
  -1  -2   7  168.14   12.78
   1   2  -7  197.86   13.04
   1   2  -7  205.57   13.21
   1   2  -7  214.96   18.63
   1   2  -7  165.86   16.17
   1   2  -7  197.86   13.04
  -1  -2   6   46.23    9.99
  -1  -2   6   45.21    7.11
  -1  -2   6   44.20    7.70
  -1  -2   6   51.73   10.24
  -1  -2   6   43.26    7.37
  -1  -2   6   53.93    7.87
  -1  -2   6   52.07    8.21
   1   2  -6   49.36    8.13
   1   2  -6   48.85    7.37
   1   2  -6   58.76   11.18
   1   2  -6   67.90   11.85
   1   2  -6   44.03    7.54
  -1  -2   5  225.12   15.92
  -1  -2   5  178.05    9.14
  -1  -2   5    3.22    2.54
  -1  -2   5  199.22   14.48
  -1  -2   5  191.00   10.75
  -1  -2   5  217.84   11.01
  -1  -2   5    4.66    2.62
   1   2  -5  175.43   11.43
   1   2  -5  213.10    9.82
   1   2  -5  231.22   15.41
   1   2  -5  174.24   13.21
   1   2  -5  197.44    5.84
   1   2  -5  161.63   11.09
  -1  -2   4  308.77   16.26
  -1  -2   4  228.60    7.87
  -1  -2   4  288.62   13.80
  -1  -2   4  274.65   15.32
  -1  -2   4  285.32   11.35
  -1  -2   4  315.88   11.68
  -1  -2   4  262.12   13.04
   1   2  -4  321.05   14.39
   1   2  -4  282.70    8.55
   1   2  -4  347.80   16.68
   1   2  -4  275.67   14.90
   1   2  -4  300.39    8.72
   1   2  -4  318.17   14.48
  -1  -2   3  921.75   24.13
  -1  -2   3  731.67    7.45
  -1  -2   3  831.58   21.50
  -1  -2   3  759.19   22.01
  -1  -2   3  787.81   16.51
  -1  -2   3  857.40   17.02
  -1  -2   3  723.80   19.98
   1   2  -3  829.97   21.50
   1   2  -3  767.23    7.45
   1   2  -3 1050.18   25.15
   1   2  -3  741.92   21.76
   1   2  -3  781.46   15.24
   1   2  -3  824.89   21.59
  -1  -2   2  454.73   15.66
  -1  -2   2  428.32    5.67
  -1  -2   2  433.74    4.83
  -1  -2   2  320.03   12.87
  -1  -2   2  348.06   13.46
  -1  -2   2  361.01   13.72
  -1  -2   2  395.72   11.51
  -1  -2   2  388.10   14.22
   1   2  -2  325.62    4.15
   1   2  -2  318.34   12.87
   1   2  -2  495.20   15.41
   1   2  -2  358.05   13.63
   1   2  -2  358.89   11.68
   1   2  -2  318.42   12.95
  -1  -2   1 1642.67   27.69
  -1  -2   1 1417.04   17.44
  -1  -2   1 1431.00   25.82
  -1  -2   1 1398.07   23.88
  -1  -2   1 1462.25   24.38
  -1  -2   1 1619.30   23.71
  -1  -2   1 1298.93   24.55
   1   2  -1 1307.06   16.68
   1   2  -1 1190.22   23.54
   1   2  -1 1842.73   26.16
   1   2  -1 1401.71   23.88
   1   2  -1 1279.62   23.28
   1   2  -1 1550.81   22.01
   1   2  -1 1263.11   24.38
  -1  -2   0 1832.23   29.89
  -1  -2   0 1478.42   23.37
  -1  -2   0 1397.05   24.47
  -1  -2   0 1772.46   24.55
  -1  -2   0 1535.06   22.86
  -1  -2   0 1902.84   27.52
  -1  -2   0 1435.83   24.64
   1   2   0 1416.78   22.86
   1   2   0 1498.48   25.31
   1   2   0 1896.58   25.99
   1   2   0 1474.01   26.84
   1   2   0 1714.63   25.74
   1   2   0 1572.40   26.08
  -1  -2  -1  950.19   23.28
  -1  -2  -1  874.42   21.67
  -1  -2  -1  799.07   17.69
  -1  -2  -1  973.48   17.69
  -1  -2  -1  781.96   15.83
  -1  -2  -1 1010.73   21.84
  -1  -2  -1  740.65   17.02
   1   2   1  805.76   20.83
   1   2   1  672.07   16.17
   1   2   1 1011.32   20.83
   1   2   1  860.53   16.68
   1   2   1  856.13   22.01
   1   2   1  948.75   21.25
   1   2   1  696.45   16.59
  -1  -2  -2  141.81   11.51
  -1  -2  -2  118.87   10.24
  -1  -2  -2  120.90    7.28
  -1  -2  -2  122.00    7.20
  -1  -2  -2  133.94    9.48
  -1  -2  -2  104.22    6.77
   1   2   2  106.17    9.14
   1   2   2  109.81    7.03
   1   2   2  133.60    9.40
   1   2   2  132.67    7.62
   1   2   2   95.42    8.89
   1   2   2  128.94    9.65
   1   2   2  120.39    7.45
  -1  -2  -3  142.74   12.19
  -1  -2  -3  129.79   12.19
  -1  -2  -3  124.71    6.77
  -1  -2  -3  122.00    8.13
  -1  -2  -3  153.67   11.18
  -1  -2  -3  133.77    7.11
   1   2   3   90.68    9.82
   1   2   3  111.67    6.43
   1   2   3  138.34   11.26
   1   2   3  126.15    8.47
   1   2   3  113.45   10.41
   1   2   3  132.75   11.18
   1   2   3  125.98    6.77
   1   2   3  116.75    6.94
  -1  -2  -4  181.61   14.65
  -1  -2  -4  176.19   14.90
  -1  -2  -4  176.10    6.43
  -1  -2  -4  173.39   10.24
  -1  -2  -4  199.30   12.62
   1   2   4  149.18   13.89
   1   2   4  141.98    5.84
   1   2   4  194.90   14.22
   1   2   4  157.39    9.82
   1   2   4  146.72   11.77
   1   2   4  172.29   13.21
   1   2   4  161.46    6.18
   1   2   4  151.89    6.10
  -1  -2  -5    1.52    5.00
  -1  -2  -5    1.61    3.98
  -1  -2  -5    1.19    3.73
   1   2   5    5.50    5.93
   1   2   5    0.42    4.66
   1   2   5   -2.37    3.39
   1   2   5    0.85    4.57
   1   2   5    0.25    4.91
  -1  -2  -6 1003.62   39.03
  -1  -2  -6  798.56   34.20
  -1  -2  -6  912.52   26.75
   1   2   6  927.00   37.17
   1   2   6  978.64   35.98
   1   2   6  828.61   25.40
   1   2   6  745.22   27.01
   1   2   6  950.45   33.27
  -1  -2  -7    5.76    9.23
  -1  -2  -7   13.97    9.48
  -1  -2  -7    8.04    6.18
   1   2   7   10.75    7.54
   1   2   7    4.66    7.87
   1   2   7   11.85    6.18
   1   2   7   14.14    6.52
   1   2   7   13.46    8.81
  -1  -2  -8  134.96   22.27
  -1  -2  -8   91.35   18.29
  -1  -2  -8  114.55   18.71
   1   2   8  128.61   21.17
   1   2   8  109.89   18.71
   1   2   8  133.52   19.13
  -1  -2  -9   24.04   13.72
  -1  -2  -9   40.13   14.48
  -1  -2  -9   39.88   13.29
   1   2   9   24.04   12.70
   1   2   9   27.77   12.36
   1   2   9   40.05   13.46
  -1  -2 -10  107.44   23.37
  -1  -2 -10   94.32   20.91
  -1  -2 -10  101.17   20.91
   1   2  10   70.44   19.47
   1   2  10   85.60   19.22
   1   2  10   85.26   18.20
  -1  -2 -11   58.84   20.32
  -1  -2 -11   41.57   17.69
  -1  -2 -11   63.50   17.86
   1   2  11   48.85   18.03
   1   2  11   50.80   17.44
   1   2  11   66.38   18.12
  -1  -3  13   -4.49   11.85
  -1  -3  13   -6.43    9.06
  -1  -3  13    3.64   10.67
   1   3 -13    1.44   12.95
   1   3 -13    3.13    9.82
   1   3 -13    1.86   11.68
  -1  -3  12   87.04   22.27
  -1  -3  12   75.69   18.80
  -1  -3  12   65.87   15.66
   1   3 -12  102.36   23.79
   1   3 -12   90.51   22.10
   1   3 -12   96.35   21.59
  -1  -3  11   71.03   19.05
  -1  -3  11   75.61   17.61
  -1  -3  11   53.42   13.55
   1   3 -11   89.74   20.83
   1   3 -11   83.82   19.47
   1   3 -11   82.04   19.22
  -1  -3  10   18.46   11.43
  -1  -3  10   48.85   14.14
  -1  -3  10   34.97   10.58
   1   3 -10   41.06   14.90
   1   3 -10   44.79   14.90
   1   3 -10   38.86   14.39
  -1  -3   9   14.73    8.64
  -1  -3   9    8.81    6.94
  -1  -3   9    5.59    6.77
   1   3  -9   26.16   12.02
   1   3  -9   10.84   10.16
  -1  -3   8   15.07    9.14
  -1  -3   8   17.69    6.86
  -1  -3   8   13.38    8.47
  -1  -3   8    6.43    6.27
   1   3  -8   13.55    7.03
   1   3  -8   22.10   10.58
   1   3  -8   11.26    8.89
   1   3  -8    8.97    6.35
  -1  -3   7  154.68   16.51
  -1  -3   7  122.59    9.14
  -1  -3   7  149.18   12.70
  -1  -3   7  151.21   15.92
  -1  -3   7  134.62   12.45
   1   3  -7  125.73   12.02
   1   3  -7  155.36   16.76
   1   3  -7  150.96   16.42
   1   3  -7  115.06   11.68
  -1  -3   6  133.69   13.46
  -1  -3   6  125.81    7.54
  -1  -3   6  123.61   11.51
  -1  -3   6  144.18   14.31
  -1  -3   6  122.26   10.84
   1   3  -6  138.00   12.45
   1   3  -6  140.04    7.87
   1   3  -6  147.99   14.90
   1   3  -6   96.35   11.77
   1   3  -6  117.01    4.74
   1   3  -6  132.08   12.45
  -1  -3   5  565.39   24.04
  -1  -3   5  477.68    9.65
  -1  -3   5  505.79   21.00
  -1  -3   5  526.19   23.79
  -1  -3   5  502.23   18.37
   1   3  -5  635.83   23.62
   1   3  -5  638.46   11.09
   1   3  -5  711.10   27.43
   1   3  -5  603.24   25.48
   1   3  -5  474.21   12.28
   1   3  -5  604.34   23.11
  -1  -3   4  152.31   12.95
  -1  -3   4  123.36   11.43
  -1  -3   4  132.67   12.36
  -1  -3   4  157.90   10.84
   1   3  -4  123.02   11.35
   1   3  -4  175.85   13.80
   1   3  -4  132.42   11.68
   1   3  -4  119.80    7.79
   1   3  -4  107.69   10.92
  -1  -3   3   75.61    9.40
  -1  -3   3   58.93    9.23
  -1  -3   3   62.91    9.48
  -1  -3   3   68.32    8.47
   1   3  -3   60.54    9.06
   1   3  -3   90.42    9.91
   1   3  -3   68.07    8.04
   1   3  -3   58.93    6.77
   1   3  -3   56.22    8.72
  -1  -3   2   78.99    8.72
  -1  -3   2   61.64    3.89
  -1  -3   2   56.30    8.47
  -1  -3   2   58.08    8.04
  -1  -3   2   71.46    7.79
  -1  -3   2   69.00    7.28
  -1  -3   2   61.89    8.89
   1   3  -2   56.30    3.81
   1   3  -2   50.21    8.21
   1   3  -2   90.25    8.13
   1   3  -2   71.29    7.87
   1   3  -2   54.69    7.45
   1   3  -2   78.99    6.94
   1   3  -2   53.17    8.38
  -1  -3   1  158.58   11.26
  -1  -3   1  131.48    7.37
  -1  -3   1  127.00   10.08
  -1  -3   1  145.62    9.31
  -1  -3   1  148.08    9.40
  -1  -3   1  161.79   10.16
  -1  -3   1  137.67    9.82
   1   3  -1  129.03    7.28
   1   3  -1  130.72    9.65
   1   3  -1  185.33   11.01
   1   3  -1  143.59    9.31
   1   3  -1  122.93    9.57
   1   3  -1  147.40    9.14
   1   3  -1  130.47    9.74
  -1  -3   0 1115.21   27.94
  -1  -3   0  959.68   22.44
  -1  -3   0  982.03   24.55
  -1  -3   0 1104.88   22.10
  -1  -3   0 1062.04   21.59
  -1  -3   0 1210.37   26.50
  -1  -3   0 1068.72   25.31
   1   3   0  900.83   21.76
   1   3   0  868.32   23.11
   1   3   0 1306.21   27.26
   1   3   0  827.77   24.21
   1   3   0 1122.40   25.15
   1   3   0  874.59   23.28
  -1  -3  -1  772.99   24.81
  -1  -3  -1  680.96   22.01
  -1  -3  -1  665.80   19.73
  -1  -3  -1  881.61   18.71
  -1  -3  -1  690.36   16.51
  -1  -3  -1  911.67   24.21
  -1  -3  -1  738.70   20.74
   1   3   1  641.34   21.42
   1   3   1  598.66   18.71
   1   3   1  834.37   23.20
   1   3   1  835.22   18.20
   1   3   1  698.91   23.71
   1   3   1  853.68   23.54
   1   3   1  614.24   19.05
  -1  -3  -2  649.89   25.15
  -1  -3  -2  498.59   21.34
  -1  -3  -2  603.07   18.12
  -1  -3  -2  576.06   14.90
  -1  -3  -2  716.18   22.61
  -1  -3  -2  587.40   17.86
   1   3   2  592.48   23.11
   1   3   2  463.37   15.75
   1   3   2  629.14   21.93
   1   3   2  632.78   15.66
   1   3   2  536.10   22.01
   1   3   2  625.25   21.93
   1   3   2  485.72   16.42
  -1  -3  -3  260.77   18.03
  -1  -3  -3  233.51   16.76
  -1  -3  -3  226.56   10.92
  -1  -3  -3  213.61    9.82
  -1  -3  -3  234.61   11.18
   1   3   3  232.07   16.59
   1   3   3  211.24   10.50
   1   3   3  255.18   15.83
   1   3   3  231.30   10.24
   1   3   3  193.37   14.48
   1   3   3  227.75   14.90
   1   3   3  229.36   11.09
  -1  -3  -4   58.50   12.11
  -1  -3  -4   54.61   11.43
  -1  -3  -4   55.03    5.67
  -1  -3  -4   62.91    6.52
  -1  -3  -4   66.21    9.91
  -1  -3  -4   63.58    6.27
   1   3   4   50.88   10.84
   1   3   4   54.78    5.84
   1   3   4   71.88   11.43
   1   3   4   66.89    6.86
   1   3   4   60.79   10.92
   1   3   4   65.87   11.09
   1   3   4   66.97    6.10
   1   3   4   54.52    6.01
  -1  -3  -5  147.82   16.09
  -1  -3  -5  134.11   15.92
  -1  -3  -5  145.88   10.16
   1   3   5  125.22   14.39
   1   3   5  175.93   16.26
   1   3   5  152.06   10.58
   1   3   5  144.69   14.31
   1   3   5  172.97   15.58
  -1  -3  -6  153.92   17.86
  -1  -3  -6  128.52   19.47
   1   3   6  114.55   18.12
   1   3   6  168.48   17.61
   1   3   6  127.93   14.22
   1   3   6  138.93   16.00
  -1  -3  -7  136.99   22.18
  -1  -3  -7   93.89   18.03
   1   3   7   82.89   16.68
   1   3   7  122.76   18.80
   1   3   7   97.79   15.83
   1   3   7   96.09   16.68
  -1  -3  -8  133.26   23.54
  -1  -3  -8   93.22   19.64
   1   3   8   99.90   19.56
   1   3   8  128.61   21.00
   1   3   8  139.10   20.91
  -1  -3  -9   87.29   21.34
  -1  -3  -9   64.77   17.10
  -1  -3  -9   77.13   18.03
   1   3   9   93.05   20.66
   1   3   9   81.11   18.37
   1   3   9   78.23   17.53
  -1  -3 -10   67.90   19.81
  -1  -3 -10   61.13   19.39
  -1  -3 -10   57.83   17.10
   1   3  10   44.11   17.44
   1   3  10   57.23   17.53
   1   3  10   64.77   17.36
  -1  -3 -11    7.20   16.09
  -1  -3 -11   19.30   15.49
  -1  -3 -11    4.15   13.04
   1   3  11   17.27   14.65
   1   3  11   16.85   14.39
   1   3  11   12.53   13.29
  -1  -4  13   40.13   17.95
  -1  -4  13   35.05   15.83
  -1  -4  13   35.98   14.31
   1   4 -13   55.29   20.15
   1   4 -13   57.66   19.81
   1   4 -13   29.29   16.34
  -1  -4  12    4.23    9.74
  -1  -4  12    2.88    9.74
  -1  -4  12    3.05    8.64
   1   4 -12   17.95   11.68
   1   4 -12    9.74   12.36
   1   4 -12    8.81   10.41
  -1  -4  11   55.20   17.10
  -1  -4  11   45.55   15.49
  -1  -4  11   42.93   12.62
   1   4 -11   49.11   16.68
   1   4 -11   49.61   15.58
   1   4 -11   36.24   15.07
  -1  -4  10   35.05   14.31
  -1  -4  10   41.82   12.87
  -1  -4  10   27.94   10.58
   1   4 -10   41.15   14.05
   1   4 -10   31.07   13.97
  -1  -4   9   18.88   11.09
  -1  -4   9   13.89    8.04
  -1  -4   9   11.94    9.48
  -1  -4   9   18.37    8.81
   1   4  -9   14.73    8.21
   1   4  -9   13.72   10.75
   1   4  -9    9.31   10.58
   1   4  -9   22.35    8.55
  -1  -4   8  201.93   19.30
  -1  -4   8    9.14    4.91
  -1  -4   8  164.25   17.53
  -1  -4   8  166.96   15.41
   1   4  -8  216.23   18.20
   1   4  -8  224.79   20.57
   1   4  -8  214.03   21.50
   1   4  -8  193.37   17.44
  -1  -4   7   16.93    9.06
  -1  -4   7   18.96    7.87
  -1  -4   7   13.97    7.37
  -1  -4   7   10.67    6.27
   1   4  -7    7.79    6.18
   1   4  -7   13.72    7.62
   1   4  -7   17.44    9.23
   1   4  -7   16.68    8.04
  -1  -4   6   10.41    6.43
  -1  -4   6    9.82    6.01
  -1  -4   6   10.67    6.77
  -1  -4   6    8.13    5.33
   1   4  -6    6.69    5.76
   1   4  -6    5.93    7.03
   1   4  -6    6.43    6.94
   1   4  -6    9.31    3.39
   1   4  -6    5.67    5.50
  -1  -4   5  153.33   14.65
  -1  -4   5  143.85   13.55
  -1  -4   5  138.43   13.29
  -1  -4   5  145.28   12.19
   1   4  -5  122.93   12.78
   1   4  -5  194.90   15.49
   1   4  -5  139.02   14.31
   1   4  -5  121.58    8.81
   1   4  -5  149.35   13.97
  -1  -4   4   33.61    8.64
  -1  -4   4   38.01    8.72
  -1  -4   4   31.50    7.70
  -1  -4   4   21.42    6.27
   1   4  -4   31.66    8.30
   1   4  -4   47.33   10.08
   1   4  -4   30.99    8.38
   1   4  -4   34.46    6.52
   1   4  -4   30.73    8.30
  -1  -4   3  177.63   13.55
  -1  -4   3  151.97    5.00
  -1  -4   3  127.76   12.53
  -1  -4   3  169.24   12.78
  -1  -4   3  171.19   12.36
   1   4  -3  143.51    4.83
   1   4  -3  156.46   13.63
   1   4  -3  206.92   14.90
   1   4  -3  141.81   11.94
   1   4  -3  138.09   11.18
   1   4  -3  170.43   10.75
   1   4  -3  169.16   14.22
  -1  -4   2  321.98   17.86
  -1  -4   2  282.87   10.33
  -1  -4   2  271.01   16.59
  -1  -4   2  315.97   16.09
  -1  -4   2  328.84   16.26
   1   4  -2  256.79    9.91
   1   4  -2  258.57   16.34
   1   4  -2  363.30   18.03
   1   4  -2  278.89   15.32
   1   4  -2  260.68   14.99
   1   4  -2  315.12   14.73
   1   4  -2  245.19   16.09
  -1  -4   1  679.35   25.15
  -1  -4   1  544.56   17.02
  -1  -4   1  556.33   21.93
  -1  -4   1  635.24   20.66
  -1  -4   1  644.89   20.57
  -1  -4   1  683.58   22.86
   1   4  -1  533.13   17.02
   1   4  -1  538.81   22.01
   1   4  -1  740.82   24.38
   1   4  -1  590.11   19.73
   1   4  -1  620.68   23.37
   1   4  -1  708.81   22.44
   1   4  -1  533.30   22.01
  -1  -4   0  240.36   15.58
  -1  -4   0  215.13   12.87
  -1  -4   0  195.75   13.63
  -1  -4   0  259.07   12.45
  -1  -4   0  252.39   12.11
  -1  -4   0  280.33   15.58
   1   4   0  198.03   12.36
   1   4   0  240.45   14.82
   1   4   0  304.62   16.51
   1   4   0  232.66   11.77
   1   4   0  199.89   14.82
   1   4   0  266.86   14.82
   1   4   0  245.78   15.07
  -1  -4  -1  596.21   24.81
  -1  -4  -1  469.21   20.57
  -1  -4  -1  512.73   20.23
  -1  -4  -1  617.38   17.27
  -1  -4  -1  594.43   16.85
  -1  -4  -1  623.05   22.61
   1   4   1  478.19   20.74
   1   4   1  444.15   18.80
   1   4   1  676.64   24.30
   1   4   1  638.37   17.44
   1   4   1  499.10   23.03
   1   4   1  580.89   22.27
   1   4   1  436.02   18.88
  -1  -4  -2  410.79   22.52
  -1  -4  -2  401.65   21.08
  -1  -4  -2  402.58   17.44
  -1  -4  -2  410.03   13.38
  -1  -4  -2  483.44   20.49
   1   4   2  314.70   18.37
   1   4   2  413.67   17.78
   1   4   2  489.96   22.01
   1   4   2  451.77   13.89
   1   4   2  376.08   21.00
   1   4   2  461.93   21.25
   1   4   2  401.65   17.69
  -1  -4  -3  154.51   16.17
  -1  -4  -3  116.41   12.87
  -1  -4  -3  119.72    9.91
  -1  -4  -3  130.55    7.87
  -1  -4  -3  165.77   13.21
  -1  -4  -3  144.35   10.92
   1   4   3  102.28   12.11
   1   4   3  106.93    9.65
   1   4   3  132.50   13.12
   1   4   3  130.72    7.96
   1   4   3  113.54   13.12
   1   4   3  144.95   13.63
   1   4   3  131.57   10.50
  -1  -4  -4  770.87   34.46
  -1  -4  -4  713.81   32.09
  -1  -4  -4  822.77   21.93
   1   4   4  787.89   34.12
   1   4   4  936.48   34.37
   1   4   4  717.28   30.90
   1   4   4  892.11   32.60
  -1  -4  -5  116.08   19.47
  -1  -4  -5  117.01   18.37
   1   4   5  111.16   17.69
   1   4   5  117.60   17.27
   1   4   5   86.78   14.99
   1   4   5  119.29   16.68
  -1  -4  -6  105.49   19.64
  -1  -4  -6   82.12   16.51
   1   4   6   93.05   17.95
   1   4   6  114.21   18.29
   1   4   6   75.61   14.90
   1   4   6  128.94   19.05
  -1  -4  -7   11.77   11.94
  -1  -4  -7   16.85   10.92
   1   4   7   14.90   10.75
   1   4   7   20.15   10.75
   1   4   7   12.87    8.30
   1   4   7   25.23   11.77
  -1  -4  -8  101.34   23.11
  -1  -4  -8   94.23   21.17
   1   4   8   76.54   19.13
   1   4   8  125.30   21.25
   1   4   8  114.97   20.23
  -1  -4  -9  159.93   28.79
  -1  -4  -9  127.08   25.15
   1   4   9  152.40   27.09
   1   4   9  174.83   26.58
   1   4   9  171.36   25.15
  -1  -4 -10   48.60   20.91
  -1  -4 -10   21.42   12.62
  -1  -4 -10   25.23   13.72
   1   4  10   32.09   14.22
   1   4  10   43.18   16.93
   1   4  10   30.99   14.82
  -1  -5  13   -1.10   12.11
  -1  -5  13   -3.89    9.65
  -1  -5  13   -0.59    9.91
   1   5 -13   -2.54   12.02
   1   5 -13   -4.06   11.35
   1   5 -13   -0.85    9.82
  -1  -5  12   32.77   16.51
  -1  -5  12   41.74   15.07
  -1  -5  12   38.10   13.89
   1   5 -12   51.14   18.54
   1   5 -12   59.18   18.37
   1   5 -12   47.92   18.71
  -1  -5  11   37.34   15.32
  -1  -5  11   36.15   14.05
  -1  -5  11   36.66   12.70
   1   5 -11   51.22   16.09
   1   5 -11   48.09   17.44
  -1  -5  10   75.18   18.46
  -1  -5  10   74.76   17.86
  -1  -5  10   65.36   14.56
   1   5 -10   73.91   22.10
   1   5 -10   78.82   19.05
   1   5 -10   98.04   21.00
  -1  -5   9  407.58   28.87
  -1  -5   9  381.84   24.89
  -1  -5   9  427.13   30.56
  -1  -5   9  353.48   24.30
   1   5  -9  303.52   22.69
   1   5  -9  435.52   30.39
   1   5  -9  381.67   28.70
   1   5  -9  337.47   23.79
  -1  -5   8   32.77   12.02
  -1  -5   8   29.97    9.99
  -1  -5   8   22.01    9.57
  -1  -5   8   27.52    9.40
   1   5  -8   32.93   10.75
   1   5  -8   25.06   10.41
   1   5  -8   27.77   12.19
   1   5  -8   34.12   10.75
  -1  -5   7  102.36   17.19
  -1  -5   7   87.97   15.07
  -1  -5   7   98.55   16.51
  -1  -5   7  102.28   14.90
   1   5  -7   80.35   14.48
   1   5  -7  120.14   19.13
   1   5  -7   96.94   17.27
   1   5  -7   85.77   14.82
  -1  -5   6  140.80   16.09
  -1  -5   6  137.83   15.32
  -1  -5   6  136.56   16.26
  -1  -5   6  127.51   13.97
   1   5  -6  109.13   15.92
   1   5  -6  150.62   16.93
   1   5  -6  120.39   14.65
   1   5  -6  119.12    9.91
   1   5  -6  138.93   15.66
  -1  -5   5  104.65   15.41
  -1  -5   5   83.31   13.80
  -1  -5   5   99.06   15.24
  -1  -5   5   97.79   12.11
   1   5  -5   73.40   13.21
   1   5  -5  117.85   16.51
   1   5  -5   87.04   13.89
   1   5  -5   83.31    9.23
   1   5  -5   77.21   13.38
  -1  -5   4  148.84   14.82
  -1  -5   4  132.59   13.46
  -1  -5   4  148.16   14.48
  -1  -5   4  147.32   13.21
   1   5  -4  128.44   14.05
   1   5  -4  173.73   15.66
   1   5  -4  123.36   13.63
   1   5  -4  125.56   11.68
   1   5  -4  137.58   11.01
   1   5  -4  122.43   14.14
  -1  -5   3   33.95    9.14
  -1  -5   3   32.51    4.66
  -1  -5   3   28.53    8.81
  -1  -5   3   29.21    7.96
  -1  -5   3   35.56    8.64
   1   5  -3   30.06    4.49
   1   5  -3   25.31    7.79
   1   5  -3   41.74    9.65
   1   5  -3   29.38    8.13
   1   5  -3   23.54    7.03
   1   5  -3   37.34    7.79
   1   5  -3   23.88    7.54
  -1  -5   2   32.09    8.81
  -1  -5   2   38.44    6.27
  -1  -5   2   35.14    9.06
  -1  -5   2   33.87    7.79
  -1  -5   2   39.03    8.81
   1   5  -2   25.15    5.33
   1   5  -2   29.29    8.55
   1   5  -2   39.62    9.23
   1   5  -2   25.99    7.11
   1   5  -2   30.06    8.21
   1   5  -2   31.16    7.54
   1   5  -2   27.35    8.21
  -1  -5   1   41.23    9.91
  -1  -5   1   39.03    7.20
  -1  -5   1   48.85    9.74
  -1  -5   1   53.93    8.72
  -1  -5   1   48.09    9.65
   1   5  -1   36.15    7.28
   1   5  -1   30.65    8.04
   1   5  -1   50.29    9.82
   1   5  -1   38.78    7.45
   1   5  -1   39.12    9.31
   1   5  -1   48.94    9.23
   1   5  -1   34.71    9.06
  -1  -5   0  203.62   16.09
  -1  -5   0  163.15   12.78
  -1  -5   0  168.40   14.14
  -1  -5   0  195.32   11.94
  -1  -5   0  210.65   12.36
  -1  -5   0  210.65   15.49
   1   5   0  149.18   12.28
   1   5   0  205.48   15.49
   1   5   0  223.01   16.09
   1   5   0  187.70   11.68
   1   5   0  160.27   14.31
   1   5   0  209.04   14.90
   1   5   0  206.16   15.66
  -1  -5  -1   76.62   12.95
  -1  -5  -1   70.70   11.51
  -1  -5  -1   84.92   12.36
  -1  -5  -1   81.53    8.04
  -1  -5  -1   75.61    7.62
  -1  -5  -1  105.66   12.19
   1   5   1   60.03   10.67
   1   5   1   70.53   11.43
   1   5   1   96.09   11.68
   1   5   1   83.56    8.04
   1   5   1   61.97    7.20
   1   5   1   68.75   12.70
   1   5   1   81.28   12.19
   1   5   1   55.29   10.33
  -1  -5  -2  113.11   13.80
  -1  -5  -2  104.56   15.16
  -1  -5  -2   89.74   10.50
  -1  -5  -2  112.60    8.21
  -1  -5  -2  111.42   12.11
   1   5   2  105.24   15.07
   1   5   2  118.45   12.36
   1   5   2  124.88   13.63
   1   5   2   99.74    7.79
   1   5   2   94.99    7.54
   1   5   2   95.33   14.99
   1   5   2  103.21   12.62
   1   5   2  119.55   12.53
  -1  -5  -3  616.02   31.83
  -1  -5  -3  542.53   28.11
  -1  -5  -3  540.75   22.18
   1   5   3  553.45   28.87
   1   5   3  567.59   22.69
   1   5   3  700.18   30.65
   1   5   3  449.49   25.99
   1   5   3  630.08   28.62
   1   5   3  588.93   23.20
  -1  -5  -4   83.82   17.27
  -1  -5  -4   87.46   16.00
   1   5   4   72.22   14.48
   1   5   4   86.27   15.16
   1   5   4   76.54   15.16
   1   5   4   82.72   14.65
  -1  -5  -5    9.74   10.92
  -1  -5  -5   13.89    8.64
   1   5   5   15.75    9.57
   1   5   5   18.12    9.65
   1   5   5   13.72    9.06
   1   5   5   12.78    9.14
  -1  -5  -6  175.43   26.08
  -1  -5  -6  145.96   22.86
   1   5   6  119.38   21.34
   1   5   6  191.17   21.25
   1   5   6  135.04   20.66
   1   5   6  184.57   21.00
  -1  -5  -7   12.70   14.14
  -1  -5  -7    6.60    9.74
   1   5   7   18.88   12.11
   1   5   7   13.46   10.24
   1   5   7   15.83   10.41
   1   5   7   11.43   10.33
  -1  -5  -8   35.56   17.36
  -1  -5  -8   28.96   15.58
   1   5   8   36.66   15.75
   1   5   8   29.21   13.04
   1   5   8   27.69   14.65
   1   5   8   51.39   15.58
  -1  -5  -9   51.56   20.66
  -1  -5  -9   49.70   19.22
   1   5   9   37.85   16.34
   1   5   9   67.39   18.29
   1   5   9   79.84   19.98
  -1  -5 -10   68.49   24.55
  -1  -5 -10   42.93   16.85
   1   5  10   50.21   20.07
   1   5  10   59.94   19.64
   1   5  10   70.53   20.40
  -1  -6  13    6.94   13.12
  -1  -6  13   15.32   14.90
  -1  -6  13    4.32   12.19
   1   6 -13   21.00   15.75
   1   6 -13   15.32   15.32
   1   6 -13    5.93   15.24
  -1  -6  12   40.64   17.78
  -1  -6  12   48.43   17.36
  -1  -6  12   42.42   14.99
   1   6 -12   75.44   21.67
   1   6 -12   45.38   18.88
  -1  -6  11   12.95   10.33
  -1  -6  11    7.70    9.06
  -1  -6  11    2.20    8.81
   1   6 -11   -4.23    9.48
   1   6 -11    7.28   12.19
  -1  -6  10   58.16   16.68
  -1  -6  10   79.58   16.76
  -1  -6  10   51.56   15.83
  -1  -6  10   44.62   12.53
   1   6 -10   54.27   14.05
   1   6 -10   83.73   20.49
   1   6 -10   54.86   17.78
   1   6 -10   35.64   12.28
  -1  -6   9   11.85   11.09
  -1  -6   9    9.40    7.87
  -1  -6   9    7.28    9.40
  -1  -6   9    9.40    9.23
   1   6  -9   10.24    9.14
   1   6  -9   12.36   11.85
   1   6  -9    9.91    9.14
   1   6  -9    7.45    8.55
  -1  -6   8  138.43   21.59
  -1  -6   8   77.98   15.92
  -1  -6   8  124.03   20.40
  -1  -6   8   88.14   16.00
   1   6  -8   98.63   17.36
   1   6  -8  123.02   21.34
   1   6  -8  102.36   19.98
   1   6  -8   96.35   17.61
  -1  -6   7  410.12   27.94
  -1  -6   7  364.57   25.82
  -1  -6   7  396.65   28.28
  -1  -6   7  350.17   23.20
   1   6  -7  311.48   24.30
   1   6  -7  426.71   29.12
   1   6  -7  333.66   25.31
   1   6  -7  320.54   24.64
  -1  -6   6   19.47    8.97
  -1  -6   6   35.39   11.09
  -1  -6   6   21.59    9.23
  -1  -6   6   20.07    8.64
   1   6  -6   22.35   10.16
   1   6  -6   35.39   11.85
   1   6  -6   18.54   10.24
   1   6  -6   22.86    7.03
   1   6  -6   32.93   11.43
  -1  -6   5  199.22   17.95
  -1  -6   5  162.39   17.69
  -1  -6   5  148.76   15.75
  -1  -6   5  179.91   16.93
   1   6  -5  170.85   18.12
   1   6  -5  230.46   19.30
   1   6  -5  158.83   16.34
   1   6  -5  153.75   13.72
   1   6  -5  153.16   17.61
  -1  -6   4  241.97   19.81
  -1  -6   4  177.71   16.85
  -1  -6   4  214.37   18.20
  -1  -6   4  211.32   17.27
   1   6  -4  181.10   17.95
   1   6  -4  251.29   20.07
   1   6  -4  177.71   16.76
   1   6  -4  173.56   15.49
   1   6  -4  211.41   19.30
  -1  -6   3  419.43   24.72
  -1  -6   3  366.51   13.72
  -1  -6   3  341.88   22.86
  -1  -6   3  371.76   21.34
  -1  -6   3  401.31   22.52
   1   6  -3  321.39   12.87
   1   6  -3  335.87   22.10
   1   6  -3  456.09   25.15
   1   6  -3  330.11   20.32
   1   6  -3  302.59   19.73
   1   6  -3  393.78   22.18
   1   6  -3  340.78   22.27
  -1  -6   2   62.23   12.19
  -1  -6   2   70.44    8.55
  -1  -6   2   58.93   11.85
  -1  -6   2   49.78    9.57
  -1  -6   2   74.76   13.29
   1   6  -2   55.54    8.55
   1   6  -2   50.71   11.09
   1   6  -2   84.41   13.89
   1   6  -2   42.93    9.31
   1   6  -2   53.85   11.51
   1   6  -2   61.72   10.84
   1   6  -2   47.84   10.84
  -1  -6   1  128.35   14.39
  -1  -6   1  117.68   11.35
  -1  -6   1  111.59   13.89
  -1  -6   1  143.68   12.62
  -1  -6   1  135.89   14.39
   1   6  -1   92.79   10.58
   1   6  -1  102.36   15.24
   1   6  -1  139.27   14.73
   1   6  -1  102.61   10.67
   1   6  -1  120.56   14.56
   1   6  -1  124.12   13.21
   1   6  -1   92.45   14.73
  -1  -6   0   12.70    6.94
  -1  -6   0   19.30    7.11
  -1  -6   0   11.01    6.86
  -1  -6   0   24.72    6.77
  -1  -6   0   16.93    7.87
   1   6   0    8.64    5.59
   1   6   0   10.50    7.45
   1   6   0   31.50    9.48
   1   6   0   10.92    5.16
   1   6   0   15.07    7.28
   1   6   0   19.73    7.87
   1   6   0   11.18    7.28
  -1  -6  -1    0.17    5.16
  -1  -6  -1    0.00    5.08
  -1  -6  -1    1.27    5.33
  -1  -6  -1    1.10    3.81
  -1  -6  -1   -1.52    5.33
   1   6   1    1.61    5.00
   1   6   1    4.66    6.43
   1   6   1    0.25    5.76
   1   6   1    3.47    3.81
   1   6   1    0.34    3.47
   1   6   1    7.11    7.54
   1   6   1   -2.62    5.59
   1   6   1    0.08    5.59
  -1  -6  -2   15.66    8.64
  -1  -6  -2   11.09    7.87
  -1  -6  -2   11.09    6.86
   1   6   2    7.70    7.11
   1   6   2    9.40    6.94
   1   6   2   12.78    7.79
   1   6   2   10.24    8.55
   1   6   2    9.91    8.04
   1   6   2   12.28    7.03
  -1  -6  -3   81.11   16.26
  -1  -6  -3   82.89   16.09
  -1  -6  -3  100.50   14.05
   1   6   3   75.35   14.73
   1   6   3   83.65   13.29
   1   6   3   94.15   16.59
   1   6   3   78.48   16.17
   1   6   3   71.46   14.05
   1   6   3   71.71   12.62
  -1  -6  -4    9.40   10.41
  -1  -6  -4    6.94    8.47
   1   6   4    5.59    6.77
   1   6   4    5.16    7.87
   1   6   4    9.57    8.97
   1   6   4   -5.33    6.94
  -1  -6  -5  112.77   21.00
  -1  -6  -5  107.52   20.57
   1   6   5   86.44   18.46
   1   6   5  123.78   20.66
   1   6   5   97.36   19.05
   1   6   5   89.91   17.44
  -1  -6  -6   -6.01    7.62
  -1  -6  -6    1.78    8.89
   1   6   6    2.79    8.21
   1   6   6    5.84    9.14
   1   6   6   -0.51    7.79
   1   6   6   -3.81    7.87
  -1  -6  -7   48.85   19.39
  -1  -6  -7   21.34   13.46
   1   6   7   40.72   15.32
   1   6   7   37.17   13.89
   1   6   7   42.08   15.24
   1   6   7   39.88   15.07
  -1  -6  -8    1.27   10.84
  -1  -6  -8    6.10   12.36
   1   6   8   -2.96    8.81
   1   6   8   -1.69    9.91
   1   6   8    1.44   11.51
   1   6   8    6.18   12.11
  -1  -6  -9   -5.76   15.41
  -1  -6  -9    5.08   10.16
   1   6   9    3.22    9.23
   1   6   9   -3.47   10.16
   1   6   9    1.02   12.62
  -1  -7  12   13.12   13.89
  -1  -7  12    4.40   13.04
  -1  -7  12   15.49   12.95
   1   7 -12   29.63   16.34
   1   7 -12   23.54   16.68
  -1  -7  11    2.79    8.72
  -1  -7  11   -2.88    9.82
  -1  -7  11    2.79   10.41
   1   7 -11   10.41   13.21
   1   7 -11   -7.11   10.50
  -1  -7  10   32.17   14.90
  -1  -7  10   32.00   12.53
  -1  -7  10   25.65   14.22
  -1  -7  10   30.14   12.95
   1   7 -10   26.50   12.53
   1   7 -10   35.64   15.58
   1   7 -10   30.65   15.07
   1   7 -10   20.23   11.35
  -1  -7   9    3.30   10.24
  -1  -7   9    3.22    8.72
  -1  -7   9   -1.27    8.81
  -1  -7   9    8.30    9.40
   1   7  -9    1.95    8.72
   1   7  -9   -0.59    9.82
   1   7  -9    5.50   11.35
   1   7  -9   -1.78    8.97
  -1  -7   8  343.15   28.70
  -1  -7   8  338.91   27.60
  -1  -7   8  299.71   27.69
  -1  -7   8  296.07   24.13
   1   7  -8  268.39   25.48
   1   7  -8  387.51   30.82
   1   7  -8  296.75   26.50
   1   7  -8  289.38   25.91
  -1  -7   7   26.92   11.85
  -1  -7   7   21.17   11.01
  -1  -7   7   15.92   10.24
  -1  -7   7   15.41    9.57
   1   7  -7    6.69    9.06
   1   7  -7   22.52   10.16
   1   7  -7   16.85   11.26
   1   7  -7   15.32   10.08
  -1  -7   6  145.37   21.25
  -1  -7   6  116.50   19.56
  -1  -7   6  108.54   18.96
  -1  -7   6  102.78   16.85
   1   7  -6  105.92   19.05
   1   7  -6  147.49   21.93
   1   7  -6  102.44   18.03
   1   7  -6   87.97   13.29
   1   7  -6  113.87   19.39
  -1  -7   5   25.82   10.84
  -1  -7   5   19.73    9.82
  -1  -7   5   15.83    9.06
  -1  -7   5   26.16   10.08
   1   7  -5   21.59   10.67
   1   7  -5   30.39   11.68
   1   7  -5   20.32    9.91
   1   7  -5   16.34    8.04
   1   7  -5   10.92    9.57
  -1  -7   4  404.70   27.01
  -1  -7   4  332.31   25.31
  -1  -7   4  348.90   23.71
  -1  -7   4  372.61   23.96
   1   7  -4  277.28   22.61
   1   7  -4  404.11   26.75
   1   7  -4  311.31   21.76
   1   7  -4  293.87   21.00
   1   7  -4  272.62   22.44
  -1  -7   3   49.27   12.36
  -1  -7   3   33.53   11.68
  -1  -7   3   54.10   11.60
  -1  -7   3   46.99   11.94
   1   7  -3   37.68   12.19
   1   7  -3   48.51   12.62
   1   7  -3   44.11   11.09
   1   7  -3   52.58   12.28
   1   7  -3   27.77   10.50
  -1  -7   2   72.98   15.07
  -1  -7   2   69.93   10.75
  -1  -7   2   74.93   15.32
  -1  -7   2   65.78   11.60
  -1  -7   2   81.79   15.07
   1   7  -2   58.50    9.91
   1   7  -2   53.93   12.70
   1   7  -2   78.82   14.99
   1   7  -2   64.35   11.51
   1   7  -2   55.79   12.87
   1   7  -2   42.25   11.51
  -1  -7   1  119.38   19.13
  -1  -7   1   97.11   11.60
  -1  -7   1   94.32   16.26
  -1  -7   1   97.96   12.02
  -1  -7   1  103.55   16.00
   1   7  -1   89.32   11.09
   1   7  -1   72.47   15.07
   1   7  -1  100.41   16.42
   1   7  -1   95.50   11.35
   1   7  -1   85.51   15.83
   1   7  -1  112.94   16.26
   1   7  -1   78.57   15.16
  -1  -7   0   25.15   11.09
  -1  -7   0   32.51    9.57
  -1  -7   0   27.18    9.99
   1   7   0   25.40    8.89
   1   7   0   16.00    8.97
   1   7   0   30.23   10.58
   1   7   0   18.20    8.89
   1   7   0   32.93   10.41
   1   7   0   33.87   11.01
  -1  -7  -1   19.90   11.01
  -1  -7  -1   25.99    9.57
  -1  -7  -1   26.75    9.82
   1   7   1   14.39    7.62
   1   7   1   23.45    9.57
   1   7   1   33.27   11.26
   1   7   1   21.59   10.75
   1   7   1   32.26   10.84
   1   7   1   27.60   10.16
  -1  -7  -2   82.46   17.95
  -1  -7  -2   71.37   15.16
  -1  -7  -2  121.16   17.78
   1   7   2   64.18   14.31
   1   7   2   66.63   13.38
   1   7   2  103.80   18.12
   1   7   2   61.89   15.75
   1   7   2   69.93   14.99
   1   7   2   76.62   14.14
  -1  -7  -3   10.24   11.18
  -1  -7  -3   39.12   12.87
   1   7   3   22.44   10.67
   1   7   3   31.50   12.02
   1   7   3   19.39   11.43
   1   7   3   24.98   11.18
  -1  -7  -4   64.43   17.95
  -1  -7  -4   49.11   13.97
   1   7   4   61.04   15.66
   1   7   4   90.42   18.03
   1   7   4   67.48   17.27
   1   7   4   89.74   17.69
  -1  -7  -5    1.69   11.60
  -1  -7  -5   -3.30    5.76
   1   7   5    0.25    7.87
   1   7   5   -4.74    7.70
   1   7   5   -4.32    8.47
   1   7   5    4.74    9.48
  -1  -7  -6   57.32   19.30
  -1  -7  -6   39.45   14.48
   1   7   6   52.24   16.34
   1   7   6   60.62   17.02
   1   7   6   38.01   15.66
   1   7   6   44.03   15.92
  -1  -7  -7    3.22   14.22
  -1  -7  -7   12.02   10.84
   1   7   7    0.93    9.91
   1   7   7   11.43   12.02
   1   7   7   14.31   12.95
   1   7   7    6.10   12.36
  -1  -7  -8   19.73   19.22
  -1  -7  -8   24.89   15.75
   1   7   8   13.46   10.75
   1   7   8   27.26   14.22
   1   7   8   27.09   17.10
  -1  -8  12   35.39   17.10
  -1  -8  12    4.74   14.31
  -1  -8  12    2.88   12.19
   1   8 -12   23.88   17.02
   1   8 -12   16.59   16.68
  -1  -8  11   15.41   13.72
  -1  -8  11   18.46   11.68
  -1  -8  11   22.52   14.90
  -1  -8  11   27.85   14.39
   1   8 -11   10.67   12.19
   1   8 -11   26.33   16.34
   1   8 -11   14.31   14.73
  -1  -8  10   21.42   13.72
  -1  -8  10   16.42   11.85
  -1  -8  10   32.43   16.09
  -1  -8  10   29.63   13.21
   1   8 -10   42.08   15.92
   1   8 -10   35.81   14.82
   1   8 -10   22.94   12.53
  -1  -8   9   49.19   16.34
  -1  -8   9   46.14   15.24
  -1  -8   9   67.56   18.96
  -1  -8   9   59.43   16.17
   1   8  -9   42.76   14.90
   1   8  -9   63.16   18.46
   1   8  -9   52.66   18.03
  -1  -8   8   77.98   18.37
  -1  -8   8   71.37   17.53
  -1  -8   8   70.53   17.19
  -1  -8   8   72.22   16.51
   1   8  -8   75.01   18.88
   1   8  -8   85.85   20.07
   1   8  -8   93.30   20.66
   1   8  -8   62.91   16.42
  -1  -8   7   35.73   13.72
  -1  -8   7   29.72   12.45
  -1  -8   7   61.30   16.59
  -1  -8   7   35.14   12.53
   1   8  -7   31.58   13.63
   1   8  -7   63.84   17.10
   1   8  -7   42.16   14.56
   1   8  -7   31.33   12.62
  -1  -8   6  185.42   22.01
  -1  -8   6  124.46   21.34
  -1  -8   6  173.48   21.00
  -1  -8   6  215.64   22.18
   1   8  -6  137.33   22.52
   1   8  -6  207.17   23.54
   1   8  -6  167.38   20.74
   1   8  -6  136.99   16.17
   1   8  -6  111.67   20.07
  -1  -8   5   36.24   13.29
  -1  -8   5   32.43   12.78
  -1  -8   5   40.47   12.36
  -1  -8   5   47.33   13.29
   1   8  -5   43.35   14.56
   1   8  -5   67.99   15.92
   1   8  -5   34.63   12.02
   1   8  -5   21.34    8.81
   1   8  -5   41.40   13.55
  -1  -8   4   89.58   17.61
  -1  -8   4   86.44   17.69
  -1  -8   4  106.93   17.61
  -1  -8   4   96.94   16.85
   1   8  -4   80.43   17.44
   1   8  -4  103.04   18.96
   1   8  -4  112.10   17.78
   1   8  -4   72.56   14.56
   1   8  -4   76.28   16.59
  -1  -8   3   56.13   14.99
  -1  -8   3   44.87   13.46
  -1  -8   3   43.52   11.51
  -1  -8   3   36.74   12.11
   1   8  -3   25.23   11.77
   1   8  -3   41.99   13.12
   1   8  -3   30.99   11.01
   1   8  -3   34.20   11.43
   1   8  -3   31.66   12.19
  -1  -8   2  167.64   20.91
  -1  -8   2  132.42   21.17
  -1  -8   2  143.08   15.83
  -1  -8   2  123.19   24.98
   1   8  -2  121.75   19.81
   1   8  -2  167.21   19.73
   1   8  -2  115.06   14.14
   1   8  -2  111.25   19.05
   1   8  -2   99.90   18.37
  -1  -8   1   21.67   11.94
  -1  -8   1   16.26    8.13
  -1  -8   1   31.58   10.67
   1   8  -1   20.83    7.79
   1   8  -1   18.29   10.58
   1   8  -1   41.40   13.21
   1   8  -1   23.54   11.43
   1   8  -1   22.94   11.01
  -1  -8   0   22.86   12.28
  -1  -8   0   18.88    8.30
  -1  -8   0   28.45   11.26
   1   8   0   28.79    9.74
   1   8   0   17.36   10.33
   1   8   0   29.04   12.11
   1   8   0   26.50   12.36
   1   8   0   12.28    9.57
  -1  -8  -1  136.99   22.35
  -1  -8  -1  149.26   20.83
  -1  -8  -1  141.22   20.91
   1   8   1   94.82   16.59
   1   8   1  111.25   18.29
   1   8   1  138.68   21.59
   1   8   1   99.82   19.73
   1   8   1  116.16   18.71
  -1  -8  -2   15.32   10.75
  -1  -8  -2    6.27    8.38
  -1  -8  -2    4.83    8.55
   1   8   2    2.71    7.20
   1   8   2    6.43    8.04
   1   8   2   12.95   10.33
   1   8   2    8.72    8.64
   1   8   2   11.85   13.29
  -1  -8  -3  126.32   24.13
  -1  -8  -3  152.57   23.71
   1   8   3  127.51   21.34
   1   8   3  184.15   25.82
   1   8   3  133.94   24.21
  -1  -8  -4   81.70   21.84
  -1  -8  -4   85.00   18.88
   1   8   4   55.37   15.83
   1   8   4  117.94   22.01
   1   8   4   81.79   20.32
  -1  -8  -5  104.22   24.72
  -1  -8  -5  105.92   22.94
   1   8   5  106.68   22.01
   1   8   5  122.17   23.03
   1   8   5   94.15   21.00
  -1  -8  -6   36.41   18.88
  -1  -8  -6   18.29   13.89
   1   8   6   18.88   13.29
   1   8   6   44.03   16.85
   1   8   6   15.83   13.46
  -1  -9  11    7.11   13.38
  -1  -9  11    2.88    9.65
  -1  -9  11    7.20   13.21
  -1  -9  11    3.81   11.18
   1   9 -11   -4.40   11.18
   1   9 -11    7.87   11.85
   1   9 -11    4.74   10.84
  -1  -9  10   14.48   13.21
  -1  -9  10    4.91   10.41
  -1  -9  10    8.81   11.09
  -1  -9  10   11.26   12.87
   1   9 -10   17.61   13.80
   1   9 -10   14.99   12.28
   1   9 -10    7.70   13.38
  -1  -9   9   48.68   17.27
  -1  -9   9   37.93   15.24
  -1  -9   9   41.49   17.10
  -1  -9   9   43.60   15.66
   1   9  -9   42.93   16.42
   1   9  -9   48.00   18.03
   1   9  -9   27.01   15.75
  -1  -9   8   -1.19    9.48
  -1  -9   8   -0.51    8.47
  -1  -9   8    1.19   10.58
  -1  -9   8    4.91   10.41
   1   9  -8    1.95   10.08
   1   9  -8   -0.68   10.75
   1   9  -8    4.83   11.09
  -1  -9   7   45.63   15.41
  -1  -9   7   35.90   13.21
  -1  -9   7   48.68   15.92
  -1  -9   7   38.27   14.14
   1   9  -7   30.90   14.39
   1   9  -7   45.63   15.92
   1   9  -7   16.42   11.94
  -1  -9   6    3.56   10.16
  -1  -9   6   17.86   12.28
  -1  -9   6   13.21   10.24
  -1  -9   6   15.07   10.41
   1   9  -6    2.88   10.16
   1   9  -6   13.63   11.77
   1   9  -6   13.72   10.75
  -1  -9   5   83.06   19.05
  -1  -9   5  122.17   22.86
  -1  -9   5   87.04   17.69
  -1  -9   5   77.72   16.51
   1   9  -5   77.55   18.63
   1   9  -5  125.98   21.93
   1   9  -5   87.37   17.53
   1   9  -5   78.91   16.51
   1   9  -5   68.32   19.05
  -1  -9   4  127.93   21.84
  -1  -9   4   96.86   19.64
  -1  -9   4  119.97   18.96
   1   9  -4   70.70   17.95
   1   9  -4  117.94   21.59
   1   9  -4   86.95   16.51
   1   9  -4   89.41   17.61
   1   9  -4   83.31   18.46
  -1  -9   3  110.06   20.49
  -1  -9   3  122.43   21.76
  -1  -9   3  130.30   19.39
   1   9  -3   68.24   17.10
   1   9  -3  126.32   22.10
   1   9  -3  108.88   17.27
   1   9  -3   92.71   18.63
   1   9  -3   77.89   18.20
  -1  -9   2   62.31   16.68
  -1  -9   2   85.60   19.30
   1   9  -2   40.13   14.65
   1   9  -2   68.92   17.27
   1   9  -2   44.45   14.73
   1   9  -2   52.92   15.75
  -1  -9   1   98.04   20.49
  -1  -9   1  106.51   20.57
   1   9  -1   61.55   16.26
   1   9  -1  120.90   21.00
   1   9  -1   83.14   18.80
   1   9  -1   65.11   16.76
  -1  -9   0  109.47   21.08
  -1  -9   0  131.06   22.27
   1   9   0  117.43   18.63
   1   9   0   96.52   19.05
   1   9   0  173.31   25.91
   1   9   0  101.85   21.42
   1   9   0  103.80   19.64
  -1  -9  -1   -2.46   10.58
  -1  -9  -1   -2.54    7.11
  -1  -9  -1   -5.67    7.96
   1   9   1   -2.29    6.43
   1   9   1    4.23    9.06
   1   9   1   -7.28    7.87
   1   9   1    1.27    7.54
   1   9   1   -3.13    7.87
  -1  -9  -2  150.11   26.75
  -1  -9  -2  121.07   21.17
   1   9   2   81.87   17.27
   1   9   2  115.31   22.27
   1   9   2   95.33   22.52
  -1  -9  -3   60.11   19.98
  -1  -9  -3   43.26   15.58
   1   9   3   69.68   17.69
   1   9   3   70.70   18.54
   1   9   3   41.82   17.78
  -1  -9  -4   73.07   20.15
  -1  -9  -4   60.37   17.19
   1   9   4   51.22   17.10
   1   9   4   87.20   20.83
   1   9   4   51.90   18.63
  -1  -9  -5  -12.62   13.72
  -1  -9  -5    7.62   12.62
   1   9   5    7.03   11.43
   1   9   5    0.25   11.18
   1   9   5   -2.62   12.19
  -1 -10   9   42.16   18.03
  -1 -10   9   17.02   12.19
  -1 -10   9   26.16   16.00
   1  10  -9   26.75   15.58
   1  10  -9   26.42   14.39
   1  10  -9   20.15   14.73
  -1 -10   8   91.44   21.93
  -1 -10   8   80.01   20.83
  -1 -10   8   71.88   20.15
   1  10  -8   56.39   18.03
   1  10  -8   64.77   19.90
   1  10  -8   50.71   18.03
  -1 -10   7  102.95   22.10
  -1 -10   7   77.21   19.90
  -1 -10   7  118.78   23.20
   1  10  -7   64.18   19.05
   1  10  -7  127.25   25.15
   1  10  -7   83.73   19.64
  -1 -10   6  170.35   25.99
  -1 -10   6  159.59   27.69
  -1 -10   6  170.77   25.99
   1  10  -6  137.50   25.40
   1  10  -6  213.61   30.90
   1  10  -6  118.62   22.18
  -1 -10   5   63.67   18.29
  -1 -10   5   40.98   15.07
  -1 -10   5   57.23   15.92
   1  10  -5   35.56   15.66
   1  10  -5   53.34   17.27
   1  10  -5   45.47   14.39
   1  10  -5   45.38   14.73
  -1 -10   4  144.18   25.48
  -1 -10   4  113.96   22.35
   1  10  -4  122.93   24.64
   1  10  -4  128.69   23.79
   1  10  -4  107.86   20.83
  -1 -10   3   75.52   19.64
  -1 -10   3   91.78   20.83
   1  10  -3   85.85   20.32
   1  10  -3   97.28   21.42
   1  10  -3   51.90   16.42
  -1 -10   2    5.08    9.14
  -1 -10   2   -2.96    9.57
   1  10  -2    3.47   10.58
   1  10  -2    6.86   11.35
   1  10  -2    3.73    7.70
  -1 -10   1   33.53   15.83
  -1 -10   1   22.86   13.29
   1  10  -1    8.97   11.35
   1  10  -1   19.13   13.04
   1  10  -1   24.81   12.70
  -1 -10   0    5.84   13.12
  -1 -10   0   11.26   10.67
   1  10   0   16.26   12.11
   1  10   0   14.90   12.78
   1  10   0    6.60   12.62
  -1 -10  -1  107.44   24.38
  -1 -10  -1  122.68   24.21
   1  10   1  105.83   23.28
   1  10   1  147.15   26.25
   1  10   1  116.24   25.40
  -1 -10  -2  117.09   25.06
  -1 -10  -2   90.93   23.79
   1  10   2   74.51   17.86
   1  10   2  141.73   25.99
   1  10   2   94.06   23.96
  -1 -10  -3   13.55   16.26
  -1 -10  -3    8.13   12.02
   1  10   3   22.86   13.55
   1  10   3   28.28   14.99
   1  10   3   24.81   16.26
  -1 -11   8   67.90   20.74
  -1 -11   8   27.85   15.41
  -1 -11   8   33.53   16.42
   1  11  -8   53.85   20.66
   1  11  -8   32.34   18.20
   1  11  -8   38.01   17.02
  -1 -11   7   11.18   13.80
  -1 -11   7   17.02   14.05
  -1 -11   7   23.11   14.22
   1  11  -7   17.78   15.16
   1  11  -7   16.42   14.82
   1  11  -7    9.99   12.95
  -1 -11   6   34.12   16.51
  -1 -11   6   33.95   16.68
   1  11  -6   40.72   17.44
   1  11  -6   22.94   13.04
  -1 -11   5   -2.20   11.60
  -1 -11   5   10.92   13.04
   1  11  -5    0.93   12.78
   1  11  -5   -7.03   10.41
   1  11  -5    9.23   12.19
  -1 -11   4  130.21   25.48
  -1 -11   4  181.69   29.97
   1  11  -4  119.55   24.81
   1  11  -4  160.52   27.18
   1  11  -4  100.16   22.44
  -1 -11   3   -1.44   12.28
  -1 -11   3    7.54   12.11
   1  11  -3   23.28   14.14
   1  11  -3    2.37   11.68
   1  11  -3    7.54   11.35
  -1 -11   2   91.10   22.01
  -1 -11   2   89.91   22.10
   1  11  -2   54.27   18.29
   1  11  -2  122.59   25.23
   1  11  -2   77.47   21.59
  -1 -11   1   32.68   16.85
  -1 -11   1   26.92   15.24
   1  11  -1   16.85   13.72
   1  11  -1   30.73   16.26
   1  11  -1   15.07   14.14
  -1 -11   0   86.53   23.03
  -1 -11   0  132.59   26.08
   1  11   0   99.57   23.20
   1  11   0  136.31   26.33
   1  11   0   98.30   24.98
  -2  11   2    5.00   10.33
  -2  11   2   10.08   14.31
  -2  11   2   -6.52   12.62
   2 -11  -2    0.68   13.04
   2 -11  -2    3.30   11.09
  -2  11   1  102.19   23.79
  -2  11   1  114.13   26.33
  -2  11   1   99.40   25.15
   2 -11  -1  100.24   23.54
   2 -11  -1  102.11   22.77
  -2  11   0   64.35   18.96
  -2  11   0   81.53   20.74
  -2  11   0   54.78   19.64
   2 -11   0   77.55   20.83
   2 -11   0   73.15   19.90
  -2  11  -1   76.79   19.90
  -2  11  -1   65.95   20.40
  -2  11  -1   65.28   20.49
   2 -11   1   78.31   19.39
   2 -11   1   61.47   20.15
  -2  11  -2   -2.62   10.50
  -2  11  -2   14.05   12.02
  -2  11  -2    7.79   12.02
   2 -11   2    7.79   11.35
   2 -11   2   -0.76   10.50
  -2  11  -3   27.35   15.24
  -2  11  -3   28.53   16.34
  -2  11  -3   28.53   14.65
   2 -11   3   36.83   14.82
   2 -11   3   37.93   16.85
  -2  11  -4   23.03   15.32
  -2  11  -4   47.50   18.88
  -2  11  -4   26.92   13.89
   2 -11   4   31.50   17.10
  -2  11  -5    1.95    8.47
  -2  11  -5   26.50   16.17
   2 -11   5   13.21   13.63
  -2  11  -6   21.17   15.07
  -2  11  -6   19.47   14.82
   2 -11   6    3.22   12.53
  -2  11  -7   39.37   18.46
  -2  11  -7   49.61   19.39
  -2  11  -7   45.72   16.76
   2 -11   7   36.58   15.58
   2 -11   7   63.16   19.56
  -2  10   4   15.41   11.94
  -2  10   4   33.53   16.85
  -2  10   4    9.48   14.56
  -2  10   4   26.58   15.16
   2 -10  -4    2.54   14.05
   2 -10  -4   18.63   13.12
  -2  10   3   29.38   13.55
  -2  10   3   29.21   16.26
  -2  10   3   15.92   12.45
  -2  10   3   29.46   15.49
   2 -10  -3   22.52   16.26
   2 -10  -3   22.18   11.77
  -2  10   2   42.67   14.56
  -2  10   2   57.57   17.61
  -2  10   2   39.88   17.44
  -2  10   2   58.84   17.78
   2 -10  -2   78.99   21.00
   2 -10  -2   41.23   14.48
  -2  10   1  135.72   22.77
  -2  10   1  114.38   22.69
  -2  10   1  175.26   28.70
  -2  10   1  109.22   24.21
   2 -10  -1  141.73   24.21
   2 -10  -1  103.63   19.47
   2 -10  -1  123.02   22.77
  -2  10   0   12.62    9.14
  -2  10   0   11.01   11.26
  -2  10   0    5.33   11.43
  -2  10   0    8.89   11.68
   2 -10   0   18.96   12.70
   2 -10   0    9.91    9.14
   2 -10   0   13.80   11.77
  -2  10  -1  124.97   22.94
  -2  10  -1  174.58   27.60
  -2  10  -1  127.25   23.96
   2 -10   1  157.82   24.13
   2 -10   1  148.76   26.08
  -2  10  -2   -1.02    6.86
  -2  10  -2   -1.35   10.33
  -2  10  -2    0.00    8.72
   2 -10   2    2.71   10.84
   2 -10   2   -1.95    7.62
  -2  10  -3  164.67   26.50
  -2  10  -3  191.34   28.11
  -2  10  -3  188.04   27.18
   2 -10   3  304.62   26.92
   2 -10   3  179.66   27.18
  -2  10  -4   -1.69    9.57
  -2  10  -4   15.24   12.53
  -2  10  -4    7.87   10.33
   2 -10   4    6.27    9.65
   2 -10   4    4.66    9.14
  -2  10  -5   70.02   19.47
  -2  10  -5  111.84   23.11
  -2  10  -5   68.32   16.17
  -2  10  -5   64.01   16.09
   2 -10   5   83.06   18.29
   2 -10   5   61.47   18.29
   2 -10   5   90.51   18.63
  -2  10  -6   -2.71    9.82
  -2  10  -6   -2.79    7.79
  -2  10  -6    1.44    9.57
   2 -10   6    2.96   10.84
   2 -10   6    5.00    8.13
   2 -10   6   -4.91    8.55
  -2  10  -7   17.02   13.80
  -2  10  -7   19.22   14.22
  -2  10  -7   11.01   10.92
   2 -10   7    8.72   11.77
   2 -10   7   24.47   12.87
  -2  10  -8   -1.44   11.94
  -2  10  -8   10.24   14.31
  -2  10  -8   15.07   12.78
   2 -10   8   -1.86   10.24
   2 -10   8    4.74   11.60
  -2  10  -9   14.73   14.14
  -2  10  -9    9.57   14.05
  -2  10  -9    2.46   12.28
   2 -10   9    2.54   10.50
   2 -10   9   15.07   14.65
  -2   9   6   23.20   13.80
  -2   9   6   12.78   13.80
  -2   9   6   23.20   15.92
  -2   9   6   18.88   14.22
   2  -9  -6    1.86   14.82
   2  -9  -6    4.83   12.02
  -2   9   5   81.11   20.49
  -2   9   5  164.59   29.04
  -2   9   5  113.96   25.06
  -2   9   5  104.98   21.50
   2  -9  -5  111.93   25.40
   2  -9  -5   90.59   20.49
  -2   9   4    6.18    8.30
  -2   9   4    7.37   11.09
  -2   9   4    3.81   11.35
  -2   9   4   13.12   11.94
   2  -9  -4   12.45   13.55
   2  -9  -4   -0.25    9.23
  -2   9   3   82.29   18.54
  -2   9   3  129.45   24.64
  -2   9   3   88.05   22.01
  -2   9   3  116.75   21.59
   2  -9  -3  118.45   23.62
   2  -9  -3   83.48   18.71
  -2   9   2  103.38   18.80
  -2   9   2  127.59   21.84
  -2   9   2  145.62   24.98
  -2   9   2  116.50   23.28
  -2   9   2  156.80   23.71
  -2   9   2  149.26   34.63
   2  -9  -2  135.72   23.28
   2  -9  -2  117.94   20.49
   2  -9  -2   95.67   18.37
  -2   9   1   22.86   10.75
  -2   9   1   25.57   12.02
  -2   9   1   25.31   13.38
  -2   9   1   17.86   13.04
  -2   9   1   37.68   13.80
  -2   9   1   23.28   11.60
   2  -9  -1   29.29   13.12
   2  -9  -1   22.52   10.92
   2  -9  -1    9.74   10.33
  -2   9   0  201.67   20.40
  -2   9   0  188.46   22.44
  -2   9   0  247.39   26.58
  -2   9   0  206.75   24.89
  -2   9   0  239.09   23.62
  -2   9   0  197.95   22.69
   2  -9   0  212.25   23.03
   2  -9   0  219.20   21.42
   2  -9   0  189.90   22.69
  -2   9  -1   -0.68    5.93
  -2   9  -1    2.20    9.06
  -2   9  -1   -1.02    8.89
  -2   9  -1    4.06    7.20
  -2   9  -1    2.46    9.14
  -2   9  -1    5.59    9.14
   2  -9   1    6.18    9.40
   2  -9   1    5.50    7.03
   2  -9   1    5.59    8.89
  -2   9  -2  162.30   24.47
  -2   9  -2  216.57   24.89
  -2   9  -2  191.34   22.52
  -2   9  -2  172.12   25.06
   2  -9   2  252.72   23.28
   2  -9   2  210.14   22.61
  -2   9  -3    7.70    9.99
  -2   9  -3   18.37   11.94
  -2   9  -3    2.37    7.28
  -2   9  -3    4.57    8.38
  -2   9  -3    6.43   10.08
   2  -9   3    7.37    9.99
   2  -9   3    8.64    8.81
   2  -9   3   18.71   15.32
  -2   9  -4   67.99   17.61
  -2   9  -4  102.78   20.23
  -2   9  -4   61.21   14.22
  -2   9  -4   61.72   15.07
  -2   9  -4   56.30   15.75
   2  -9   4   87.12   16.59
   2  -9   4   75.69   18.37
   2  -9   4   97.28   17.44
  -2   9  -5   16.68   11.77
  -2   9  -5   15.07   11.68
  -2   9  -5   22.18   11.26
  -2   9  -5   19.73    9.48
  -2   9  -5   17.95   11.94
   2  -9   5   30.39   11.35
   2  -9   5    6.01    9.91
   2  -9   5   15.07   10.24
  -2   9  -6   39.12   15.41
  -2   9  -6   35.73   15.07
  -2   9  -6   16.68   11.26
   2  -9   6   24.89   11.35
   2  -9   6   24.13   13.21
   2  -9   6   27.26   12.62
  -2   9  -7   25.91   13.80
  -2   9  -7   49.70   16.93
  -2   9  -7   36.15   14.56
   2  -9   7   55.71   15.07
   2  -9   7   39.54   14.90
   2  -9   7   38.18   15.16
  -2   9  -8    7.45   11.09
  -2   9  -8   -3.30    7.20
  -2   9  -8   -0.25   10.16
   2  -9   8   -0.85    8.97
   2  -9   8   -3.39    9.82
  -2   9  -9   40.55   17.10
  -2   9  -9   42.42   17.53
  -2   9  -9   43.86   17.61
   2  -9   9   41.74   15.83
   2  -9   9   56.56   17.27
  -2   9 -10   27.85   15.41
  -2   9 -10   49.02   19.39
  -2   9 -10   21.67   13.80
   2  -9  10   28.79   13.97
   2  -9  10   37.08   17.10
  -2   8   7    3.81   11.18
  -2   8   7   -1.69   11.60
  -2   8   7    7.11   13.04
  -2   8   7    1.95   11.77
   2  -8  -7   23.20   17.78
   2  -8  -7   18.63   13.46
  -2   8   6  158.24   26.84
  -2   8   6  173.99   29.12
  -2   8   6  118.53   24.13
  -2   8   6  144.18   23.54
   2  -8  -6  140.63   26.50
   2  -8  -6  152.48   25.91
  -2   8   5   16.00    9.99
  -2   8   5   11.35   12.28
  -2   8   5   13.21   10.24
  -2   8   5   27.26   12.78
   2  -8  -5   25.99   14.31
   2  -8  -5   11.43   11.68
  -2   8   4  221.82   24.64
  -2   8   4  268.30   28.28
  -2   8   4  212.00   25.99
  -2   8   4  251.79   24.21
   2  -8  -4  291.16   29.04
   2  -8  -4  243.41   25.74
  -2   8   3  158.66   23.88
  -2   8   3  207.17   24.89
  -2   8   3  165.94   25.74
  -2   8   3  231.56   23.37
   2  -8  -3  227.16   24.98
   2  -8  -3  208.28   23.03
   2  -8  -3  148.16   17.95
  -2   8   2   19.98    9.99
  -2   8   2   17.53    9.74
  -2   8   2   32.09   13.63
  -2   8   2   35.90   14.05
  -2   8   2   22.35   10.58
  -2   8   2   15.75    9.31
   2  -8  -2   16.26   11.09
   2  -8  -2   21.17   10.24
   2  -8  -2   28.79   11.01
  -2   8   1   52.92   13.63
  -2   8   1   39.54   12.02
  -2   8   1   57.23   15.83
  -2   8   1   50.80   15.41
  -2   8   1   44.53   12.87
  -2   8   1   42.33   12.62
   2  -8  -1   61.13   15.07
   2  -8  -1   54.61   13.55
   2  -8  -1   75.52   15.83
  -2   8   0   40.64   11.60
  -2   8   0   34.88   12.28
  -2   8   0   59.18   14.99
  -2   8   0   42.16   13.63
  -2   8   0   76.28   16.00
  -2   8   0   48.68   13.29
   2  -8   0   63.92   14.22
   2  -8   0   51.39   12.78
   2  -8   0   44.53   13.55
  -2   8  -1   58.33   12.53
  -2   8  -1   45.89   13.63
  -2   8  -1   60.87   15.83
  -2   8  -1   47.24   14.22
  -2   8  -1   67.90   14.65
  -2   8  -1   34.12   11.85
   2  -8   1   50.38   13.04
   2  -8   1   38.27   10.50
   2  -8   1   65.78   15.16
  -2   8  -2  143.34   14.56
  -2   8  -2  131.15   20.40
  -2   8  -2  197.10   17.02
  -2   8  -2  193.71   21.67
  -2   8  -2  158.58   16.17
  -2   8  -2  136.06   20.32
  -2   8  -2  199.55   20.49
  -2   8  -2  130.13   20.57
   2  -8   2  182.37   18.46
   2  -8   2  137.92   14.56
   2  -8   2  151.89   22.10
   2  -8   2  160.95   15.83
  -2   8  -3   58.84   11.09
  -2   8  -3   57.06   15.07
  -2   8  -3   89.58   13.55
  -2   8  -3   95.50   18.63
  -2   8  -3   72.22   13.80
  -2   8  -3   63.50   14.14
  -2   8  -3  109.30   18.03
  -2   8  -3   68.92   15.83
   2  -8   3  103.88   16.93
   2  -8   3  108.79   12.95
   2  -8   3   75.69   13.97
   2  -8   3   75.10   16.17
   2  -8   3   88.31   14.99
  -2   8  -4  125.05   20.49
  -2   8  -4  218.94   23.45
  -2   8  -4  121.83   18.12
  -2   8  -4  161.37   18.63
  -2   8  -4  151.47   22.27
   2  -8   4  222.92   20.07
   2  -8   4  175.43   21.42
   2  -8   4  205.06   19.90
  -2   8  -5   68.66   16.51
  -2   8  -5   95.50   18.46
  -2   8  -5   78.40   16.34
  -2   8  -5   64.94   13.55
  -2   8  -5   51.48   14.90
   2  -8   5   83.82   15.41
   2  -8   5   75.35   17.27
   2  -8   5   76.79   15.83
  -2   8  -6   12.19   10.58
  -2   8  -6   10.67   10.58
  -2   8  -6    4.49    8.89
  -2   8  -6    9.40   10.24
   2  -8   6   16.17    9.40
   2  -8   6   16.34    9.48
   2  -8   6    8.89    9.40
  -2   8  -7   45.63   14.65
  -2   8  -7   46.65   15.66
  -2   8  -7   32.09   11.85
  -2   8  -7   27.85   12.78
   2  -8   7   43.43   12.87
   2  -8   7   49.78   14.99
   2  -8   7   43.69   15.07
  -2   8  -8    8.13   10.24
  -2   8  -8   11.51   11.85
  -2   8  -8    5.42   10.24
  -2   8  -8    6.60    9.99
   2  -8   8   20.57   11.35
   2  -8   8    9.23   10.08
   2  -8   8    0.93    9.57
  -2   8  -9   37.34   15.07
  -2   8  -9   46.14   17.10
  -2   8  -9   25.82   12.62
   2  -8   9   50.38   14.48
   2  -8   9   45.55   15.07
   2  -8   9   52.41   17.19
  -2   8 -10   32.68   14.14
  -2   8 -10   52.41   17.53
  -2   8 -10   58.84   19.30
   2  -8  10   55.71   16.17
   2  -8  10   68.83   20.49
  -2   8 -11   11.60   13.97
  -2   8 -11    6.94   14.05
   2  -8  11    3.05   12.53
  -2   7   8   14.73   12.87
  -2   7   8   14.05   13.38
  -2   7   8    5.08   12.36
  -2   7   8   16.59   12.78
   2  -7  -8   11.68   15.75
   2  -7  -8   12.19   10.92
  -2   7   7   30.23   14.39
  -2   7   7   44.03   17.19
  -2   7   7   28.28   13.72
  -2   7   7   35.64   14.22
   2  -7  -7   40.47   17.78
   2  -7  -7   27.01   14.39
  -2   7   6   30.56   13.38
  -2   7   6   64.51   18.80
  -2   7   6   32.43   14.31
  -2   7   6   44.36   14.31
   2  -7  -6   46.06   17.53
   2  -7  -6   49.19   16.00
  -2   7   5  139.02   23.03
  -2   7   5  174.32   27.01
  -2   7   5  145.96   23.96
  -2   7   5  159.17   19.30
   2  -7  -5  166.71   25.65
   2  -7  -5  124.37   21.67
  -2   7   4  149.43   22.94
  -2   7   4  188.21   22.77
  -2   7   4  159.17   24.30
   2  -7  -4  185.08   22.69
   2  -7  -4  164.33   23.79
  -2   7   3   42.16   12.78
  -2   7   3   34.29    9.91
  -2   7   3   51.05   15.24
  -2   7   3   32.34   13.29
  -2   7   3   66.72   14.22
  -2   7   3   54.61   12.11
   2  -7  -3   59.69   15.16
   2  -7  -3   49.53   13.63
   2  -7  -3   57.23   13.04
  -2   7   2  113.79   18.46
  -2   7   2  108.54   16.68
  -2   7   2  163.49   18.71
  -2   7   2  125.05   20.32
  -2   7   2  137.67   18.71
  -2   7   2  114.38   17.19
   2  -7  -2  135.29   19.90
   2  -7  -2   85.93   16.00
   2  -7  -2  114.97   17.36
  -2   7   1   56.22   12.70
  -2   7   1   39.54   11.09
  -2   7   1   96.69   17.86
  -2   7   1   83.48   16.51
  -2   7   1   98.13   15.92
  -2   7   1   58.16   13.04
   2  -7  -1  103.88   17.19
   2  -7  -1   67.48   13.55
   2  -7  -1   95.84   16.59
  -2   7   0    6.52    6.35
  -2   7   0    9.65    7.62
  -2   7   0   10.92    7.45
  -2   7   0   10.08    8.81
  -2   7   0   12.11    7.70
  -2   7   0    7.45    7.62
  -2   7   0    7.54    7.45
   2  -7   0   12.62    8.30
   2  -7   0    5.76    6.69
   2  -7   0   11.18    8.38
  -2   7  -1  106.17   12.95
  -2   7  -1  130.47   18.88
  -2   7  -1  125.64   14.82
  -2   7  -1  141.64   17.69
  -2   7  -1  117.35   12.28
  -2   7  -1   96.94   16.76
  -2   7  -1  139.95   15.75
  -2   7  -1  125.13   18.63
   2  -7   1  149.43   15.75
   2  -7   1  124.12   13.72
   2  -7   1  115.82   18.20
   2  -7   1  137.75   12.70
  -2   7  -2   74.25   12.28
  -2   7  -2   58.16   13.46
  -2   7  -2  103.80   12.28
  -2   7  -2   93.47   16.59
  -2   7  -2   89.32   13.46
  -2   7  -2   68.83   13.80
  -2   7  -2  105.75   16.09
  -2   7  -2   68.83   14.48
   2  -7   2   93.05   14.31
   2  -7   2   63.67   11.35
   2  -7   2   74.25   15.16
   2  -7   2   90.93   13.12
  -2   7  -3  202.69   14.82
  -2   7  -3  175.00   17.95
  -2   7  -3  256.62   17.10
  -2   7  -3  288.79   23.45
  -2   7  -3  206.33   17.69
  -2   7  -3  193.71   18.03
  -2   7  -3  246.54   19.64
  -2   7  -3  173.56   18.03
   2  -7   3  269.83   19.39
   2  -7   3  275.41   17.36
   2  -7   3  201.50   14.73
   2  -7   3  196.93   18.96
   2  -7   3  213.78   18.46
  -2   7  -4   78.23   15.49
  -2   7  -4  114.72   11.77
  -2   7  -4  130.21   19.56
  -2   7  -4   98.21   16.17
  -2   7  -4   91.69   14.48
  -2   7  -4  124.54   17.19
  -2   7  -4   91.95   16.59
   2  -7   4  109.39   15.58
   2  -7   4  113.96   12.36
   2  -7   4   88.22   16.93
   2  -7   4  112.43   17.02
   2  -7   4   94.99   15.49
  -2   7  -5   57.15   13.63
  -2   7  -5   83.65   16.76
  -2   7  -5   50.71   13.04
  -2   7  -5   57.49   11.60
  -2   7  -5   41.74   12.62
   2  -7   5   70.02   13.38
   2  -7   5   65.53   14.82
   2  -7   5   67.65   14.05
   2  -7   5   81.53   15.32
  -2   7  -6  171.95   20.32
  -2   7  -6  232.74   22.35
  -2   7  -6  191.51   21.25
  -2   7  -6  159.42   19.73
   2  -7   6  218.69   19.22
   2  -7   6  195.49   21.08
   2  -7   6  182.54   19.30
   2  -7   6  205.40   20.83
  -2   7  -7   75.27   16.34
  -2   7  -7  123.02   20.91
  -2   7  -7   88.98   18.54
  -2   7  -7   91.01   17.69
   2  -7   7   93.81   15.66
   2  -7   7   80.52   17.19
   2  -7   7   98.13   19.13
   2  -7   7   82.38   16.17
  -2   7  -8  197.86   22.18
  -2   7  -8  291.92   28.02
  -2   7  -8  215.90   24.89
  -2   7  -8  193.97   21.59
   2  -7   8  275.50   23.37
   2  -7   8  259.41   24.47
   2  -7   8  244.60   25.82
   2  -7   8  247.05   23.88
  -2   7  -9    7.70    9.31
  -2   7  -9   11.01    9.74
  -2   7  -9    8.21    9.23
  -2   7  -9    7.87    9.31
   2  -7   9   13.12    9.57
   2  -7   9   -4.15    6.27
   2  -7   9    0.25    9.31
   2  -7   9    3.81   10.41
  -2   7 -10   14.39   11.01
  -2   7 -10   17.36   13.29
  -2   7 -10   11.94   12.87
   2  -7  10   16.68   11.01
   2  -7  10   12.11    9.65
   2  -7  10   14.31   11.68
   2  -7  10   32.09   14.31
  -2   7 -11   88.14   22.44
  -2   7 -11   72.22   21.42
   2  -7  11   63.08   17.78
  -2   7 -12    9.31   11.51
  -2   7 -12    0.93   13.12
   2  -7  12   13.12   13.46
  -2   6   9   63.08   19.47
  -2   6   9   84.58   22.69
  -2   6   9   59.01   16.51
   2  -6  -9   53.34   21.17
   2  -6  -9   61.81   18.88
  -2   6   8   21.08   13.04
  -2   6   8   31.24   13.63
  -2   6   8   26.25   13.97
  -2   6   8   13.89   10.92
   2  -6  -8   27.01   16.68
   2  -6  -8   16.85   13.63
  -2   6   7  217.50   25.57
  -2   6   7  264.24   28.28
  -2   6   7  220.13   24.81
  -2   6   7  259.16   23.71
   2  -6  -7  238.84   28.45
   2  -6  -7  229.02   26.50
  -2   6   6    8.72    9.82
  -2   6   6    9.14   10.08
  -2   6   6   -5.59    7.62
  -2   6   6    1.95    8.04
   2  -6  -6    2.71   10.92
   2  -6  -6    3.98    8.64
  -2   6   5  119.12   20.49
  -2   6   5  157.82   24.30
  -2   6   5  128.44   21.17
  -2   6   5  173.73   18.37
   2  -6  -5  157.48   23.79
   2  -6  -5  105.49   19.47
  -2   6   4  159.93   19.22
  -2   6   4  162.56   14.73
  -2   6   4  177.63   20.49
  -2   6   4  157.98   19.56
  -2   6   4  186.43   17.95
  -2   6   4  158.75   14.73
   2  -6  -4  156.29   22.01
   2  -6  -4  151.97   18.96
   2  -6  -4  162.64   14.99
  -2   6   3  154.01   17.78
  -2   6   3  181.18   16.00
  -2   6   3  231.30   21.84
  -2   6   3  142.41   16.93
  -2   6   3  181.94   16.59
  -2   6   3  158.83   15.66
   2  -6  -3  176.61   19.05
   2  -6  -3  144.86   17.44
   2  -6  -3  176.53   16.09
  -2   6   2  398.01   24.30
  -2   6   2  364.82   21.59
  -2   6   2  570.30   30.73
  -2   6   2  496.39   29.12
  -2   6   2  513.07   25.48
  -2   6   2  386.75   22.27
   2  -6  -2  525.43   27.60
   2  -6  -2  372.53   24.30
   2  -6  -2  418.75   23.28
  -2   6   1   78.91   13.29
  -2   6   1   58.08   11.68
  -2   6   1   89.32   13.97
  -2   6   1  108.12   16.85
  -2   6   1   89.74   15.66
  -2   6   1   97.62   14.05
  -2   6   1   67.14   12.28
   2  -6  -1   80.09   13.38
   2  -6  -1   69.09   12.36
   2  -6  -1   79.25   13.80
  -2   6   0   89.24   10.92
  -2   6   0  114.30   13.80
  -2   6   0  112.10   13.04
  -2   6   0  141.90   16.00
  -2   6   0  102.61    9.57
  -2   6   0   87.63   14.48
  -2   6   0  117.94   13.46
  -2   6   0  113.62   13.89
   2  -6   0  125.98   13.38
   2  -6   0   87.04   13.29
   2  -6   0  109.89   16.00
   2  -6   0  114.55    9.48
  -2   6  -1    2.20    5.08
  -2   6  -1    2.12    5.59
  -2   6  -1   -0.76    4.40
  -2   6  -1    2.96    6.18
  -2   6  -1    2.20    3.64
  -2   6  -1    0.17    5.33
  -2   6  -1    6.43    6.01
  -2   6  -1    3.13    5.84
   2  -6   1    6.27    5.84
   2  -6   1    4.91    4.74
   2  -6   1    4.74    5.16
   2  -6   1    2.79    4.23
   2  -6   1    1.35    5.25
  -2   6  -2  352.12   18.46
  -2   6  -2  283.88   20.74
  -2   6  -2  436.02   20.49
  -2   6  -2  445.93   25.48
  -2   6  -2  328.92   18.63
  -2   6  -2  374.05   22.10
  -2   6  -2  414.94   22.18
  -2   6  -2  275.50   20.66
   2  -6   2  480.13   22.52
   2  -6   2  468.45   21.34
   2  -6   2  350.17   22.94
   2  -6   2  383.36   19.90
   2  -6   2  435.85   21.93
  -2   6  -3  313.43   16.76
  -2   6  -3  293.79   20.74
  -2   6  -3  441.95   19.98
  -2   6  -3  433.31   25.65
  -2   6  -3  338.91   20.66
  -2   6  -3  302.68   19.39
  -2   6  -3  412.23   22.35
  -2   6  -3  264.07   19.81
   2  -6   3  412.49   21.17
   2  -6   3  380.40   18.46
   2  -6   3  334.60   22.94
   2  -6   3  349.67   20.91
   2  -6   3  350.00   20.83
  -2   6  -4  204.55   17.95
  -2   6  -4  312.33   16.59
  -2   6  -4  306.91   21.76
  -2   6  -4  224.11   18.63
  -2   6  -4  215.73   16.42
  -2   6  -4  307.25   19.98
  -2   6  -4  202.43   17.95
   2  -6   4  295.90   18.80
   2  -6   4  290.74   16.09
   2  -6   4  216.66   19.39
   2  -6   4  277.87   20.32
   2  -6   4  257.97   19.05
  -2   6  -5  111.50   17.02
  -2   6  -5  167.30   12.87
  -2   6  -5  188.89   19.30
  -2   6  -5  136.23   15.58
  -2   6  -5  154.34   13.55
  -2   6  -5  169.92   16.00
  -2   6  -5  118.11   17.53
   2  -6   5  165.69   15.92
   2  -6   5  152.74   12.53
   2  -6   5  129.28   18.37
   2  -6   5  128.35   18.20
   2  -6   5  155.61   16.42
  -2   6  -6  313.09   22.77
  -2   6  -6  472.77   29.46
  -2   6  -6  359.99   26.33
  -2   6  -6  316.56   23.62
   2  -6   6  401.57   23.37
   2  -6   6  362.37   25.06
   2  -6   6  386.41   26.84
   2  -6   6  377.10   24.47
  -2   6  -7  260.94   22.27
  -2   6  -7  340.10   26.92
  -2   6  -7  292.94   24.38
  -2   6  -7  314.11   24.72
   2  -6   7  291.08   21.59
   2  -6   7  223.60   20.83
   2  -6   7  271.35   24.55
   2  -6   7  289.13   22.86
  -2   6  -8    0.34    7.11
  -2   6  -8    3.89    8.81
  -2   6  -8    7.96    9.91
  -2   6  -8    2.62    7.20
   2  -6   8    3.98    8.38
   2  -6   8    6.01    7.28
   2  -6   8   -4.40    4.83
   2  -6   8   -0.68    8.04
  -2   6  -9   47.33   13.29
  -2   6  -9   66.12   16.93
  -2   6  -9   52.07   16.34
  -2   6  -9   50.80   12.87
   2  -6   9   47.75   14.05
   2  -6   9   53.17   13.55
   2  -6   9   38.52   14.05
   2  -6   9   47.58   14.39
  -2   6 -10   57.40   17.78
  -2   6 -10   53.00   17.44
   2  -6  10   37.25   13.21
   2  -6  10   40.64   15.24
   2  -6  10   43.69   15.07
  -2   6 -11   21.00   12.45
  -2   6 -11   12.19   12.78
  -2   6 -11    5.25   12.11
   2  -6  11    5.42   11.18
   2  -6  11   17.86   11.60
   2  -6  11   15.16   12.62
  -2   6 -12   41.57   23.79
  -2   6 -12   60.96   20.49
  -2   6 -12   37.68   18.71
   2  -6  12   69.17   20.66
   2  -6  12   45.97   16.00
   2  -6  12   54.69   21.25
  -2   5  10   14.22   14.14
  -2   5  10   28.28   16.09
  -2   5  10   22.61   12.28
   2  -5 -10   20.23   17.36
   2  -5 -10   21.34   13.29
  -2   5   9   11.85   12.45
  -2   5   9   21.25   13.46
  -2   5   9   31.50   12.11
   2  -5  -9   18.20   15.92
   2  -5  -9   24.72   14.65
  -2   5   8  256.45   27.43
  -2   5   8  315.88   30.14
  -2   5   8  260.26   24.98
  -2   5   8  302.42   24.47
   2  -5  -8  319.53   31.75
   2  -5  -8  271.77   28.53
  -2   5   7   24.21   11.85
  -2   5   7   31.24   13.29
  -2   5   7   26.58   11.68
  -2   5   7   21.25    9.65
   2  -5  -7   20.15   13.46
   2  -5  -7   28.62   12.87
  -2   5   6   37.68   13.38
  -2   5   6   60.45   15.83
  -2   5   6   48.51   13.63
  -2   5   6   52.66   12.02
   2  -5  -6   46.48   13.80
   2  -5  -6   34.37   12.45
  -2   5   5  194.39   20.57
  -2   5   5  245.19   23.03
  -2   5   5  181.86   19.64
  -2   5   5  201.76   16.68
   2  -5  -5  226.31   22.35
   2  -5  -5  192.10   20.49
  -2   5   4  168.57   18.20
  -2   5   4  161.12   13.12
  -2   5   4  180.59   19.13
  -2   5   4  149.52   17.44
  -2   5   4  212.51   16.59
  -2   5   4  171.45   13.55
   2  -5  -4  214.37   20.32
   2  -5  -4  143.68   16.09
   2  -5  -4  168.40   13.55
  -2   5   3  946.89   36.66
  -2   5   3  946.21   29.97
  -2   5   3 1116.64   40.22
  -2   5   3  897.19   35.90
  -2   5   3 1057.04   32.43
  -2   5   3  934.45   29.89
   2  -5  -3 1159.74   38.78
   2  -5  -3  854.35   34.88
   2  -5  -3  935.80   29.97
  -2   5   2   33.10    9.23
  -2   5   2   25.23    7.45
  -2   5   2   40.72    9.74
  -2   5   2   30.56    9.40
  -2   5   2   23.62    8.21
  -2   5   2   41.57    8.72
  -2   5   2   27.43    7.62
   2  -5  -2   43.01   10.24
   2  -5  -2   30.48    8.64
   2  -5  -2   24.55    7.79
  -2   5   1  216.74   15.75
  -2   5   1  177.12   14.31
  -2   5   1  252.56   17.10
  -2   5   1  307.50   20.23
  -2   5   1  262.04   10.50
  -2   5   1  184.15   16.17
  -2   5   1  277.79   16.34
  -2   5   1  228.60   16.17
   2  -5  -1  276.35   17.27
   2  -5  -1  229.19   16.68
   2  -5  -1  260.43   17.19
   2  -5  -1  237.91    9.99
  -2   5   0    5.08    4.66
  -2   5   0   -2.03    4.15
  -2   5   0    2.96    4.74
  -2   5   0    1.35    5.42
  -2   5   0    1.10    3.05
  -2   5   0   -0.08    4.57
  -2   5   0    0.93    4.40
  -2   5   0    4.57    5.33
   2  -5   0    3.05    4.91
   2  -5   0   -0.85    3.73
   2  -5   0    2.03    5.08
   2  -5   0    2.12    3.39
   2  -5   0    2.54    4.23
  -2   5  -1   77.72    9.31
  -2   5  -1   82.63   12.45
  -2   5  -1  114.72   11.01
  -2   5  -1  106.59   12.78
  -2   5  -1  101.68    9.99
  -2   5  -1   92.79   12.95
  -2   5  -1  110.06   11.60
  -2   5  -1   77.55   12.11
   2  -5   1  112.60   11.09
   2  -5   1   94.40   13.38
   2  -5   1   82.80    8.81
   2  -5   1   97.03   10.08
  -2   5  -2  286.59   15.49
  -2   5  -2  275.16   18.54
  -2   5  -2  344.92   17.10
  -2   5  -2  347.55   20.07
  -2   5  -2  260.77   15.83
  -2   5  -2  249.76   16.34
  -2   5  -2  354.83   18.71
  -2   5  -2  275.08   18.63
   2  -5   2  325.96   16.26
   2  -5   2  366.43   17.44
   2  -5   2  281.26   18.96
   2  -5   2  273.38   16.09
   2  -5   2  298.78   16.93
  -2   5  -3   74.42    8.30
  -2   5  -3   72.73   12.53
  -2   5  -3  114.81   10.08
  -2   5  -3  107.61   13.12
  -2   5  -3   86.44   12.70
  -2   5  -3   80.35    9.91
  -2   5  -3  103.97   11.35
  -2   5  -3   74.84   12.53
   2  -5   3   98.89   10.41
   2  -5   3   95.59    9.57
   2  -5   3   67.65   12.28
   2  -5   3   91.69   12.78
   2  -5   3  105.92   11.68
  -2   5  -4  488.94   25.06
  -2   5  -4  705.60   22.86
  -2   5  -4  665.72   29.29
  -2   5  -4  539.06   26.08
  -2   5  -4  512.39   20.91
  -2   5  -4  718.21   27.18
  -2   5  -4  506.46   25.48
   2  -5   4  681.38   24.55
   2  -5   4  665.30   22.35
   2  -5   4  509.00   25.82
   2  -5   4  538.47   25.57
   2  -5   4  564.88   24.72
  -2   5  -5   36.74    9.99
  -2   5  -5   61.47    9.40
  -2   5  -5   53.08   11.94
  -2   5  -5   41.91   11.43
  -2   5  -5   41.23    7.87
  -2   5  -5   60.54   11.26
  -2   5  -5   33.27    9.48
   2  -5   5   50.71    9.74
   2  -5   5   48.26    8.64
   2  -5   5   38.69    9.74
   2  -5   5   39.71   10.84
   2  -5   5   44.79   10.58
  -2   5  -6  420.70   24.55
  -2   5  -6  565.14   22.10
  -2   5  -6  526.95   28.36
  -2   5  -6  462.35   28.02
  -2   5  -6  470.23   26.33
   2  -5   6  464.56   23.62
   2  -5   6  411.89   18.80
   2  -5   6  403.60   24.13
   2  -5   6  425.78   26.92
   2  -5   6  432.98   24.47
  -2   5  -7   44.36   11.43
  -2   5  -7   50.80    9.91
  -2   5  -7   51.81   13.63
  -2   5  -7   40.81   12.95
  -2   5  -7   35.90   10.41
   2  -5   7   50.12   12.11
   2  -5   7   47.58   10.33
   2  -5   7   33.61   10.24
   2  -5   7   46.99   13.21
   2  -5   7   25.06   10.16
  -2   5  -8  209.21   18.80
  -2   5  -8  305.47   25.82
  -2   5  -8  231.64   22.52
  -2   5  -8  194.64   18.37
   2  -5   8  273.30   21.84
   2  -5   8  246.29   20.66
   2  -5   8  260.09   24.38
   2  -5   8  240.96   21.67
  -2   5  -9   39.37   10.84
  -2   5  -9   38.61   14.39
  -2   5  -9   23.45   11.18
   2  -5   9   44.20   14.05
   2  -5   9   30.23   10.16
   2  -5   9   38.10   13.63
   2  -5   9   28.79   11.77
  -2   5 -10   27.35   11.85
  -2   5 -10   27.94   13.55
  -2   5 -10   16.85   11.18
   2  -5  10   20.07   11.35
   2  -5  10   14.31   11.51
   2  -5  10   18.88   11.85
  -2   5 -11    8.38   10.92
  -2   5 -11   16.34   13.46
  -2   5 -11   18.29   11.35
   2  -5  11   17.53   12.02
   2  -5  11   14.05   11.68
   2  -5  11   22.94   13.29
  -2   5 -12    7.28   11.94
  -2   5 -12   -3.81   11.09
  -2   5 -12    6.43   12.53
   2  -5  12   -8.81    9.91
   2  -5  12    2.12    9.91
   2  -5  12   10.41   12.62
  -2   4  11   13.97   11.85
  -2   4  11   32.77   17.36
  -2   4  11   33.61   13.72
   2  -4 -11   39.96   17.78
   2  -4 -11   23.37   15.24
  -2   4  10   14.31   12.87
  -2   4  10    8.04   11.68
  -2   4  10   10.24    9.91
   2  -4 -10   15.32   16.17
   2  -4 -10   -8.13    9.23
  -2   4   9   78.48   19.13
  -2   4   9  127.93   23.79
  -2   4   9  116.16   18.37
   2  -4  -9  125.47   25.06
   2  -4  -9  108.71   22.86
  -2   4   8   42.25   14.82
  -2   4   8   38.61   14.73
  -2   4   8   41.49   12.95
  -2   4   8   43.26   11.68
   2  -4  -8   40.98   14.22
   2  -4  -8   28.70   13.04
  -2   4   7   44.36   14.56
  -2   4   7   47.50   14.56
  -2   4   7   40.30   12.02
  -2   4   7   55.46   11.60
   2  -4  -7   51.65   14.56
   2  -4  -7   48.68   14.05
  -2   4   6  307.93   24.72
  -2   4   6  393.61   26.84
  -2   4   6  289.05   22.01
  -2   4   6  337.64   19.90
   2  -4  -6  371.93   27.35
   2  -4  -6  306.06   24.64
  -2   4   5    0.25    4.91
  -2   4   5    5.16    4.15
  -2   4   5    5.33    6.18
  -2   4   5    3.13    6.52
  -2   4   5   12.19    6.01
  -2   4   5    7.37    4.49
   2  -4  -5    2.03    6.18
   2  -4  -5    1.19    4.83
   2  -4  -5    6.01    4.57
  -2   4   4  335.36   22.35
  -2   4   4  346.87   16.26
  -2   4   4  449.65   25.57
  -2   4   4  356.86   22.10
  -2   4   4  417.31   19.05
  -2   4   4  374.39   16.93
   2  -4  -4  424.09   24.38
   2  -4  -4  373.20   23.45
   2  -4  -4  352.21   16.59
  -2   4   3  154.77   14.22
  -2   4   3  162.22   11.85
  -2   4   3  185.08   15.41
  -2   4   3  192.19   15.92
  -2   4   3  157.82   14.73
  -2   4   3  201.08   13.12
  -2   4   3  182.71   12.62
   2  -4  -3  218.44   16.76
   2  -4  -3  121.32   12.78
   2  -4  -3  145.12   11.26
  -2   4   2  185.16   14.39
  -2   4   2  250.95   14.90
  -2   4   2  241.97   16.93
  -2   4   2  259.75   17.78
  -2   4   2  254.59    6.27
  -2   4   2  188.04   14.65
  -2   4   2  269.49   14.39
  -2   4   2  204.13   13.89
   2  -4  -2  309.20   17.61
   2  -4  -2  224.11   16.17
   2  -4  -2  208.02   13.63
   2  -4  -2  215.81    5.93
  -2   4   1  256.62   16.09
  -2   4   1  273.04   15.75
  -2   4   1  323.59   17.53
  -2   4   1  348.40   19.39
  -2   4   1  309.37   10.58
  -2   4   1  239.09   16.34
  -2   4   1  328.25   15.66
  -2   4   1  285.66   16.17
   2  -4  -1  326.72   16.34
   2  -4  -1  247.73   15.41
   2  -4  -1  256.20   15.32
   2  -4  -1  291.16   10.41
  -2   4   0   61.21    9.82
  -2   4   0   61.89    9.99
  -2   4   0   80.69   10.92
  -2   4   0   83.31   12.11
  -2   4   0   60.11    6.94
  -2   4   0   51.14    9.74
  -2   4   0   66.80    9.48
  -2   4   0   68.66   10.50
   2  -4   0   74.17    8.97
   2  -4   0   70.61   10.41
   2  -4   0   58.00    6.86
   2  -4   0   63.50    7.87
  -2   4  -1  326.13   15.83
  -2   4  -1  322.23   17.78
  -2   4  -1  431.79   18.12
  -2   4  -1  474.46   21.25
  -2   4  -1  366.94   16.09
  -2   4  -1  374.90   18.37
  -2   4  -1  425.44   17.95
  -2   4  -1  345.94   18.46
   2  -4   1  457.78   16.68
   2  -4   1  321.81   18.03
   2  -4   1  379.72   16.42
   2  -4   1  408.68   16.76
  -2   4  -2   59.01    8.81
  -2   4  -2   42.33    8.55
  -2   4  -2   69.09    9.31
  -2   4  -2   65.95   10.58
  -2   4  -2   51.73    8.97
  -2   4  -2   48.51    8.55
  -2   4  -2   57.83    9.23
  -2   4  -2   40.55    8.30
   2  -4   2   53.76    7.62
   2  -4   2   58.50    8.55
   2  -4   2   53.00   10.16
   2  -4   2   40.30    8.13
   2  -4   2   48.60    8.72
  -2   4  -3   85.68   12.28
  -2   4  -3  117.94   10.24
  -2   4  -3  103.12   11.01
  -2   4  -3   96.01   11.26
  -2   4  -3   80.26    8.64
  -2   4  -3  111.42   10.84
  -2   4  -3   95.16   11.26
   2  -4   3  110.83    9.14
   2  -4   3  108.79    9.57
   2  -4   3   95.67   13.12
   2  -4   3  102.02   10.67
   2  -4   3   99.31   10.75
  -2   4  -4    4.06    4.23
  -2   4  -4    4.49    3.98
  -2   4  -4    5.67    5.76
  -2   4  -4    8.47    6.10
  -2   4  -4    4.40    3.89
  -2   4  -4    6.77    5.08
  -2   4  -4    8.04    5.42
   2  -4   4    6.94    4.23
   2  -4   4    8.55    4.83
   2  -4   4    5.33    5.16
   2  -4   4    7.70    5.08
   2  -4   4    4.49    5.08
  -2   4  -5  241.38   16.85
  -2   4  -5  342.30   16.76
  -2   4  -5  339.25   21.00
  -2   4  -5  221.06   18.03
  -2   4  -5  285.57   12.87
  -2   4  -5  327.91   18.12
  -2   4  -5  241.63   16.93
   2  -4   5  276.01   16.17
   2  -4   5  304.03   15.83
   2  -4   5  272.20   17.95
   2  -4   5  271.77   18.96
   2  -4   5  260.34   17.78
  -2   4  -6   44.20    9.82
  -2   4  -6   88.81   11.85
  -2   4  -6   75.61   13.80
  -2   4  -6   46.06   11.68
  -2   4  -6   58.00    6.77
  -2   4  -6   55.20   13.38
  -2   4  -6   41.23    9.31
   2  -4   6   57.74   10.75
   2  -4   6   54.19    9.65
   2  -4   6   55.71   11.09
   2  -4   6   46.73   11.85
   2  -4   6   55.12   11.43
  -2   4  -7   74.93   12.78
  -2   4  -7  105.92   13.97
  -2   4  -7  144.18   19.64
  -2   4  -7   84.07   16.51
  -2   4  -7   77.13   12.70
   2  -4   7  103.04   15.66
   2  -4   7   98.30   13.63
   2  -4   7   49.53   10.41
   2  -4   7   75.01   15.32
   2  -4   7   87.04   14.65
  -2   4  -8  117.35   17.61
  -2   4  -8   95.76   14.56
  -2   4  -8  120.82   14.31
  -2   4  -8  121.75   19.98
  -2   4  -8   85.17   16.76
  -2   4  -8   80.77   13.63
   2  -4   8  114.72   17.02
   2  -4   8  108.96   12.70
   2  -4   8   82.21   13.29
   2  -4   8  105.24   18.63
   2  -4   8   86.95   16.17
  -2   4  -9   56.64   14.39
  -2   4  -9   45.13   14.65
  -2   4  -9   39.62   13.21
   2  -4   9   35.73   11.85
   2  -4   9   43.35   13.97
   2  -4   9   39.28   12.62
  -2   4 -10   61.47   15.83
  -2   4 -10   68.16   18.12
  -2   4 -10   56.47   15.58
   2  -4  10   65.45   16.09
   2  -4  10   47.58   15.24
   2  -4  10   55.46   15.32
  -2   4 -11   24.21   13.63
  -2   4 -11   13.72   12.36
  -2   4 -11    6.43    9.74
   2  -4  11    8.38   10.92
   2  -4  11   13.80    9.65
   2  -4  11   23.62   12.70
  -2   4 -12    9.40   11.85
  -2   4 -12    7.03   12.28
  -2   4 -12   28.28   16.00
   2  -4  12   22.35   14.14
   2  -4  12   27.94   13.72
   2  -4  12    6.69   12.53
  -2   3  11    9.57   12.36
  -2   3  11   24.30   13.12
  -2   3  11   16.34   10.84
   2  -3 -11   16.59   15.83
   2  -3 -11    2.37   12.11
   2  -3 -11   18.54   11.85
  -2   3  10   32.00   15.07
  -2   3  10   56.81   18.29
  -2   3  10   42.50   12.78
   2  -3 -10   31.92   17.19
   2  -3 -10   45.47   16.85
  -2   3   9   69.68   18.20
  -2   3   9   98.63   20.83
  -2   3   9   79.25   14.48
   2  -3  -9  111.93   23.37
   2  -3  -9   82.55   18.88
  -2   3   8    6.18    8.89
  -2   3   8    6.77    7.54
  -2   3   8    2.62    7.96
  -2   3   8   -1.95    5.76
   2  -3  -8    5.42   10.84
   2  -3  -8    3.89    8.64
  -2   3   7  582.83   32.85
  -2   3   7  792.29   38.27
  -2   3   7  596.55   28.62
  -2   3   7  705.68   27.09
   2  -3  -7  825.40   39.28
   2  -3  -7  660.98   34.54
  -2   3   6   39.71   11.68
  -2   3   6   46.48   11.60
  -2   3   6   48.00   11.68
  -2   3   6   41.57    8.38
   2  -3  -6   55.71   13.72
   2  -3  -6   43.60   11.51
  -2   3   5 1035.70   37.34
  -2   3   5 1120.37   23.79
  -2   3   5 1299.94   41.99
  -2   3   5 1038.24   33.87
  -2   3   5 1237.80   29.38
  -2   3   5 1111.73   23.79
   2  -3  -5 1367.17   42.16
   2  -3  -5  899.06   34.46
   2  -3  -5 1051.45   23.11
   2  -3  -5 1020.21   22.77
  -2   3   4  108.03   12.87
  -2   3   4  122.85    9.06
  -2   3   4  139.78   14.39
  -2   3   4  115.99   12.28
  -2   3   4  154.01   10.24
  -2   3   4  134.11    9.74
  -2   3   4  123.70    9.23
   2  -3  -4  135.63   14.22
   2  -3  -4  123.86   13.63
   2  -3  -4  126.57    9.14
   2  -3  -4  128.61    4.49
   2  -3  -4  112.60    4.40
   2  -3  -4  108.37    8.89
  -2   3   3   82.72    9.99
  -2   3   3  101.60    8.47
  -2   3   3  104.31   11.94
  -2   3   3  167.98   14.31
  -2   3   3   87.54    9.99
  -2   3   3  154.60    9.65
  -2   3   3  134.53    9.14
  -2   3   3  109.05    8.89
   2  -3  -3  132.42   12.70
   2  -3  -3   91.35   10.50
   2  -3  -3   93.55    8.38
   2  -3  -3  108.88    4.06
   2  -3  -3  106.68    3.98
   2  -3  -3   92.96    8.64
  -2   3   2  236.13   15.32
  -2   3   2  239.94   12.87
  -2   3   2  252.98   15.24
  -2   3   2  332.06   17.36
  -2   3   2  268.56    7.62
  -2   3   2  179.32   13.55
  -2   3   2  292.69   12.36
  -2   3   2  261.11   11.68
  -2   3   2  226.99   12.62
   2  -3  -2  338.15   16.42
   2  -3  -2  189.48   13.29
   2  -3  -2  219.11   12.45
   2  -3  -2  226.48    7.28
   2  -3  -2  221.57   12.70
  -2   3   1    5.84    4.57
  -2   3   1    7.03    4.23
  -2   3   1   10.58    4.83
  -2   3   1   12.28    4.83
  -2   3   1    8.30    3.13
  -2   3   1    6.18    4.23
  -2   3   1    9.57    3.81
  -2   3   1    5.93    4.32
   2  -3  -1   10.67    4.74
   2  -3  -1    6.52    4.32
   2  -3  -1    7.54    3.13
   2  -3  -1    3.22    4.06
  -2   3   0  115.99    9.23
  -2   3   0  120.82   10.08
  -2   3   0  161.96   11.18
  -2   3   0  186.77   11.77
  -2   3   0  155.36    8.97
  -2   3   0   99.65    9.65
  -2   3   0  144.01    9.40
  -2   3   0  112.60    9.91
   2  -3   0  168.99    9.31
   2  -3   0  108.54    9.23
   2  -3   0  142.07    8.81
   2  -3   0  136.99   10.58
  -2   3  -1  148.59   10.16
  -2   3  -1  146.05   10.67
  -2   3  -1  215.90   12.02
  -2   3  -1  232.91   13.38
  -2   3  -1  175.43   10.67
  -2   3  -1  149.69   10.67
  -2   3  -1  220.21   11.77
  -2   3  -1  142.15   10.58
   2  -3   1  200.40    8.97
   2  -3   1  197.61   11.60
   2  -3   1  138.93   10.50
   2  -3   1  161.37   10.41
   2  -3   1  174.16   10.08
  -2   3  -2   57.32    9.06
  -2   3  -2   83.39    8.30
  -2   3  -2   88.81    9.57
  -2   3  -2   72.13    8.81
  -2   3  -2   65.19    7.87
  -2   3  -2   84.50    8.81
  -2   3  -2   65.78    9.40
   2  -3   2   78.06    6.52
   2  -3   2   72.30    8.04
   2  -3   2   55.12    9.23
   2  -3   2   57.15    8.72
   2  -3   2   74.84    8.47
  -2   3  -3  194.73   13.38
  -2   3  -3  288.71   14.31
  -2   3  -3  309.53   16.51
  -2   3  -3  195.58   14.31
  -2   3  -3  210.90   11.43
  -2   3  -3  267.79   14.48
  -2   3  -3  192.53   13.38
   2  -3   3  237.82   11.51
   2  -3   3  264.49   13.55
   2  -3   3  215.47   14.22
   2  -3   3  219.11   14.99
   2  -3   3  252.98   14.39
  -2   3  -4   35.22    7.70
  -2   3  -4   76.54    8.72
  -2   3  -4   81.96   11.68
  -2   3  -4   66.04   11.09
  -2   3  -4   61.13    6.52
  -2   3  -4   71.97   10.16
  -2   3  -4   57.74    9.48
   2  -3   4   65.02    7.62
   2  -3   4   72.64    8.97
   2  -3   4   61.81    9.91
   2  -3   4   55.03   10.08
   2  -3   4   70.78   10.67
  -2   3  -5  368.12   18.29
  -2   3  -5  515.27   20.74
  -2   3  -5  529.07   24.04
  -2   3  -5  495.04   24.72
  -2   3  -5  518.57   14.65
  -2   3  -5  556.42   22.18
  -2   3  -5  366.43   18.20
   2  -3   5  476.58   19.98
   2  -3   5  487.58   19.90
   2  -3   5  463.79   20.74
   2  -3   5  442.63   23.37
   2  -3   5  502.06   14.56
   2  -3   5  464.22   21.59
  -2   3  -6  156.38   13.04
  -2   3  -6  189.23   14.22
  -2   3  -6  172.29   16.34
  -2   3  -6  141.73   14.73
  -2   3  -6  183.05   13.97
  -2   3  -6  125.90   12.02
   2  -3   6  154.43   14.22
   2  -3   6  158.15   13.12
   2  -3   6   61.21    9.99
   2  -3   6  172.89   16.68
   2  -3   6  138.26   14.14
  -2   3  -7  960.01   34.46
  -2   3  -7  681.21   25.40
  -2   3  -7  952.73   32.09
  -2   3  -7  984.57   37.93
  -2   3  -7  959.59   38.78
  -2   3  -7  708.64   26.08
   2  -3   7  873.57   33.10
   2  -3   7  825.14   28.19
   2  -3   7  812.95   35.05
   2  -3   7  840.72   32.93
  -2   3  -8  157.39   17.53
  -2   3  -8  109.56   12.28
  -2   3  -8  142.91   15.41
  -2   3  -8  162.56   19.22
  -2   3  -8  131.99   19.98
  -2   3  -8  127.51   12.62
   2  -3   8  135.21   16.59
   2  -3   8  127.76   14.39
   2  -3   8  129.71   20.83
   2  -3   8  130.64   19.64
   2  -3   8  122.76   17.61
  -2   3  -9   39.79   12.53
  -2   3  -9   48.26   13.04
  -2   3  -9   50.12   14.65
  -2   3  -9   41.74   14.56
   2  -3   9   36.74   12.11
   2  -3   9   17.02    9.40
   2  -3   9   29.72   11.43
   2  -3   9   30.90   11.68
  -2   3 -10    9.40   10.16
  -2   3 -10    3.30    9.48
  -2   3 -10   15.58   11.26
   2  -3  10   -0.93    8.21
   2  -3  10    5.59    8.81
   2  -3  10    8.47   10.41
  -2   3 -11    8.97   11.35
  -2   3 -11   10.75   11.60
  -2   3 -11   13.21   12.11
   2  -3  11   10.33   10.08
   2  -3  11   15.24   12.02
  -2   3 -12  117.68   24.21
  -2   3 -12  106.17   23.45
  -2   3 -12   91.27   21.50
   2  -3  12  103.71   22.18
   2  -3  12  102.02   21.00
  -2   2  12   14.05   12.78
  -2   2  12   25.15   16.42
  -2   2  12    5.33   10.41
   2  -2 -12   11.43   16.17
   2  -2 -12   10.67   12.36
   2  -2 -12   13.12   13.72
  -2   2  11   49.19   17.10
  -2   2  11   48.26   17.10
  -2   2  11   52.66   13.72
   2  -2 -11   83.65   23.37
   2  -2 -11   48.68   16.59
   2  -2 -11   58.93   18.71
  -2   2  10   25.06   12.87
  -2   2  10   22.69   11.68
  -2   2  10   30.65   10.67
   2  -2 -10   36.74   16.09
   2  -2 -10   35.31   14.14
   2  -2 -10   22.77   11.26
  -2   2   9   14.82   11.09
  -2   2   9   17.78   11.43
  -2   2   9   16.42    8.21
   2  -2  -9   32.17   14.56
   2  -2  -9   15.41   10.41
  -2   2   8   51.48   13.80
  -2   2   8   65.70   15.75
  -2   2   8   56.81   11.77
  -2   2   8   55.96   10.75
   2  -2  -8   59.69   16.00
   2  -2  -8   40.98   12.70
  -2   2   7  104.73   17.36
  -2   2   7  124.20   18.96
  -2   2   7  114.04   15.16
  -2   2   7  106.34   11.18
   2  -2  -7  137.41   19.64
   2  -2  -7   99.74   16.00
  -2   2   6  236.38   18.88
  -2   2   6  283.20   14.39
  -2   2   6  256.37   19.64
  -2   2   6  245.36   12.36
  -2   2   6  217.76   15.41
  -2   2   6  263.56   13.63
  -2   2   6  266.02   10.08
   2  -2  -6  271.94   21.17
   2  -2  -6  222.58   18.29
   2  -2  -6  236.81   10.92
   2  -2  -6  232.66   12.28
   2  -2  -6  254.25    9.99
  -2   2   5  276.35   18.03
  -2   2   5  351.27   12.36
  -2   2   5  409.10   22.86
  -2   2   5  362.37   13.04
  -2   2   5  346.36   18.03
  -2   2   5  427.39   14.56
  -2   2   5  383.28   13.97
  -2   2   5  364.74   12.70
   2  -2  -5  415.96   22.86
   2  -2  -5  299.04   19.22
   2  -2  -5  336.03   12.19
   2  -2  -5  345.43   12.78
   2  -2  -5  320.96   12.02
  -2   2   4   17.02    6.86
  -2   2   4   22.69    4.74
  -2   2   4   27.26    7.45
  -2   2   4   25.06    7.28
  -2   2   4   24.89    4.32
  -2   2   4   22.94    6.69
  -2   2   4   23.62    4.32
  -2   2   4   22.10    4.15
  -2   2   4   19.90    4.49
   2  -2  -4   11.94    6.86
   2  -2  -4   16.17    6.10
   2  -2  -4   13.89    4.23
   2  -2  -4   19.81    4.15
   2  -2  -4   16.26    4.32
  -2   2   3  428.23   19.47
  -2   2   3  446.35   14.99
  -2   2   3  504.52   21.00
  -2   2   3  540.92   21.25
  -2   2   3  527.63   12.45
  -2   2   3  477.76   11.85
  -2   2   3  417.06   18.03
  -2   2   3  543.38   12.02
  -2   2   3  502.74   11.60
  -2   2   3  441.27   14.99
   2  -2  -3  532.80   20.40
   2  -2  -3  417.31   18.71
   2  -2  -3  419.51   14.65
   2  -2  -3  511.12   12.28
   2  -2  -3  466.33   11.77
   2  -2  -3  418.07   14.56
  -2   2   2   75.61    7.87
  -2   2   2  106.09    7.79
  -2   2   2  111.08    9.91
  -2   2   2  116.16    9.40
  -2   2   2  125.47    6.27
  -2   2   2   88.14    8.21
  -2   2   2  126.83    5.76
  -2   2   2  113.03    5.42
  -2   2   2  104.05    7.87
   2  -2  -2  122.17    9.06
   2  -2  -2   96.18    9.23
   2  -2  -2   93.13    7.79
   2  -2  -2  118.02    6.27
   2  -2  -2   95.50    7.54
  -2   2   1  482.67   16.93
  -2   2   1  458.71   15.41
  -2   2   1  654.88   19.81
  -2   2   1  711.78   19.64
  -2   2   1  553.96   13.21
  -2   2   1  577.92   18.71
  -2   2   1  654.29   12.95
  -2   2   1  626.52   12.78
  -2   2   1  428.83   15.16
   2  -2  -1  701.53   16.17
   2  -2  -1  419.94   14.99
   2  -2  -1  534.15   13.12
   2  -2  -1  440.09   15.24
  -2   2   0  513.07   16.68
  -2   2   0  396.15   14.82
  -2   2   0  568.10   17.36
  -2   2   0  649.29   17.61
  -2   2   0  543.21   14.99
  -2   2   0  400.80   14.73
  -2   2   0  592.06   14.14
  -2   2   0  406.73   15.07
   2  -2   0  611.11   11.68
   2  -2   0  419.51   15.32
   2  -2   0  464.81   13.89
   2  -2   0  427.39   15.16
  -2   2  -1  165.69    9.65
  -2   2  -1  154.77    9.82
  -2   2  -1  204.63   10.67
  -2   2  -1  221.57   10.58
  -2   2  -1  179.07    9.74
  -2   2  -1  172.29    9.65
  -2   2  -1  203.96    9.74
  -2   2  -1  165.01   10.16
   2  -2   1  204.47    6.18
   2  -2   1  201.84   10.67
   2  -2   1  137.58    9.48
   2  -2   1  185.25   10.33
   2  -2   1  207.17    9.31
   2  -2   1  140.29    9.14
  -2   2  -2  193.04   10.92
  -2   2  -2  274.99   12.36
  -2   2  -2  277.36   12.53
  -2   2  -2  214.20   12.36
  -2   2  -2  215.56   10.41
  -2   2  -2  276.01   12.45
  -2   2  -2  214.79   11.77
   2  -2   2  247.14    8.47
   2  -2   2  251.88   12.19
   2  -2   2  177.20   10.58
   2  -2   2  206.07   12.19
   2  -2   2  277.45   12.36
   2  -2   2  191.09   11.18
  -2   2  -3  212.34   12.11
  -2   2  -3  317.32   14.31
  -2   2  -3  342.89   15.41
  -2   2  -3  254.59   14.48
  -2   2  -3  289.22   11.60
  -2   2  -3  316.82   14.82
  -2   2  -3  223.85   12.45
   2  -2   3  274.91   11.51
   2  -2   3  302.00   14.31
   2  -2   3  250.18   13.21
   2  -2   3  253.74   15.07
   2  -2   3  292.86   14.56
   2  -2   3  223.60   12.45
  -2   2  -4   94.23    9.23
  -2   2  -4   74.08    8.04
  -2   2  -4  104.39   10.24
  -2   2  -4  102.61   10.67
  -2   2  -4   82.63    9.82
  -2   2  -4  101.60    7.37
  -2   2  -4   94.32    9.57
  -2   2  -4   76.62    8.21
   2  -2   4   82.29    8.64
   2  -2   4   93.05    9.65
   2  -2   4   50.38    7.54
   2  -2   4   84.41    9.91
   2  -2   4  100.92    7.62
   2  -2   4   99.31   10.75
   2  -2   4   34.12    6.43
  -2   2  -5   50.63    8.81
  -2   2  -5   34.63    6.69
  -2   2  -5   56.05    9.99
  -2   2  -5   56.39   10.24
  -2   2  -5   50.21    9.91
  -2   2  -5   52.49    8.97
  -2   2  -5   37.42    6.86
   2  -2   5   40.05    7.96
   2  -2   5   48.51    9.23
   2  -2   5   42.59    7.62
   2  -2   5   50.29   10.08
   2  -2   5   43.18    5.33
   2  -2   5   48.34    9.40
   2  -2   5   45.13    7.96
  -2   2  -6  742.76   27.85
  -2   2  -6  602.31   20.74
  -2   2  -6  705.43   27.09
  -2   2  -6  788.99   30.39
  -2   2  -6  612.13   27.69
  -2   2  -6  829.88   27.18
  -2   2  -6  609.84   20.91
   2  -2   6  691.80   27.01
   2  -2   6  644.81   25.82
   2  -2   6  671.82   22.01
   2  -2   6  654.46   29.04
   2  -2   6  661.15   26.84
  -2   2  -7   99.99   15.07
  -2   2  -7   67.31    9.40
  -2   2  -7   90.25   14.73
  -2   2  -7   93.89   14.99
  -2   2  -7   79.33   14.73
  -2   2  -7   80.26    9.31
   2  -2   7   77.72   13.80
   2  -2   7   77.72   13.04
   2  -2   7   76.88   10.24
   2  -2   7   79.33   14.48
   2  -2   7   76.96   14.14
  -2   2  -8  138.17   19.22
  -2   2  -8  115.99   17.36
  -2   2  -8  128.78   19.30
  -2   2  -8   93.98   17.19
   2  -2   8  114.04   17.86
   2  -2   8  105.75   16.93
   2  -2   8  113.37   17.61
   2  -2   8  111.84   17.10
  -2   2  -9   97.79   18.37
  -2   2  -9   96.26   17.36
  -2   2  -9   89.07   17.69
  -2   2  -9   72.73   16.76
   2  -2   9   55.88   13.89
   2  -2   9   76.54   16.17
   2  -2   9   80.26   16.00
  -2   2 -10   38.10   13.72
  -2   2 -10   51.39   15.16
  -2   2 -10   44.20   14.90
  -2   2 -10   46.14   14.90
   2  -2  10   39.88   12.95
   2  -2  10   23.11   11.43
   2  -2  10   39.54   13.97
  -2   2 -11  118.36   22.69
  -2   2 -11   88.64   18.46
  -2   2 -11   97.62   21.42
  -2   2 -11  112.52   22.01
   2  -2  11   73.91   17.10
   2  -2  11   93.72   19.90
   2  -2  11   86.44   18.37
  -2   2 -12   35.31   16.76
  -2   2 -12   58.76   18.96
  -2   2 -12   23.03   14.14
   2  -2  12   38.18   15.66
   2  -2  12   24.38   14.05
  -2   1  12   29.04   14.31
  -2   1  12   21.00   14.82
  -2   1  12   19.13   10.58
   2  -1 -12   51.73   20.40
   2  -1 -12   32.51   14.82
   2  -1 -12   36.49   15.83
  -2   1  11   85.68   19.98
  -2   1  11   47.92   16.93
  -2   1  11   79.50   15.24
   2  -1 -11   96.94   22.10
   2  -1 -11   73.74   17.78
   2  -1 -11   51.48   16.59
  -2   1  10   16.68   10.92
  -2   1  10   16.93   11.68
  -2   1  10   19.05    9.14
   2  -1 -10   29.38   13.21
   2  -1 -10   17.95   11.01
   2  -1 -10   23.71   12.28
  -2   1   9    3.39    8.38
  -2   1   9    1.78    8.97
  -2   1   9   -0.51    5.67
   2  -1  -9    7.11   10.24
   2  -1  -9    5.67    8.55
   2  -1  -9   11.43    9.48
  -2   1   8   47.33   12.19
  -2   1   8   49.70   13.12
  -2   1   8   38.61    8.89
  -2   1   8   56.56   10.08
   2  -1  -8   50.54   14.65
   2  -1  -8   48.09   12.45
   2  -1  -8   40.55   11.77
   2  -1  -8   45.80   10.50
  -2   1   7   56.13   13.72
  -2   1   7   47.92   11.09
  -2   1   7   58.08   13.04
  -2   1   7   49.95    8.97
  -2   1   7   52.07    9.23
  -2   1   7   59.10    8.55
   2  -1  -7   70.10   14.56
   2  -1  -7   64.01   12.62
   2  -1  -7   73.40   11.18
  -2   1   6  279.73   19.90
  -2   1   6  226.22   16.85
  -2   1   6  279.31   20.15
  -2   1   6  234.61   13.55
  -2   1   6  246.21   14.48
  -2   1   6  277.19   11.94
   2  -1  -6  284.98   20.23
   2  -1  -6  257.04   10.41
   2  -1  -6  264.92   17.86
   2  -1  -6  238.67    9.91
   2  -1  -6  265.85   14.56
   2  -1  -6  237.23    9.99
   2  -1  -6  262.04   10.67
  -2   1   5   66.12   11.26
  -2   1   5   73.83   11.35
  -2   1   5   83.65    6.69
  -2   1   5   89.24    7.20
  -2   1   5   85.43   12.95
  -2   1   5   77.81    7.96
  -2   1   5   76.62    8.64
  -2   1   5   83.23    5.59
  -2   1   5  100.41    6.10
  -2   1   5   96.01    7.11
   2  -1  -5  100.50   12.36
   2  -1  -5   84.33   12.11
   2  -1  -5   81.28    6.77
   2  -1  -5   81.53    8.30
   2  -1  -5   79.75    6.60
   2  -1  -5   89.07    7.20
  -2   1   4 2200.69   42.25
  -2   1   4 1901.06   38.27
  -2   1   4 2313.30   31.07
  -2   1   4 2447.41   43.52
  -2   1   4 2632.23   33.27
  -2   1   4 2563.31   46.73
  -2   1   4 2311.94   33.10
  -2   1   4 1992.93   34.88
  -2   1   4 2382.30   31.75
   2  -1  -4 2561.96   45.63
   2  -1  -4 1987.17   39.20
   2  -1  -4 2067.60   29.46
   2  -1  -4 2152.77   32.00
   2  -1  -4 2122.38   29.80
   2  -1  -4 2425.90   32.09
  -2   1   3  418.58   16.26
  -2   1   3  377.94   15.83
  -2   1   3  447.62   14.05
  -2   1   3  509.94   18.54
  -2   1   3  540.16   15.41
  -2   1   3  524.75   19.22
  -2   1   3  498.00   14.22
  -2   1   3  485.81   13.97
  -2   1   3  432.64   15.83
  -2   1   3  473.70   14.48
   2  -1  -3  493.26   17.61
   2  -1  -3  426.37   16.93
   2  -1  -3  434.33   13.80
   2  -1  -3  449.65   13.46
   2  -1  -3  441.53   13.89
  -2   1   2  761.64   18.12
  -2   1   2  801.69   20.66
  -2   1   2  676.39   17.02
  -2   1   2  987.02   23.03
  -2   1   2 1063.73   21.25
  -2   1   2  896.26   21.17
  -2   1   2  761.98   16.17
  -2   1   2  927.33   17.86
  -2   1   2  742.43   19.47
  -2   1   2  675.20   17.10
   2  -1  -2  893.72   19.64
   2  -1  -2  837.67   18.88
   2  -1  -2  817.18   16.76
   2  -1  -2  747.93   17.86
  -2   1   1  725.24   13.38
  -2   1   1  737.94   18.46
  -2   1   1  628.97   16.42
  -2   1   1  864.34   19.90
  -2   1   1  872.89   19.47
  -2   1   1  930.47   18.29
  -2   1   1  887.37   17.53
  -2   1   1  634.90   17.10
  -2   1   1  655.90   17.02
   2  -1  -1  846.56   14.39
   2  -1  -1  611.96   16.34
   2  -1  -1  843.77   17.10
   2  -1  -1  602.56   16.17
  -2   1   0  561.58   15.66
  -2   1   0  509.85   14.99
  -2   1   0  696.88   17.44
  -2   1   0  720.41   17.86
  -2   1   0  520.18   11.77
  -2   1   0  573.52   15.16
  -2   1   0  529.07   15.16
  -2   1   0  722.53   12.62
  -2   1   0  660.89   12.11
  -2   1   0  523.99   15.24
   2  -1   0  650.31    7.11
   2  -1   0  689.43    6.27
   2  -1   0  677.32   17.19
   2  -1   0  482.25   14.56
   2  -1   0  644.89   16.09
   2  -1   0  492.24   14.65
  -2   1  -1 2808.76   16.68
  -2   1  -1 2031.79   29.97
  -2   1  -1 2910.78   36.66
  -2   1  -1 2998.40   28.45
  -2   1  -1 2243.28   32.43
  -2   1  -1 2651.96   32.77
  -2   1  -1 2094.44   30.56
   2  -1   1 2663.56   34.97
   2  -1   1 2062.18   30.31
   2  -1   1 2602.43   35.14
   2  -1   1 2741.28   29.72
   2  -1   1 2040.85   29.97
  -2   1  -2  743.61   14.65
  -2   1  -2  642.35   17.44
  -2   1  -2  798.05   21.08
  -2   1  -2  204.55    8.89
  -2   1  -2  643.45   19.39
  -2   1  -2  699.33   16.85
  -2   1  -2  824.64   19.98
  -2   1  -2  639.73   17.53
   2  -1   2  749.45   20.40
   2  -1   2  578.60   16.59
   2  -1   2  613.57   19.22
   2  -1   2  787.13   17.86
   2  -1   2  834.54   19.90
   2  -1   2  533.81   15.83
  -2   1  -3  475.05   15.24
  -2   1  -3  383.45   13.97
  -2   1  -3  503.25   18.37
  -2   1  -3  492.66   16.42
  -2   1  -3  493.17   19.30
  -2   1  -3  528.65   17.95
  -2   1  -3  392.25   14.22
   2  -1   3  420.70   14.39
   2  -1   3  468.20   17.69
   2  -1   3  445.42   18.37
   2  -1   3  534.15   15.16
   2  -1   3  539.74   18.54
  -2   1  -4  143.68   11.51
  -2   1  -4  118.53    8.72
  -2   1  -4  134.36   12.02
  -2   1  -4  142.83   11.35
  -2   1  -4  113.79   11.68
  -2   1  -4  135.63   10.75
  -2   1  -4  117.60    8.72
   2  -1   4  118.45   10.50
   2  -1   4  122.17   11.35
   2  -1   4  101.43    8.21
   2  -1   4  121.16   11.85
   2  -1   4  140.46    8.81
   2  -1   4  136.90   12.19
   2  -1   4  114.30    8.55
  -2   1  -5  265.51   16.00
  -2   1  -5  186.69   10.24
  -2   1  -5  240.62   16.26
  -2   1  -5  292.86   17.02
  -2   1  -5  192.78   14.48
  -2   1  -5  292.35   15.83
  -2   1  -5  201.84   10.58
   2  -1   5  224.70   14.90
   2  -1   5  221.31   15.41
   2  -1   5  246.63   11.85
   2  -1   5  259.24   17.02
   2  -1   5  239.26   10.92
   2  -1   5  252.81   16.09
   2  -1   5  195.15   10.50
  -2   1  -6   77.38   12.45
  -2   1  -6   55.79    6.60
  -2   1  -6   58.59   11.35
  -2   1  -6   71.20   11.94
  -2   1  -6   60.70   11.68
  -2   1  -6   54.95    9.14
  -2   1  -6   52.83    7.03
   2  -1   6   47.92   10.33
   2  -1   6   60.28    6.86
   2  -1   6   45.89   10.41
   2  -1   6   55.20   11.18
   2  -1   6   51.98    7.11
  -2   1  -7   47.16   11.51
  -2   1  -7   45.04   11.68
  -2   1  -7   46.14   11.35
  -2   1  -7   34.71   10.58
  -2   1  -7   36.49    8.55
   2  -1   7   26.58    9.65
   2  -1   7   43.60   10.84
   2  -1   7   35.22   10.41
  -2   1  -8  145.28   20.40
  -2   1  -8  107.86   17.36
  -2   1  -8  143.93   20.15
  -2   1  -8  131.15   19.05
   2  -1   8  102.95   17.44
   2  -1   8  122.00   18.03
   2  -1   8  126.49   18.20
  -2   1  -9   29.80   13.12
  -2   1  -9   24.30   11.35
  -2   1  -9   21.42   10.92
  -2   1  -9   21.93   11.01
   2  -1   9   17.78    9.99
   2  -1   9   18.29    9.40
   2  -1   9   15.92   10.58
  -2   1 -10   37.85   14.56
  -2   1 -10   27.52   13.29
  -2   1 -10   34.04   13.12
  -2   1 -10   35.39   13.46
   2  -1  10   19.13   11.09
   2  -1  10   21.76   10.75
   2  -1  10   26.84   12.36
  -2   1 -11   13.21   13.21
  -2   1 -11   11.60   12.19
  -2   1 -11   33.87   14.56
  -2   1 -11   27.43   12.87
   2  -1  11   15.49   11.26
   2  -1  11   18.46   11.60
   2  -1  11    6.77   10.75
  -2   1 -12   50.46   18.29
  -2   1 -12   35.05   16.59
  -2   1 -12   42.67   17.44
   2  -1  12   39.71   16.00
   2  -1  12   39.96   16.17
  -2   0  13   19.73   14.65
  -2   0  13   14.14   11.01
   2   0 -13   15.75   17.27
   2   0 -13   16.93   14.82
  -2   0  12   60.79   19.13
  -2   0  12   62.14   15.16
   2   0 -12   98.30   24.30
   2   0 -12   80.77   21.25
  -2   0  11   31.58   13.12
  -2   0  11   18.96   11.35
  -2   0  11   28.02   10.16
   2   0 -11   41.49   15.92
   2   0 -11   21.84   11.26
   2   0 -11   24.81   11.51
  -2   0  10   62.91   17.53
  -2   0  10   54.86   14.14
  -2   0  10   56.05   16.26
  -2   0  10   48.60   11.09
   2   0 -10   61.81   17.69
   2   0 -10   49.95   13.21
   2   0 -10   33.53   13.46
   2   0 -10   42.84   16.59
  -2   0   9  181.10   20.23
  -2   0   9  127.17   18.63
  -2   0   9  181.52   21.59
  -2   0   9  143.34   15.66
  -2   0   9  173.22   14.82
   2   0  -9  160.52   19.30
   2   0  -9  161.88   17.36
   2   0  -9  173.65   20.91
   2   0  -9  145.28   16.17
  -2   0   8   67.99   15.32
  -2   0   8   78.48   14.05
  -2   0   8   65.02   14.48
  -2   0   8   -0.76    2.71
  -2   0   8   91.10   10.50
   2   0  -8  103.46   18.12
   2   0  -8   82.29   13.89
   2   0  -8   65.95   14.31
   2   0  -8   83.06   13.63
  -2   0   7   26.58    8.81
  -2   0   7   21.17    7.54
  -2   0   7   30.73    5.59
  -2   0   7   18.88    7.87
  -2   0   7   -0.17    2.12
  -2   0   7   24.89    6.43
  -2   0   7   34.71    6.69
   2   0  -7   30.56    9.65
   2   0  -7   34.63    6.01
   2   0  -7   31.24    8.64
   2   0  -7   40.05   10.16
   2   0  -7   29.63    8.21
   2   0  -7   23.88    5.25
  -2   0   6  276.94   19.13
  -2   0   6  280.83   16.68
  -2   0   6  334.93   13.21
  -2   0   6  317.66   20.49
  -2   0   6  182.71   12.78
  -2   0   6  272.20   13.12
  -2   0   6  321.13   11.26
  -2   0   6  336.29   11.51
   2   0  -6  359.99   21.67
   2   0  -6  290.74   12.36
   2   0  -6  288.11   16.85
   2   0  -6  337.81   20.83
   2   0  -6  298.95   16.59
   2   0  -6  308.26   12.62
   2   0  -6  292.77   12.53
  -2   0   5  375.15   19.90
  -2   0   5  327.74   16.42
  -2   0   5  415.45   14.31
  -2   0   5  400.89   14.31
  -2   0   5  380.40   20.23
  -2   0   5  357.79   16.34
  -2   0   5  340.01   13.89
  -2   0   5  381.92    7.37
  -2   0   5  395.30    7.70
   2   0  -5  458.97   21.84
   2   0  -5  393.35   14.14
   2   0  -5  353.90   16.85
   2   0  -5  381.92   17.10
   2   0  -5  377.18   13.80
   2   0  -5  398.69   14.48
  -2   0   4  920.48   26.58
  -2   0   4  862.31   23.28
  -2   0   4  962.13   21.17
  -2   0   4  989.65   24.72
  -2   0   4 1073.47   22.52
  -2   0   4 1020.04   28.36
  -2   0   4  920.65   23.54
  -2   0   4  961.54   24.13
  -2   0   4  931.65   21.34
   2   0  -4  904.73   20.57
   2   0  -4  904.22   23.62
   2   0  -4  958.91   24.13
   2   0  -4  938.17   20.91
   2   0  -4  968.65   21.50
  -2   0   3 1043.75   24.55
  -2   0   3  941.13   21.50
  -2   0   3 1113.94   22.35
  -2   0   3 1179.13   23.96
  -2   0   3 1153.56   25.82
  -2   0   3 1007.60   22.44
  -2   0   3 1119.86   23.62
  -2   0   3 1035.28   21.50
  -2   0   3 1157.62   22.86
   2   0  -3  928.77   21.25
   2   0  -3 1107.75   23.54
   2   0  -3  951.72   20.57
   2   0  -3 1145.43   22.77
  -2   0   2  775.45   17.78
  -2   0   2  697.05   16.68
  -2   0   2  762.49   18.12
  -2   0   2  791.95   17.86
  -2   0   2  679.60   17.19
  -2   0   2  833.10   18.20
  -2   0   2  716.52   17.61
  -2   0   2  644.98   16.68
  -2   0   2  724.14   17.53
  -2   0   2  751.57   18.12
   2   0  -2  742.17   17.86
   2   0  -2  805.42   18.80
  -2   0   1 2143.21   23.45
  -2   0   1 1871.52   26.16
  -2   0   1 1669.00   26.25
  -2   0   1 2106.80   27.69
  -2   0   1 1946.95   28.28
  -2   0   1 1949.83   20.40
  -2   0   1 2029.25   28.28
  -2   0   1 1728.18   26.08
  -2   0   1 1673.06   25.91
  -2   0   1 1725.64   26.84
   2   0  -1 2297.13   28.87
   2   0  -1 1752.48   26.33
   2   0  -1 1895.14   27.60
   2   0  -1 1653.76   25.99
  -2   0   0 4542.10   29.12
  -2   0   0 3435.02   37.00
  -2   0   0 4093.12   40.13
  -2   0   0 4206.74   40.89
  -2   0   0 4586.46   18.88
  -2   0   0 3466.35   37.59
  -2   0   0 3577.85   38.01
  -2   0   0 4301.57   30.90
  -2   0   0 4210.47   30.39
  -2   0   0 3474.05   37.42
   2   0   0 4611.02   42.50
   2   0   0 4316.13   42.08
   2   0   0 3920.57   39.88
  -2   0  -1 1215.19   17.78
  -2   0  -1  923.10   19.22
  -2   0  -1 1158.98   23.62
  -2   0  -1 1128.67   21.17
  -2   0  -1 1276.66   13.72
  -2   0  -1 1151.61   23.28
  -2   0  -1 1176.93   21.00
  -2   0  -1  919.04   19.22
   2   0   1 1133.92   23.45
   2   0   1 1002.09   19.98
   2   0   1  965.26   21.42
   2   0   1 1205.29   22.77
   2   0   1  998.79   18.63
   2   0   1  871.12   18.71
  -2   0  -2  998.71   20.32
  -2   0  -2  744.63   17.19
  -2   0  -2  880.94   23.20
  -2   0  -2 1002.26   19.98
  -2   0  -2  955.02   17.53
  -2   0  -2  912.77   22.69
  -2   0  -2  967.97   22.01
  -2   0  -2  727.27   17.10
   2   0   2  897.53   23.20
   2   0   2  878.99   16.93
   2   0   2  790.35   21.17
   2   0   2  966.70   21.08
   2   0   2  825.91   20.15
  -2   0  -3  114.47    9.40
  -2   0  -3   90.76    6.86
  -2   0  -3  117.18   10.16
  -2   0  -3   40.05    5.93
  -2   0  -3  111.84   10.08
  -2   0  -3   90.76    6.86
   2   0   3  115.65    9.99
   2   0   3   96.94    7.11
   2   0   3  118.19    9.06
   2   0   3  113.62   10.08
   2   0   3   98.38    7.96
   2   0   3  103.04    9.65
   2   0   3   82.38    6.60
  -2   0  -4   99.23   10.50
  -2   0  -4   98.55    6.94
  -2   0  -4   86.61   12.11
  -2   0  -4   88.31    9.23
  -2   0  -4  103.46   10.67
  -2   0  -4  101.60    9.82
  -2   0  -4   87.80    6.86
   2   0   4   84.50   10.50
   2   0   4   82.12    6.69
   2   0   4   87.80    9.31
   2   0   4   88.47   10.08
   2   0   4   94.40    8.55
   2   0   4  112.52   11.51
   2   0   4   67.65    6.18
  -2   0  -5  369.90   19.81
  -2   0  -5  373.54   12.11
  -2   0  -5  353.81   20.23
  -2   0  -5  439.92   20.32
  -2   0  -5  397.76   19.98
  -2   0  -5  449.15   19.47
  -2   0  -5  367.45   12.11
   2   0   5  331.46   19.56
   2   0   5  329.85   11.43
   2   0   5  413.42   19.90
   2   0   5  377.86   19.39
   2   0   5  324.35   14.48
   2   0   5  355.34   18.96
   2   0   5  320.12   11.18
  -2   0  -6    3.73    6.27
  -2   0  -6    5.93    3.22
  -2   0  -6    7.37    6.94
  -2   0  -6    3.89    5.50
  -2   0  -6    2.54    5.67
  -2   0  -6    5.76    2.88
   2   0   6    3.73    6.18
   2   0   6    4.66    5.93
   2   0   6    2.88    5.50
   2   0   6    5.76    4.32
   2   0   6   10.92    7.03
   2   0   6    6.69    4.40
  -2   0  -7  414.52   25.82
  -2   0  -7  341.45   23.79
  -2   0  -7  376.76   23.71
  -2   0  -7  334.26   21.76
   2   0   7  285.74   22.01
   2   0   7  358.89   23.28
   2   0   7  341.20   21.67
   2   0   7  387.09   23.54
  -2   0  -8   19.22   10.41
  -2   0  -8   13.97    8.30
  -2   0  -8   11.09    8.21
  -2   0  -8    5.93    7.54
   2   0   8   10.33    7.70
   2   0   8    9.91    8.55
   2   0   8    6.77    7.70
   2   0   8    6.86    8.47
  -2   0  -9  294.80   26.67
  -2   0  -9  207.77   22.35
  -2   0  -9  278.38   24.81
  -2   0  -9  250.10   22.01
   2   0   9  197.10   20.57
   2   0   9  239.94   23.54
   2   0   9  195.32   19.56
   2   0   9  264.24   23.79
  -2   0 -10   16.26   12.78
  -2   0 -10   21.50   12.87
  -2   0 -10   22.52   11.77
  -2   0 -10   18.29    9.91
   2   0  10   18.96   10.16
   2   0  10   13.29   10.92
   2   0  10   21.34   12.36
  -2   0 -11   32.00   16.42
  -2   0 -11   11.09   12.95
  -2   0 -11   17.95   13.29
   2   0  11   10.84   11.77
   2   0  11   15.66   13.55
  -2   0 -12    7.96   14.56
  -2   0 -12   16.93   14.22
  -2   0 -12   13.55   13.21
   2   0  12   -1.44    9.65
   2   0  12   -9.31   11.60
  -2  -1  13  136.90   22.01
   2   1 -13  163.83   30.90
   2   1 -13  157.65   28.79
  -2  -1  12   -3.89   11.35
  -2  -1  12   -4.06    7.70
   2   1 -12   11.35   14.14
   2   1 -12    1.69   11.77
  -2  -1  11  109.64   21.76
  -2  -1  11   72.39   18.54
  -2  -1  11   99.23   17.69
  -2  -1  11   90.85   15.32
   2   1 -11  144.27   25.91
   2   1 -11  100.07   21.50
   2   1 -11   81.02   17.78
  -2  -1  10  215.13   24.55
  -2  -1  10  218.35   19.56
  -2  -1  10  165.10   24.47
  -2  -1  10  217.59   20.74
  -2  -1  10  215.22   17.78
   2   1 -10  284.30   27.60
   2   1 -10  239.18   20.07
   2   1 -10  304.20   27.69
   2   1 -10  218.44   21.50
  -2  -1   9  180.34   21.34
  -2  -1   9  155.61   15.66
  -2  -1   9  197.02   22.10
  -2  -1   9  176.10   17.69
  -2  -1   9  197.95   15.49
   2   1  -9  204.89   22.69
   2   1  -9  190.41   17.53
   2   1  -9  182.88   20.83
   2   1  -9  177.97   19.56
  -2  -1   8  212.17   20.83
  -2  -1   8  237.65   17.61
  -2  -1   8  244.94   20.91
  -2  -1   8  257.64   19.39
  -2  -1   8  256.28   15.07
   2   1  -8  307.25   24.13
   2   1  -8  262.21   17.61
   2   1  -8  265.59   21.50
   2   1  -8  288.62   20.74
   2   1  -8  267.20   16.00
  -2  -1   7  198.29   18.20
  -2  -1   7  187.11   13.89
  -2  -1   7  223.77   13.04
  -2  -1   7  208.53   18.80
  -2  -1   7  211.92   16.42
  -2  -1   7  219.45   10.41
  -2  -1   7  200.15   11.60
  -2  -1   7  241.80   12.95
   2   1  -7  222.67   19.22
   2   1  -7  201.93   12.53
   2   1  -7  211.24   14.31
   2   1  -7  223.68   18.96
   2   1  -7  215.39   16.93
   2   1  -7  238.25   10.58
   2   1  -7  202.86   12.36
   2   1  -7  200.15   12.53
  -2  -1   6  374.90   21.17
  -2  -1   6  303.18   15.32
  -2  -1   6  410.62   16.42
  -2  -1   6  359.23   20.74
  -2  -1   6  313.09   18.03
  -2  -1   6  400.89   13.38
  -2  -1   6  379.21   12.36
  -2  -1   6  376.42   15.75
   2   1  -6  377.52   15.92
   2   1  -6  307.25   15.24
   2   1  -6  380.15   21.17
   2   1  -6  326.89   18.20
   2   1  -6  442.80   13.89
   2   1  -6  399.70   16.17
   2   1  -6  391.91   16.17
  -2  -1   5  181.44   13.89
  -2  -1   5  186.35   11.35
  -2  -1   5  210.31   12.19
  -2  -1   5  198.45   15.16
  -2  -1   5  190.83   13.55
  -2  -1   5  201.67   10.08
  -2  -1   5  190.33    6.52
  -2  -1   5  184.99    6.43
  -2  -1   5  218.52   12.36
   2   1  -5  161.20   10.58
   2   1  -5  173.22   10.92
   2   1  -5  211.66   15.32
   2   1  -5  160.52   12.87
   2   1  -5  196.51    9.74
   2   1  -5  204.38   11.85
   2   1  -5  168.31   10.84
  -2  -1   4  145.62   12.02
  -2  -1   4  131.40    8.30
  -2  -1   4  116.24    7.96
  -2  -1   4  112.35    8.81
  -2  -1   4  133.01   10.67
  -2  -1   4  119.29    9.82
  -2  -1   4  141.73   11.09
  -2  -1   4  143.93    8.72
  -2  -1   4   97.11    8.21
   2   1  -4  129.62    9.57
   2   1  -4  123.53    8.30
   2   1  -4  145.03   11.09
   2   1  -4  139.53   11.18
   2   1  -4  167.38    9.14
   2   1  -4  113.54    8.89
   2   1  -4  146.13   10.58
  -2  -1   3  555.74   18.46
  -2  -1   3  505.19   13.21
  -2  -1   3  561.75   17.53
  -2  -1   3  589.86   14.22
  -2  -1   3  459.81   16.00
  -2  -1   3  493.51   16.76
  -2  -1   3  551.25   18.54
  -2  -1   3  510.53   17.86
  -2  -1   3  559.30   15.58
  -2  -1   3  571.32   17.69
   2   1  -3  500.96   16.68
   2   1  -3  558.11   17.69
   2   1  -3  463.71   17.19
   2   1  -3  511.12   14.65
   2   1  -3  576.06   17.69
   2   1  -3  535.93   17.36
  -2  -1   2  308.26   12.45
  -2  -1   2  266.36    9.23
  -2  -1   2  336.88   13.29
  -2  -1   2  305.13    9.74
  -2  -1   2  278.04   12.28
  -2  -1   2  310.72   13.12
  -2  -1   2  246.71   11.60
  -2  -1   2  238.42   11.35
   2   1  -2  319.36    9.91
   2   1  -2  243.58   11.26
   2   1  -2  316.56   11.09
   2   1  -2  275.67   11.18
   2   1  -2  248.58   11.51
   2   1  -2  320.20   13.21
  -2  -1   1  986.68   19.73
  -2  -1   1  861.13   20.40
  -2  -1   1  832.34   20.07
  -2  -1   1  899.31   20.66
  -2  -1   1  801.52   19.64
  -2  -1   1  928.69   13.80
  -2  -1   1  813.88   12.87
  -2  -1   1  873.99   20.66
  -2  -1   1  819.64   19.73
   2   1  -1  969.58   17.95
   2   1  -1  805.59   19.73
   2   1  -1 1109.11   15.24
   2   1  -1  837.84   19.47
   2   1  -1  792.97   19.39
   2   1  -1  863.41   20.57
  -2  -1   0  654.46   16.00
  -2  -1   0  534.57   15.66
  -2  -1   0  578.09   15.92
  -2  -1   0  553.28   16.00
  -2  -1   0  597.06   16.85
  -2  -1   0  528.22   15.83
  -2  -1   0  638.54   14.82
  -2  -1   0  533.73   15.66
  -2  -1   0  569.12   16.17
   2   1   0  600.19   16.09
   2   1   0  484.11   14.90
   2   1   0  626.27    8.72
   2   1   0  499.35   15.49
   2   1   0  517.05   16.00
   2   1   0  592.32   13.55
   2   1   0  531.44   15.66
   2   1   0  506.13   15.32
  -2  -1  -1  569.71   16.34
  -2  -1  -1  490.46   14.73
  -2  -1  -1  515.69   16.93
  -2  -1  -1  529.66   15.24
  -2  -1  -1  452.53   15.07
  -2  -1  -1  564.38   16.34
  -2  -1  -1  563.02   15.92
   2   1   1  529.92   17.36
   2   1   1  500.54   14.82
   2   1   1  569.79   11.18
   2   1   1  555.82   16.76
   2   1   1  569.03   17.69
   2   1   1  519.25   15.24
   2   1   1  463.79   14.31
   2   1   1  552.27   15.75
  -2  -1  -2    9.99    4.74
  -2  -1  -2    7.03    3.30
  -2  -1  -2    6.86    3.89
  -2  -1  -2    7.11    3.30
  -2  -1  -2    4.40    3.47
  -2  -1  -2   15.07    5.00
  -2  -1  -2    9.40    3.56
   2   1   2   11.35    4.91
   2   1   2    8.30    3.30
   2   1   2    6.35    3.81
   2   1   2   11.43    4.57
   2   1   2   13.55    4.83
   2   1   2    6.77    3.05
   2   1   2    7.96    3.47
  -2  -1  -3  289.22   15.83
  -2  -1  -3  270.93   10.67
  -2  -1  -3  265.17   16.26
  -2  -1  -3  313.51   11.60
  -2  -1  -3  293.53   14.48
  -2  -1  -3  300.73   15.16
  -2  -1  -3  283.54   11.09
   2   1   3  246.12   15.07
   2   1   3  247.73   10.41
   2   1   3  268.47   12.87
   2   1   3  229.36   12.95
   2   1   3  254.25   13.72
   2   1   3  235.54   13.97
   2   1   3  228.68    9.99
   2   1   3  255.94   10.75
  -2  -1  -4   11.68    6.52
  -2  -1  -4   13.29    3.47
  -2  -1  -4   15.83    6.27
  -2  -1  -4    9.82    3.47
  -2  -1  -4    9.31    5.16
  -2  -1  -4   14.14    6.01
   2   1   4   12.28    6.35
   2   1   4   14.05    3.73
   2   1   4   13.80    3.56
   2   1   4   12.62    5.42
   2   1   4   11.60    5.08
   2   1   4    9.23    4.74
   2   1   4   14.56    6.35
   2   1   4    9.65    3.13
   2   1   4    6.69    3.22
  -2  -1  -5   84.24   13.12
  -2  -1  -5   72.47   13.04
  -2  -1  -5   60.45   10.16
  -2  -1  -5   56.05    9.82
  -2  -1  -5   78.40    9.57
   2   1   5   68.24   12.28
   2   1   5   64.26    5.16
   2   1   5   60.28    5.00
   2   1   5   67.82   10.58
   2   1   5   35.64    7.37
   2   1   5   56.98    9.06
   2   1   5   67.48   11.68
   2   1   5   54.86    4.74
   2   1   5   63.67    5.25
  -2  -1  -6  111.00   16.68
  -2  -1  -6   91.44   14.99
  -2  -1  -6  114.30   13.46
  -2  -1  -6  109.56   12.95
   2   1   6   80.35   14.05
   2   1   6  117.01   13.55
   2   1   6   -0.85    2.29
   2   1   6   84.16   10.41
   2   1   6  124.71   16.42
  -2  -1  -7   28.96   11.60
  -2  -1  -7   29.21   11.18
  -2  -1  -7   37.00   10.58
  -2  -1  -7   33.87   10.16
   2   1   7   24.64    9.40
   2   1   7   29.63   10.08
   2   1   7    0.93    3.98
   2   1   7   27.94    8.04
   2   1   7   31.16   10.84
  -2  -1  -8   36.49   13.55
  -2  -1  -8   36.66   12.02
  -2  -1  -8   39.37   11.51
  -2  -1  -8   41.91   11.43
   2   1   8   18.71   10.84
   2   1   8   34.80   11.60
   2   1   8   34.97   10.50
   2   1   8   43.18   13.04
  -2  -1  -9   14.05   12.02
  -2  -1  -9    9.65    8.55
  -2  -1  -9   13.63    9.74
   2   1   9   13.21   11.09
   2   1   9   14.31   10.41
   2   1   9    4.23    9.82
  -2  -1 -10    0.59   11.51
  -2  -1 -10   11.26   12.28
  -2  -1 -10   10.67   10.08
   2   1  10    5.00    9.48
   2   1  10   11.09   11.01
   2   1  10   11.94   11.85
  -2  -1 -11  106.68   23.96
  -2  -1 -11   87.88   21.67
  -2  -1 -11  104.56   21.76
   2   1  11  103.63   23.28
   2   1  11   84.41   19.81
   2   1  11  118.78   23.03
  -2  -1 -12   92.03   24.81
  -2  -1 -12   62.57   19.13
  -2  -1 -12   67.90   19.64
   2   1  12   40.47   17.36
   2   1  12   62.99   20.15
  -2  -2  13    0.93   14.14
  -2  -2  13   12.53   10.58
   2   2 -13   29.97   18.12
   2   2 -13   -2.29    8.21
  -2  -2  12   41.32   17.61
  -2  -2  12   58.00   16.42
  -2  -2  12   48.34   13.29
   2   2 -12   78.91   22.01
   2   2 -12   79.25   21.17
   2   2 -12   55.46   17.10
  -2  -2  11   96.18   21.25
  -2  -2  11   86.70   17.69
  -2  -2  11   90.51   15.24
   2   2 -11  156.21   25.57
   2   2 -11  117.94   22.69
   2   2 -11   97.62   19.56
  -2  -2  10  251.71   24.38
  -2  -2  10  266.10   23.28
  -2  -2  10  235.37   18.20
   2   2 -10  301.07   26.42
   2   2 -10  321.30   28.28
   2   2 -10  298.44   25.57
  -2  -2   9  129.88   20.66
  -2  -2   9  145.45   17.53
  -2  -2   9  119.80   13.04
   2   2  -9  162.73   23.37
   2   2  -9  154.94   22.27
   2   2  -9  164.08   20.23
   2   2  -9  183.30   19.98
  -2  -2   8   40.72   12.19
  -2  -2   8   55.71    9.74
  -2  -2   8   46.82    9.14
  -2  -2   8   59.60   12.70
  -2  -2   8   53.08    9.23
   2   2  -8   47.84    9.31
   2   2  -8   70.36   10.67
   2   2  -8   57.40   13.38
   2   2  -8   64.43   13.80
   2   2  -8   44.53    8.97
  -2  -2   7  490.38   26.92
  -2  -2   7  499.10   18.80
  -2  -2   7  555.32   21.93
  -2  -2   7  471.16   24.47
  -2  -2   7  458.38   17.53
   2   2  -7  523.65   21.42
   2   2  -7  543.72   19.56
   2   2  -7  552.78   27.69
   2   2  -7  457.02   24.89
   2   2  -7  421.12   19.13
  -2  -2   6    6.77    6.43
  -2  -2   6    2.29    3.47
  -2  -2   6    1.61    3.05
  -2  -2   6    5.42    5.50
  -2  -2   6    5.33    3.56
  -2  -2   6    5.59    3.39
   2   2  -6    3.73    4.15
   2   2  -6    2.62    3.13
   2   2  -6    8.81    6.43
   2   2  -6    3.64    5.67
   2   2  -6    2.29    2.88
   2   2  -6    2.12    4.06
  -2  -2   5  449.82   21.50
  -2  -2   5  434.58   18.63
  -2  -2   5  436.45   21.17
  -2  -2   5  423.24   12.87
   2   2  -5  440.68   18.88
   2   2  -5  425.36   12.95
   2   2  -5  550.32   23.54
   2   2  -5  411.89   20.15
   2   2  -5  455.07   13.97
   2   2  -5  413.50   18.29
  -2  -2   4   84.33   10.50
  -2  -2   4   74.67    5.33
  -2  -2   4   82.89    5.50
  -2  -2   4   74.59    9.06
  -2  -2   4   84.16   10.16
  -2  -2   4   78.74    8.97
  -2  -2   4   74.76    5.84
  -2  -2   4   91.86    6.01
   2   2  -4   84.58    9.57
   2   2  -4   66.72    5.08
   2   2  -4  121.75   11.18
   2   2  -4   74.08    8.97
   2   2  -4   87.97    7.54
   2   2  -4   75.10    9.99
  -2  -2   3  369.82   16.85
  -2  -2   3  393.35    9.40
  -2  -2   3  334.00   15.66
  -2  -2   3  376.76   17.10
  -2  -2   3  341.28   15.92
  -2  -2   3  338.74   10.24
  -2  -2   3  382.85   10.75
  -2  -2   3  359.32   16.00
   2   2  -3  422.65    9.74
   2   2  -3  319.78   14.99
   2   2  -3  483.61   17.36
   2   2  -3  336.20   15.83
   2   2  -3  390.39   14.31
   2   2  -3  311.57   14.90
  -2  -2   2  333.49   14.82
  -2  -2   2  319.36    9.40
  -2  -2   2  276.77   13.80
  -2  -2   2  268.90   13.63
  -2  -2   2  308.26   14.39
  -2  -2   2  285.15   10.08
  -2  -2   2  306.06   14.31
   2   2  -2  293.19    8.89
   2   2  -2  269.06   13.63
   2   2  -2  376.17   13.29
   2   2  -2  311.40   13.21
   2   2  -2  272.71   13.80
  -2  -2   1  209.29   11.60
  -2  -2   1  197.35    8.97
  -2  -2   1  198.29   11.60
  -2  -2   1  181.18   10.75
  -2  -2   1  176.53   10.24
  -2  -2   1  224.28   10.16
  -2  -2   1  178.98   10.58
   2   2  -1  183.72    8.55
   2   2  -1  161.71   10.58
   2   2  -1  246.37    9.65
   2   2  -1  180.00   10.58
   2   2  -1  166.20   10.84
  -2  -2   0   63.75    7.45
  -2  -2   0   51.05    6.18
  -2  -2   0   51.73    7.37
  -2  -2   0   63.33    6.77
  -2  -2   0   50.29    6.10
  -2  -2   0   69.76    6.94
  -2  -2   0   53.25    6.60
   2   2   0   51.22    6.10
   2   2   0   48.17    7.11
   2   2   0   73.91    5.67
   2   2   0   53.17    5.93
   2   2   0   57.15    8.30
   2   2   0   58.67    6.10
   2   2   0   52.49    6.43
   2   2   0   50.04    7.28
  -2  -2  -1   47.07    7.96
  -2  -2  -1   54.78    8.13
  -2  -2  -1   48.34    7.11
  -2  -2  -1   45.13    6.69
  -2  -2  -1   63.58    7.79
  -2  -2  -1   45.04    6.77
   2   2   1   50.46    8.13
   2   2   1   53.00    7.37
   2   2   1   61.13    6.01
   2   2   1   55.20    7.37
   2   2   1   38.61    7.11
   2   2   1   44.45    7.03
   2   2   1   50.97    6.27
   2   2   1   44.36    6.86
  -2  -2  -2  112.86   11.35
  -2  -2  -2   94.57   10.75
  -2  -2  -2   96.86    8.30
  -2  -2  -2  106.09    9.06
  -2  -2  -2  124.12   10.67
  -2  -2  -2   99.23    8.38
   2   2   2   84.58    9.31
   2   2   2   98.30    7.96
   2   2   2  116.58    9.14
   2   2   2    0.85    1.61
   2   2   2   99.31   10.41
   2   2   2  110.06   10.24
   2   2   2  105.15    8.04
   2   2   2   90.00    8.21
  -2  -2  -3  158.75   13.89
  -2  -2  -3  133.35   12.28
  -2  -2  -3  146.72    9.06
  -2  -2  -3  128.35   10.33
  -2  -2  -3  171.11   12.70
   2   2   3  135.89   13.12
   2   2   3  153.67    9.31
   2   2   3  162.30   11.35
   2   2   3  151.72   10.84
   2   2   3  134.87   12.02
   2   2   3  167.21   13.29
   2   2   3  144.44    8.89
   2   2   3  145.54    9.31
  -2  -2  -4  202.43   16.51
  -2  -2  -4  140.20   14.31
  -2  -2  -4  198.03    9.48
  -2  -2  -4  181.35   12.45
  -2  -2  -4  199.47   14.05
   2   2   4  138.51   13.55
   2   2   4  155.28    8.64
   2   2   4  185.75   13.89
   2   2   4  164.17   11.68
   2   2   4  147.06   12.87
   2   2   4  194.05   14.99
   2   2   4  164.59    8.72
   2   2   4  165.86    8.97
  -2  -2  -5   -0.25    4.91
  -2  -2  -5   -1.61    4.40
  -2  -2  -5    5.42    5.08
   2   2   5   -0.76    4.15
   2   2   5    5.25    5.33
   2   2   5   -4.40    3.47
   2   2   5    3.81    5.25
   2   2   5    5.84    6.43
   2   2   5   -0.17    2.37
  -2  -2  -6  117.26   18.20
  -2  -2  -6   97.53   17.10
  -2  -2  -6   93.72   12.95
   2   2   6   55.96   13.38
   2   2   6  102.02   15.16
   2   2   6   78.48   12.11
   2   2   6   76.11   12.45
   2   2   6  107.35   16.59
  -2  -2  -7    7.28    9.74
  -2  -2  -7    5.50    7.03
  -2  -2  -7    1.95    6.10
  -2  -2  -7    4.32    6.43
   2   2   7    5.93    6.86
   2   2   7   10.67    7.96
   2   2   7    4.57    6.35
   2   2   7    1.86    5.08
   2   2   7   -3.22    7.37
  -2  -2  -8   52.49   16.09
  -2  -2  -8   38.35   13.63
  -2  -2  -8   45.30   12.53
   2   2   8   41.99   14.56
   2   2   8   59.94   14.31
   2   2   8   44.11   13.38
  -2  -2  -9    0.85   10.84
  -2  -2  -9   -2.79    9.99
  -2  -2  -9   -0.68    8.55
   2   2   9   -5.33    8.89
   2   2   9    1.86    9.57
   2   2   9    3.30    9.82
  -2  -2 -10  210.31   30.48
  -2  -2 -10  175.00   27.85
   2   2  10  193.12   29.97
   2   2  10  216.74   25.65
   2   2  10  255.35   27.94
  -2  -2 -11    3.98   14.05
  -2  -2 -11    8.30   13.12
  -2  -2 -11   12.45   11.43
   2   2  11   20.66   14.05
   2   2  11   17.95   13.04
   2   2  11   -1.27   11.01
  -2  -3  13   51.90   18.12
  -2  -3  13   58.08   18.29
  -2  -3  13   45.21   14.05
   2   3 -13   91.44   23.79
   2   3 -13   81.45   23.28
   2   3 -13   64.26   19.56
  -2  -3  12  157.65   27.26
  -2  -3  12  161.37   26.16
  -2  -3  12  162.39   19.39
   2   3 -12  222.25   32.43
   2   3 -12  194.64   30.14
   2   3 -12  154.26   25.99
  -2  -3  11    4.06    9.14
  -2  -3  11    0.00    8.47
  -2  -3  11   -1.19    6.86
   2   3 -11    4.15    8.89
   2   3 -11    7.28   12.02
   2   3 -11    1.35   10.08
  -2  -3  10   43.43   15.32
  -2  -3  10   36.24   12.95
  -2  -3  10   23.37    8.89
   2   3 -10   37.25   13.97
   2   3 -10   37.17   13.80
  -2  -3   9    1.78    8.47
  -2  -3   9    2.29    5.76
  -2  -3   9   -0.85    6.94
  -2  -3   9    3.64    5.67
   2   3  -9    1.52    6.60
   2   3  -9   -1.19    5.50
   2   3  -9   10.33    9.99
   2   3  -9    0.59    5.93
  -2  -3   8  415.20   27.52
  -2  -3   8  376.50   20.83
  -2  -3   8  396.15   25.23
  -2  -3   8  367.02   18.96
   2   3  -8  372.44   21.17
   2   3  -8  486.57   29.38
   2   3  -8  403.17   25.74
   2   3  -8  401.23   22.01
  -2  -3   7   19.30    9.23
  -2  -3   7   22.94    6.43
  -2  -3   7   16.42    6.43
  -2  -3   7   27.94    9.74
  -2  -3   7   13.97    5.67
   2   3  -7   16.85    7.54
   2   3  -7   29.21    5.76
   2   3  -7   22.18    8.13
   2   3  -7   16.68    8.81
   2   3  -7   21.25    7.70
  -2  -3   6    2.37    4.49
  -2  -3   6    4.06    2.54
  -2  -3   6    5.25    5.42
  -2  -3   6    1.35    5.42
  -2  -3   6    0.93    3.64
  -2  -3   6    3.56    3.56
   2   3  -6    0.59    4.32
   2   3  -6    2.20    2.29
   2   3  -6    0.42    4.40
   2   3  -6    3.56    4.66
   2   3  -6    3.13    3.05
   2   3  -6    0.17    4.32
  -2  -3   5  202.01   15.41
  -2  -3   5  173.99   13.80
  -2  -3   5  178.47   15.24
  -2  -3   5  163.06   10.50
  -2  -3   5  205.74   11.26
   2   3  -5  226.31    5.59
   2   3  -5  186.43   14.39
   2   3  -5  177.46    4.91
   2   3  -5  239.35   16.68
   2   3  -5  167.89   14.14
   2   3  -5  176.44   10.24
   2   3  -5  187.53   14.48
  -2  -3   4    2.29    5.08
  -2  -3   4    0.59    4.23
  -2  -3   4   -0.42    4.49
  -2  -3   4    0.42    3.47
  -2  -3   4    1.35    3.56
  -2  -3   4    6.43    3.81
   2   3  -4    1.27    3.81
   2   3  -4    1.78    4.83
   2   3  -4    0.76    3.56
   2   3  -4    4.23    3.81
   2   3  -4    3.30    5.25
  -2  -3   3  200.32   14.48
  -2  -3   3  225.55    6.35
  -2  -3   3  180.17   13.04
  -2  -3   3  184.99   13.72
  -2  -3   3  180.34   13.55
  -2  -3   3  185.84   10.84
   2   3  -3  180.08    5.67
   2   3  -3  205.65   14.56
   2   3  -3  227.16   13.72
   2   3  -3  183.81   13.80
   2   3  -3  182.45   11.68
   2   3  -3  203.03   14.56
  -2  -3   2  640.57   22.69
  -2  -3   2  622.29   14.22
  -2  -3   2  539.65   21.00
  -2  -3   2  578.01   20.91
  -2  -3   2  596.97   21.50
  -2  -3   2  568.86   18.03
   2   3  -2  548.97   13.38
   2   3  -2  601.46   22.61
   2   3  -2  766.22   21.67
   2   3  -2  543.97   20.74
   2   3  -2  516.12   19.47
   2   3  -2  625.17   23.11
  -2  -3   1   85.00   11.35
  -2  -3   1   69.93    7.03
  -2  -3   1   71.29   10.08
  -2  -3   1   79.92    8.81
  -2  -3   1   65.11    8.04
  -2  -3   1   72.22    8.30
   2   3  -1   56.89    6.52
   2   3  -1   60.20    9.48
   2   3  -1   78.82    7.96
   2   3  -1   62.23    9.65
   2   3  -1   78.57    7.96
   2   3  -1   53.25    9.06
  -2  -3   0  861.30   26.84
  -2  -3   0  767.49   22.27
  -2  -3   0  798.14   24.38
  -2  -3   0  948.75   24.64
  -2  -3   0  826.24   22.77
  -2  -3   0  936.99   25.40
   2   3   0  713.47   21.42
   2   3   0  714.99   23.11
   2   3   0 1039.18   23.79
   2   3   0  683.67   24.38
   2   3   0  837.93   23.03
   2   3   0  716.01   23.28
  -2  -3  -1  166.54   13.80
  -2  -3  -1  155.95   11.68
  -2  -3  -1  165.10   11.68
  -2  -3  -1  192.53   11.94
  -2  -3  -1  147.82   10.16
  -2  -3  -1  179.49   12.87
  -2  -3  -1  160.27   11.43
   2   3   1  143.00   11.94
   2   3   1  167.55   12.28
   2   3   1  204.38   12.02
   2   3   1   69.43    7.37
   2   3   1  131.15   11.77
   2   3   1  167.47   12.28
   2   3   1  176.27   12.62
  -2  -3  -2  111.00   12.45
  -2  -3  -2  127.25   12.53
  -2  -3  -2  130.38    9.99
  -2  -3  -2  111.93    8.97
  -2  -3  -2  154.60   12.78
  -2  -3  -2  136.06   10.50
   2   3   2  119.46   12.28
   2   3   2  115.57    9.82
   2   3   2  143.34   10.92
   2   3   2  136.14   10.08
   2   3   2  100.75   10.84
   2   3   2  121.41   11.68
   2   3   2  132.59   10.16
   2   3   2  119.29   10.24
  -2  -3  -3  120.99   12.78
  -2  -3  -3   92.37   11.26
  -2  -3  -3  118.19    9.23
  -2  -3  -3   93.13    8.81
  -2  -3  -3  152.06   12.87
  -2  -3  -3  102.44    8.81
   2   3   3   95.59   11.43
   2   3   3  111.67    9.31
   2   3   3  116.16   11.01
   2   3   3  116.41    9.65
   2   3   3  110.66   12.45
   2   3   3  106.42   11.77
   2   3   3  105.66    8.81
   2   3   3  105.83    9.48
  -2  -3  -4  183.55   16.59
  -2  -3  -4  165.01   16.59
  -2  -3  -4  186.77   10.67
  -2  -3  -4  175.51   11.94
  -2  -3  -4  216.91   15.66
   2   3   4  150.53   16.00
   2   3   4  156.55    9.99
   2   3   4  203.36   15.83
   2   3   4  175.85   12.19
   2   3   4  131.65   14.05
   2   3   4  213.10   16.76
   2   3   4  185.42   10.67
   2   3   4  172.55   10.58
  -2  -3  -5   14.73    9.65
  -2  -3  -5   18.71    9.57
  -2  -3  -5   16.26    6.27
   2   3   5   17.95    8.97
   2   3   5   26.75    8.81
   2   3   5   22.52    6.94
   2   3   5   20.66    8.13
   2   3   5   23.45    9.31
  -2  -3  -6  127.00   20.15
  -2  -3  -6  134.11   20.66
   2   3   6  119.63   19.47
   2   3   6  181.78   17.78
   2   3   6  131.91   15.49
   2   3   6  147.23   17.53
  -2  -3  -7    3.30    7.79
  -2  -3  -7    4.32    6.77
   2   3   7    2.29    8.72
   2   3   7    7.45    8.13
   2   3   7    5.84    8.21
   2   3   7    4.32    8.47
  -2  -3  -8   55.54   17.27
  -2  -3  -8   35.64   13.46
   2   3   8   36.07   14.73
   2   3   8   44.28   13.80
   2   3   8   62.31   16.59
  -2  -3  -9  117.51   24.04
  -2  -3  -9  116.92   23.03
  -2  -3  -9  111.16   20.57
   2   3   9   77.30   18.96
   2   3   9   90.51   19.05
   2   3   9   92.96   19.47
  -2  -3 -10   21.84   14.22
  -2  -3 -10   33.70   14.65
  -2  -3 -10   32.77   14.56
   2   3  10   18.03   13.97
   2   3  10   45.13   16.26
   2   3  10   33.61   15.58
  -2  -3 -11   13.55   17.10
  -2  -3 -11   17.44   16.26
  -2  -3 -11   20.49   13.46
   2   3  11    8.13   14.05
   2   3  11   19.39   14.22
   2   3  11   13.89   14.73
  -2  -4  13   58.50   20.49
  -2  -4  13   49.11   17.86
  -2  -4  13   40.98   14.05
   2   4 -13   51.98   20.40
   2   4 -13   55.03   18.29
   2   4 -13   53.25   19.47
  -2  -4  12   37.08   16.51
  -2  -4  12   23.79   13.55
  -2  -4  12   29.89   11.68
   2   4 -12   37.08   17.19
   2   4 -12   35.05   17.02
   2   4 -12   28.36   14.73
  -2  -4  11   34.71   15.24
  -2  -4  11   37.51   13.63
  -2  -4  11   42.59   11.85
   2   4 -11   55.62   17.36
   2   4 -11   38.35   14.31
  -2  -4  10  119.12   21.25
  -2  -4  10  110.66   20.23
  -2  -4  10   87.46   15.07
   2   4 -10  107.19   21.08
   2   4 -10   86.02   18.37
  -2  -4   9  184.82   22.10
  -2  -4   9  217.00   22.35
  -2  -4   9  184.40   16.76
   2   4  -9  160.95   17.36
   2   4  -9  230.97   23.54
   2   4  -9  187.02   20.40
   2   4  -9  211.41   19.13
  -2  -4   8    7.62    9.06
  -2  -4   8   10.08    6.43
  -2  -4   8    6.18    7.96
  -2  -4   8    9.31    6.77
   2   4  -8    7.62    6.94
   2   4  -8   12.53    9.74
   2   4  -8   12.53    9.74
   2   4  -8   14.14    8.38
  -2  -4   7   53.93   12.45
  -2  -4   7   50.63   11.18
  -2  -4   7   32.00   10.58
  -2  -4   7   49.44    9.57
   2   4  -7   53.51   11.43
   2   4  -7   75.27   14.99
   2   4  -7   58.50   13.63
   2   4  -7   47.67   11.09
  -2  -4   6  130.55   15.41
  -2  -4   6  117.68   13.55
  -2  -4   6  134.02   15.32
  -2  -4   6  116.84   11.43
   2   4  -6  141.73   14.65
   2   4  -6  137.50   15.41
   2   4  -6  107.27   15.83
   2   4  -6  121.24    9.57
   2   4  -6  131.74   14.31
  -2  -4   5   71.20   12.78
  -2  -4   5   55.88   11.09
  -2  -4   5   61.55   11.85
  -2  -4   5   63.84    9.48
   2   4  -5   63.24   11.77
   2   4  -5   89.49   13.72
   2   4  -5   76.11   13.21
   2   4  -5   56.56    8.38
   2   4  -5   64.85   11.85
  -2  -4   4   80.09   12.70
  -2  -4   4   73.40   11.85
  -2  -4   4   87.97   12.87
  -2  -4   4   99.06   11.18
  -2  -4   4   90.93    9.48
   2   4  -4   68.32   11.77
   2   4  -4  106.25   11.94
   2   4  -4   76.37   11.94
   2   4  -4   74.76    8.81
   2   4  -4   76.45   12.36
  -2  -4   3  766.13   28.53
  -2  -4   3  793.56   13.63
  -2  -4   3  640.15   25.82
  -2  -4   3  771.47   27.60
  -2  -4   3  763.76   27.52
  -2  -4   3  715.84   23.45
   2   4  -3  643.20   12.19
   2   4  -3  629.23   25.91
   2   4  -3  871.46   27.69
   2   4  -3  682.40   26.16
   2   4  -3  643.96   23.28
   2   4  -3  651.67   26.50
  -2  -4   2   87.20   12.36
  -2  -4   2   67.48    6.43
  -2  -4   2   65.87   10.75
  -2  -4   2   76.79   10.92
  -2  -4   2   82.89   11.35
  -2  -4   2   79.50   10.84
   2   4  -2   61.38    6.18
   2   4  -2   66.55   11.01
   2   4  -2   84.24    9.91
   2   4  -2   76.45   10.84
   2   4  -2   54.19    9.65
   2   4  -2   74.08    8.21
   2   4  -2   62.74   10.50
  -2  -4   1  880.43   30.06
  -2  -4   1  822.86   22.44
  -2  -4   1  762.32   27.18
  -2  -4   1  865.53   26.08
  -2  -4   1  876.11   26.25
  -2  -4   1  894.31   27.18
   2   4  -1  694.59   20.74
   2   4  -1  855.54   28.87
   2   4  -1 1048.40   28.02
   2   4  -1  811.51   25.31
   2   4  -1  706.02   26.58
   2   4  -1  877.21   24.89
   2   4  -1  867.22   29.12
  -2  -4   0   80.35   12.53
  -2  -4   0   57.06    9.06
  -2  -4   0   61.38    9.82
  -2  -4   0   74.34    8.55
  -2  -4   0   62.31    8.72
  -2  -4   0   85.43   11.77
   2   4   0   58.67    9.06
   2   4   0   54.52    9.82
   2   4   0   74.93    8.97
   2   4   0   53.00   10.16
   2   4   0   74.34   10.33
   2   4   0   57.06   10.16
  -2  -4  -1  347.13   20.07
  -2  -4  -1  275.50   17.02
  -2  -4  -1  271.86   15.92
  -2  -4  -1  338.91   15.49
  -2  -4  -1  322.23   14.99
  -2  -4  -1  355.51   18.96
   2   4   1  279.31   16.93
   2   4   1  298.36   17.02
   2   4   1  374.13   18.03
   2   4   1  329.77   15.24
   2   4   1  294.80   19.13
   2   4   1  316.90   17.53
   2   4   1  320.20   17.69
  -2  -4  -2   28.11    9.48
  -2  -4  -2   26.50    7.87
  -2  -4  -2   27.52    6.86
  -2  -4  -2   29.72    6.35
  -2  -4  -2   32.68    8.38
   2   4   2   15.07    7.03
   2   4   2   22.35    6.52
   2   4   2   24.04    7.11
   2   4   2   26.58    6.10
   2   4   2   18.37    7.96
   2   4   2   32.00    8.47
   2   4   2   22.35    6.43
  -2  -4  -3  119.63   14.39
  -2  -4  -3  109.56   15.92
  -2  -4  -3  108.46   10.41
  -2  -4  -3  112.01    9.82
  -2  -4  -3  130.21   13.80
   2   4   3   93.39   15.07
   2   4   3  119.63   11.01
   2   4   3  138.68   13.80
   2   4   3  115.65    9.82
   2   4   3   72.98   12.78
   2   4   3  107.52   13.12
   2   4   3  114.04   11.18
  -2  -4  -4  312.92   23.96
  -2  -4  -4  284.22   22.52
  -2  -4  -4  310.21   15.32
  -2  -4  -4  306.57   15.41
   2   4   4  237.91   19.90
   2   4   4  340.44   21.17
   2   4   4  292.26   15.16
   2   4   4  275.41   21.08
   2   4   4  302.00   21.25
  -2  -4  -5   23.71   11.68
  -2  -4  -5   25.40    9.99
   2   4   5   35.56   11.26
   2   4   5   35.14   10.41
   2   4   5   26.08   10.08
   2   4   5   46.06   12.19
  -2  -4  -6  342.47   28.62
  -2  -4  -6  331.72   27.35
   2   4   6  281.09   24.38
   2   4   6  357.79   25.06
   2   4   6  306.99   24.72
   2   4   6  314.70   24.64
  -2  -4  -7    0.51   10.67
  -2  -4  -7   -1.10    8.64
   2   4   7    6.69    9.91
   2   4   7    5.50    8.47
   2   4   7   -2.79    6.69
   2   4   7    0.93    8.81
  -2  -4  -8   42.84   17.53
  -2  -4  -8   36.74   15.41
   2   4   8   27.01   14.05
   2   4   8   39.37   13.55
   2   4   8   59.60   16.85
  -2  -4  -9   38.95   17.53
  -2  -4  -9   31.58   15.66
  -2  -4  -9   43.52   14.56
   2   4   9   29.12   16.34
   2   4   9   29.89   13.21
   2   4   9   32.17   14.90
  -2  -4 -10    5.08   15.75
  -2  -4 -10   -4.74   13.04
  -2  -4 -10    7.28   10.58
   2   4  10    0.51    9.06
   2   4  10   17.53   12.62
   2   4  10    0.42   12.11
  -2  -5  13   38.27   18.88
  -2  -5  13   31.07   16.09
  -2  -5  13   19.30   12.11
   2   5 -13   45.21   19.13
   2   5 -13   37.85   18.63
   2   5 -13   39.37   18.63
  -2  -5  12   11.94   14.56
  -2  -5  12    7.70   11.85
  -2  -5  12   17.10   10.67
   2   5 -12    9.57   12.95
   2   5 -12   25.57   15.75
  -2  -5  11  118.62   23.71
  -2  -5  11   96.94   20.91
  -2  -5  11  103.97   17.69
   2   5 -11  114.81   23.28
   2   5 -11  129.54   24.47
  -2  -5  10   23.62   13.12
  -2  -5  10    5.33    6.10
  -2  -5  10   14.05    9.48
  -2  -5  10   11.68    8.89
   2   5 -10    9.91    9.48
   2   5 -10   33.78   13.12
   2   5 -10   26.84   13.46
  -2  -5   9  158.66   24.04
  -2  -5   9  149.94   18.12
  -2  -5   9  171.87   19.98
  -2  -5   9  160.44   17.27
   2   5  -9  144.78   20.15
   2   5  -9  183.55   22.69
   2   5  -9  188.46   22.94
   2   5  -9  143.25   20.23
  -2  -5   8   48.26   13.97
  -2  -5   8   35.05   10.92
  -2  -5   8   27.77   10.67
  -2  -5   8   39.12   10.75
   2   5  -8   43.94   11.68
   2   5  -8   41.49   13.46
   2   5  -8   49.53   14.48
   2   5  -8   22.27   10.67
  -2  -5   7  529.16   30.06
  -2  -5   7  518.49   28.36
  -2  -5   7  555.91   31.58
  -2  -5   7  471.84   23.62
   2   5  -7  450.67   26.84
   2   5  -7  626.77   32.09
   2   5  -7  458.97   28.36
   2   5  -7  437.38   26.50
  -2  -5   6   31.24   10.50
  -2  -5   6   33.70    9.91
  -2  -5   6   41.40   10.92
  -2  -5   6   36.49    9.40
   2   5  -6   31.41    9.91
   2   5  -6   49.02   11.51
   2   5  -6   27.52    9.48
   2   5  -6   32.93    7.45
   2   5  -6   34.04   10.24
  -2  -5   5  107.86   16.59
  -2  -5   5   85.93   14.90
  -2  -5   5   93.13   14.73
  -2  -5   5   96.77   11.51
   2   5  -5   96.43   15.07
   2   5  -5  128.18   17.27
   2   5  -5   85.68   14.56
   2   5  -5   87.88   10.16
   2   5  -5   67.99   13.29
  -2  -5   4  190.83   16.42
  -2  -5   4  187.19   16.17
  -2  -5   4  199.81   16.85
  -2  -5   4  182.37   14.73
   2   5  -4  167.98   15.49
   2   5  -4  206.50   16.68
   2   5  -4  177.46   16.09
   2   5  -4  164.93   13.63
   2   5  -4  157.31   15.24
  -2  -5   3   49.70   10.92
  -2  -5   3   56.30    5.42
  -2  -5   3   47.92   10.16
  -2  -5   3   51.98   10.33
  -2  -5   3   42.76    9.74
  -2  -5   3   59.43   10.41
   2   5  -3   41.06    4.74
   2   5  -3   42.33   10.67
   2   5  -3   64.51   11.51
   2   5  -3   54.10   10.75
   2   5  -3   45.30    9.48
   2   5  -3   58.33    8.72
   2   5  -3   42.25   10.50
  -2  -5   2  141.98   14.73
  -2  -5   2  125.30    9.23
  -2  -5   2  115.99   12.62
  -2  -5   2  133.43   12.62
  -2  -5   2  136.06   12.70
  -2  -5   2  129.88   12.70
   2   5  -2   93.98    8.30
   2   5  -2  100.07   14.56
   2   5  -2  155.95   13.72
   2   5  -2  122.76   11.60
   2   5  -2  100.41   12.36
   2   5  -2  121.49   11.09
   2   5  -2   98.89   14.56
  -2  -5   1  466.08   24.72
  -2  -5   1  429.34   18.46
  -2  -5   1  430.27   22.86
  -2  -5   1  498.76   21.50
  -2  -5   1  461.08   20.66
  -2  -5   1  503.76   23.28
   2   5  -1  378.96   17.44
   2   5  -1  355.93   21.00
   2   5  -1  550.15   23.71
   2   5  -1  438.48   20.23
   2   5  -1  395.55   22.01
   2   5  -1  452.28   20.49
   2   5  -1  401.48   22.27
  -2  -5   0  207.26   17.69
  -2  -5   0  178.39   13.80
  -2  -5   0  189.23   15.49
  -2  -5   0  225.97   14.56
  -2  -5   0  224.87   14.39
  -2  -5   0  236.30   16.93
   2   5   0  185.84   14.39
   2   5   0  205.82   16.26
   2   5   0  270.42   17.53
   2   5   0  215.22   14.22
   2   5   0  190.92   17.10
   2   5   0  205.14   15.24
   2   5   0  207.26   16.51
  -2  -5  -1  507.31   27.35
  -2  -5  -1  440.68   22.86
  -2  -5  -1  470.91   22.86
  -2  -5  -1  570.22   21.17
  -2  -5  -1  506.30   19.81
  -2  -5  -1  564.46   25.48
   2   5   1  409.02   22.10
   2   5   1  505.53   24.13
   2   5   1  567.09   24.55
   2   5   1  505.87   19.81
   2   5   1  442.29   25.48
   2   5   1  515.02   24.21
   2   5   1  498.42   24.04
  -2  -5  -2  294.89   22.69
  -2  -5  -2  242.23   19.39
  -2  -5  -2  306.83   18.63
  -2  -5  -2  286.76   14.82
  -2  -5  -2  310.38   20.07
   2   5   2  244.77   19.13
   2   5   2  261.78   17.19
   2   5   2  333.58   20.49
   2   5   2  284.30   14.73
   2   5   2  233.08   19.22
   2   5   2  309.20   20.40
   2   5   2  249.42   17.10
  -2  -5  -3  366.26   26.33
  -2  -5  -3  343.74   24.21
  -2  -5  -3  365.07   19.47
   2   5   3  323.84   23.54
   2   5   3  374.13   19.98
   2   5   3  404.11   23.28
   2   5   3  314.70   23.71
   2   5   3  352.88   23.03
   2   5   3  367.11   20.07
  -2  -5  -4  147.06   21.67
  -2  -5  -4  166.37   19.39
   2   5   4  140.97   20.66
   2   5   4  164.42   17.27
   2   5   4  145.88   17.02
   2   5   4  175.43   18.63
  -2  -5  -5   10.33    9.48
  -2  -5  -5    6.43    7.62
   2   5   5   11.43    9.99
   2   5   5    7.87    8.72
   2   5   5    2.29    8.38
   2   5   5   18.63   10.50
  -2  -5  -6   48.26   15.07
  -2  -5  -6   53.76   15.83
   2   5   6   39.12   14.22
   2   5   6   68.24   16.00
   2   5   6   57.49   14.82
  -2  -5  -7   -4.83   10.84
  -2  -5  -7   -5.50    7.79
   2   5   7   -2.46    8.72
   2   5   7    2.29    8.30
   2   5   7    0.00    8.21
   2   5   7    3.73   10.08
  -2  -5  -8   63.84   19.22
  -2  -5  -8   50.21   18.12
   2   5   8   62.23   18.80
   2   5   8   64.09   16.68
   2   5   8   68.07   18.63
  -2  -5  -9  -12.19   12.62
  -2  -5  -9   -0.93   12.87
   2   5   9    7.79   12.62
   2   5   9   -7.37    8.64
   2   5   9    9.31   14.82
  -2  -6  13   23.62   17.44
  -2  -6  13   12.95   13.55
  -2  -6  13   39.20   14.39
   2   6 -13   40.39   20.07
   2   6 -13   36.32   16.51
  -2  -6  12   40.30   16.85
  -2  -6  12   26.92   14.90
  -2  -6  12   38.44   13.80
   2   6 -12   36.66   16.76
   2   6 -12   40.47   18.63
  -2  -6  11    5.16   11.18
  -2  -6  11   11.60    9.57
  -2  -6  11    9.91    9.74
   2   6 -11   12.02   12.62
   2   6 -11   11.51   13.55
  -2  -6  10   91.78   20.15
  -2  -6  10   80.26   16.68
  -2  -6  10   74.76   19.05
  -2  -6  10   92.71   17.10
   2   6 -10   88.81   18.03
   2   6 -10  109.47   22.69
   2   6 -10   86.87   20.91
   2   6 -10   70.61   16.09
  -2  -6   9   67.90   17.27
  -2  -6   9   79.92   16.51
  -2  -6   9   58.59   16.09
  -2  -6   9   37.85   11.18
   2   6  -9   44.70   13.55
   2   6  -9   84.66   19.56
   2   6  -9   63.41   16.00
   2   6  -9   58.84   14.65
  -2  -6   8   72.64   16.09
  -2  -6   8   74.59   15.49
  -2  -6   8   87.88   17.53
  -2  -6   8   62.91   12.87
   2   6  -8   77.72   16.85
   2   6  -8   94.82   18.80
   2   6  -8   76.96   16.76
   2   6  -8   68.66   15.58
  -2  -6   7  192.27   21.25
  -2  -6   7  198.29   20.32
  -2  -6   7  179.57   20.83
  -2  -6   7  160.52   17.10
   2   6  -7  173.14   19.64
   2   6  -7  225.12   22.35
   2   6  -7  179.40   21.25
   2   6  -7  190.83   20.49
  -2  -6   6  105.83   18.20
  -2  -6   6  104.56   17.78
  -2  -6   6   78.40   15.66
  -2  -6   6   86.27   14.14
   2   6  -6   81.28   15.92
   2   6  -6  134.02   19.98
   2   6  -6   77.55   15.83
   2   6  -6   77.72   12.02
   2   6  -6   95.67   16.93
  -2  -6   5  190.83   19.64
  -2  -6   5  165.35   18.20
  -2  -6   5  167.21   17.95
  -2  -6   5  186.43   16.85
   2   6  -5  181.86   18.12
   2   6  -5  217.08   19.64
   2   6  -5  150.03   16.34
   2   6  -5  145.71   14.05
   2   6  -5  159.68   17.10
  -2  -6   4  392.42   25.65
  -2  -6   4  325.79   23.71
  -2  -6   4  392.68   24.30
  -2  -6   4  364.74   21.84
   2   6  -4  376.84   23.62
   2   6  -4  283.12   21.00
   2   6  -4  319.69   20.49
   2   6  -4  276.43   22.10
  -2  -6   3   33.44   10.50
  -2  -6   3   24.81    9.40
  -2  -6   3   52.07   11.35
  -2  -6   3   43.26   10.50
   2   6  -3   27.35    6.01
   2   6  -3   29.21    9.74
   2   6  -3   61.97   12.45
   2   6  -3   41.99   10.50
   2   6  -3   34.12    9.74
   2   6  -3   35.39   10.08
  -2  -6   2   38.01   11.18
  -2  -6   2   62.23    9.31
  -2  -6   2   57.15   12.70
  -2  -6   2   59.86   11.09
  -2  -6   2   71.12   12.11
  -2  -6   2   53.00   11.68
   2   6  -2   41.66    7.79
   2   6  -2   38.18   10.16
   2   6  -2   70.86   12.78
   2   6  -2   67.90   11.68
   2   6  -2   59.52   12.62
   2   6  -2   41.40   10.58
  -2  -6   1   55.46   13.21
  -2  -6   1   50.29    9.91
  -2  -6   1   46.82   11.60
  -2  -6   1   49.70    9.74
  -2  -6   1   53.59   10.24
  -2  -6   1   53.93   12.02
   2   6  -1   46.48    9.31
   2   6  -1   27.85    9.74
   2   6  -1   60.20   11.85
   2   6  -1   51.65   10.08
   2   6  -1   47.24   11.77
   2   6  -1   58.16   11.94
   2   6  -1   45.13   11.43
  -2  -6   0  212.17   19.13
  -2  -6   0  188.97   16.09
  -2  -6   0  174.49   17.02
  -2  -6   0  213.27   15.41
  -2  -6   0  216.83   15.32
  -2  -6   0  234.18   18.71
   2   6   0  181.44   15.24
   2   6   0  149.94   16.00
   2   6   0  246.80   18.71
   2   6   0  205.65   14.90
   2   6   0  165.01   18.03
   2   6   0  204.72   17.44
   2   6   0  168.31   17.02
  -2  -6  -1   31.24   10.84
  -2  -6  -1   32.68    9.91
  -2  -6  -1   34.29    9.74
  -2  -6  -1   36.91    8.30
  -2  -6  -1   35.14    8.13
  -2  -6  -1   29.97    9.91
   2   6   1   34.04    9.40
   2   6   1   30.23    9.82
   2   6   1   42.93   10.67
   2   6   1   26.92    7.03
   2   6   1   32.77    7.54
   2   6   1   30.23   11.01
   2   6   1   31.50   10.16
   2   6   1   26.84    9.57
  -2  -6  -2  314.95   25.82
  -2  -6  -2  281.51   22.10
  -2  -6  -2  273.13   19.98
   2   6   2  308.94   22.86
   2   6   2  332.48   21.93
   2   6   2  335.61   22.52
   2   6   2  252.39   22.94
   2   6   2  323.33   23.03
   2   6   2  295.06   21.17
  -2  -6  -3   97.87   18.88
  -2  -6  -3   94.32   17.86
  -2  -6  -3   84.66   13.29
   2   6   3   96.77   16.93
   2   6   3   92.03   14.65
   2   6   3  126.91   18.29
   2   6   3   69.17   15.75
   2   6   3  104.82   17.36
   2   6   3   87.46   15.58
  -2  -6  -4   -0.34    9.91
  -2  -6  -4    4.57    8.55
   2   6   4    6.94    8.64
   2   6   4    7.20    8.04
   2   6   4    6.01    8.81
   2   6   4   15.41   10.41
  -2  -6  -5   73.74   18.80
  -2  -6  -5   72.64   17.02
   2   6   5   67.48   16.93
   2   6   5   96.35   18.37
   2   6   5   46.48   14.90
   2   6   5   70.61   16.51
  -2  -6  -6   14.56   14.05
  -2  -6  -6    6.35   10.08
   2   6   6    2.88   10.08
   2   6   6   10.75   11.01
   2   6   6   21.42   12.45
   2   6   6   13.80   10.92
  -2  -6  -7   57.49   20.15
  -2  -6  -7   38.69   15.75
   2   6   7   37.68   16.09
   2   6   7   70.19   17.36
   2   6   7   28.70   14.56
  -2  -6  -8    0.59   15.58
  -2  -6  -8    4.23   11.77
   2   6   8   -6.10    9.57
   2   6   8    4.57   10.41
  -2  -7  12   38.18   17.78
  -2  -7  12   31.66   14.99
  -2  -7  12   44.79   15.66
   2   7 -12   61.04   21.08
   2   7 -12   30.56   17.02
  -2  -7  11   69.34   20.23
  -2  -7  11   51.22   19.05
  -2  -7  11   73.32   20.66
  -2  -7  11   48.09   15.24
   2   7 -11   60.70   17.10
   2   7 -11  100.33   22.86
   2   7 -11   44.79   18.37
  -2  -7  10   45.38   16.93
  -2  -7  10   61.81   16.09
  -2  -7  10   45.72   16.68
  -2  -7  10   40.30   13.38
   2   7 -10   59.86   16.85
   2   7 -10   88.47   21.42
   2   7 -10   61.72   17.53
   2   7 -10   51.22   15.16
  -2  -7   9    8.97   11.09
  -2  -7   9    2.46    8.47
  -2  -7   9    4.66   10.50
  -2  -7   9    3.13    8.30
   2   7  -9    7.03   10.08
   2   7  -9   -0.08   10.58
   2   7  -9    4.15   11.35
   2   7  -9    4.15    9.14
  -2  -7   8  302.00   28.02
  -2  -7   8  252.72   24.64
  -2  -7   8  267.03   25.31
  -2  -7   8  264.41   22.61
   2   7  -8  161.46   23.79
   2   7  -8  279.31   26.92
   2   7  -8  244.00   25.99
   2   7  -8  200.15   23.11
  -2  -7   7   22.94   10.33
  -2  -7   7   25.15   11.01
  -2  -7   7   23.28   11.60
  -2  -7   7   18.37    9.99
   2   7  -7   12.28   11.01
   2   7  -7   45.21   13.12
   2   7  -7   12.78   10.92
   2   7  -7   21.00   11.18
  -2  -7   6   33.19   12.36
  -2  -7   6   45.30   13.38
  -2  -7   6   30.56   12.11
  -2  -7   6   50.88   12.87
   2   7  -6   41.49   13.46
   2   7  -6   59.18   14.90
   2   7  -6   52.66   14.65
   2   7  -6   48.17   10.58
   2   7  -6   39.20   13.04
  -2  -7   5   47.75   12.45
  -2  -7   5   51.22   14.14
  -2  -7   5   51.05   12.87
  -2  -7   5   44.53   12.02
   2   7  -5   32.77   11.18
   2   7  -5   56.13   13.38
   2   7  -5   42.25   12.45
   2   7  -5   36.49   10.33
   2   7  -5   48.60   12.87
  -2  -7   4    3.81    7.96
  -2  -7   4    9.65    8.72
  -2  -7   4    6.10    7.54
  -2  -7   4    7.20    7.37
   2   7  -4   -1.19    7.96
   2   7  -4    8.97    8.64
   2   7  -4   11.26    7.03
   2   7  -4    7.87    7.54
   2   7  -4    4.74    8.72
  -2  -7   3   88.14   16.09
  -2  -7   3   77.72   16.17
  -2  -7   3  117.51   17.02
  -2  -7   3  122.93   17.61
   2   7  -3   66.55   14.90
   2   7  -3  107.69   17.27
   2   7  -3   78.57   13.97
   2   7  -3   61.04   13.72
   2   7  -3   62.82   14.56
  -2  -7   2   68.16   15.32
  -2  -7   2   52.83   12.78
  -2  -7   2   43.60   10.41
  -2  -7   2   72.22   14.22
   2   7  -2   50.29    9.48
   2   7  -2   40.30   12.28
   2   7  -2   75.94   15.24
   2   7  -2   55.88   11.68
   2   7  -2   42.42   11.43
   2   7  -2   54.69   13.46
  -2  -7   1   13.63    9.82
  -2  -7   1   15.92    7.54
  -2  -7   1   15.07    9.14
  -2  -7   1   12.87    7.28
  -2  -7   1   18.03    9.23
   2   7  -1   14.90    6.69
   2   7  -1   16.26    8.55
   2   7  -1   11.43    8.13
   2   7  -1   14.05    7.28
   2   7  -1    8.55    8.81
   2   7  -1   14.56    9.14
  -2  -7   0   10.92    9.40
  -2  -7   0    0.25    5.08
  -2  -7   0    5.67    7.87
  -2  -7   0    7.03    7.28
  -2  -7   0    6.52    7.45
   2   7   0    2.71    6.10
   2   7   0    1.19    6.86
   2   7   0    2.29    6.69
   2   7   0    6.10    7.28
   2   7   0    8.72    6.69
   2   7   0   -0.25    7.11
   2   7   0    4.40    7.28
  -2  -7  -1  184.82   22.01
  -2  -7  -1  153.92   17.19
  -2  -7  -1  163.91   17.61
   2   7   1  159.68   17.19
   2   7   1  130.47   19.05
   2   7   1  216.57   19.98
   2   7   1  173.56   21.08
   2   7   1  167.64   19.13
  -2  -7  -2  168.57   24.89
  -2  -7  -2  155.70   17.61
  -2  -7  -2  146.05   17.27
   2   7   2  123.02   19.30
   2   7   2  129.62   18.54
   2   7   2  205.14   20.32
   2   7   2  140.12   22.52
   2   7   2  120.22   17.61
  -2  -7  -3   31.41   14.39
  -2  -7  -3   29.97   12.28
   2   7   3   29.12   11.68
   2   7   3   44.87   12.95
   2   7   3   33.10   13.46
  -2  -7  -4  186.94   27.52
  -2  -7  -4  158.83   24.64
   2   7   4  130.81   22.77
   2   7   4  228.60   23.88
   2   7   4  133.86   23.28
  -2  -7  -5   17.69   14.73
  -2  -7  -5    5.00    9.48
   2   7   5    4.83    9.06
   2   7   5   13.38   10.33
   2   7   5   -1.78    9.48
  -2  -7  -6   26.92   16.42
  -2  -7  -6   25.65   13.72
   2   7   6   26.16   13.63
   2   7   6   35.90   14.14
   2   7   6   25.57   13.72
  -2  -7  -7    3.64   14.73
  -2  -7  -7   12.19   10.75
   2   7   7   -1.78    9.91
   2   7   7   -3.47   11.35
  -2  -8  11   20.91   14.39
  -2  -8  11    3.98    9.91
  -2  -8  11   19.64   15.41
  -2  -8  11    9.31   11.68
   2   8 -11   17.44   12.87
   2   8 -11   13.72   12.45
   2   8 -11    4.15   10.58
  -2  -8  10   28.19   14.82
  -2  -8  10   25.74   13.21
  -2  -8  10   36.15   16.09
  -2  -8  10   22.44   11.60
   2   8 -10   21.00   13.72
   2   8 -10   29.21   15.58
   2   8 -10   29.29   16.09
  -2  -8   9  339.34   32.09
  -2  -8   9  243.83   26.58
  -2  -8   9  264.66   28.96
  -2  -8   9  271.01   25.40
   2   8  -9  267.79   28.45
   2   8  -9  307.50   29.21
   2   8  -9  226.99   25.99
  -2  -8   8   43.60   16.00
  -2  -8   8   32.60   13.38
  -2  -8   8   40.22   14.99
  -2  -8   8   34.20   12.45
   2   8  -8   53.76   16.68
   2   8  -8   42.42   15.24
   2   8  -8   30.73   14.22
  -2  -8   7   21.93   13.21
  -2  -8   7   35.73   13.46
  -2  -8   7   32.85   12.11
  -2  -8   7   31.33   12.45
   2   8  -7   20.32   11.09
   2   8  -7   36.41   13.89
   2   8  -7   24.21   12.36
   2   8  -7   22.35   11.18
  -2  -8   6   97.45   19.47
  -2  -8   6   74.42   17.78
  -2  -8   6  116.33   20.57
  -2  -8   6   90.59   17.19
   2   8  -6   69.76   17.95
   2   8  -6  125.39   21.34
   2   8  -6   87.37   18.37
   2   8  -6   96.69   15.75
   2   8  -6   54.02   15.32
  -2  -8   5   51.98   15.24
  -2  -8   5   47.84   14.05
  -2  -8   5   52.07   14.56
  -2  -8   5   43.09   13.21
   2   8  -5   42.33   14.73
   2   8  -5   53.17   14.82
   2   8  -5   43.94   12.36
   2   8  -5   40.30   11.85
   2   8  -5   37.51   13.46
  -2  -8   4  218.94   22.35
  -2  -8   4  185.33   25.74
  -2  -8   4  211.66   20.91
  -2  -8   4  185.84   20.15
   2   8  -4  151.30   23.11
   2   8  -4  218.10   22.35
   2   8  -4  176.27   19.39
   2   8  -4  170.94   19.56
   2   8  -4  155.19   22.86
  -2  -8   3   29.89   11.60
  -2  -8   3   16.42    9.23
  -2  -8   3   35.14   10.84
  -2  -8   3   35.64   12.62
   2   8  -3   28.87   12.53
   2   8  -3   35.22   12.28
   2   8  -3   21.17   10.33
   2   8  -3   18.46   10.41
   2   8  -3   16.59   10.67
  -2  -8   2   96.43   19.30
  -2  -8   2  119.04   20.83
  -2  -8   2  100.67   15.83
  -2  -8   2  125.56   19.64
   2   8  -2   81.96   17.44
   2   8  -2  111.67   18.63
   2   8  -2   66.12   13.63
   2   8  -2   69.34   16.59
   2   8  -2   75.27   16.68
  -2  -8   1   14.82    9.65
  -2  -8   1   11.77    9.65
   2   8  -1   10.41   10.16
   2   8  -1   16.68    9.91
   2   8  -1    4.32    9.31
   2   8  -1   13.63   10.33
  -2  -8   0   34.88   14.31
  -2  -8   0   -0.59    4.23
  -2  -8   0   46.82   13.55
   2   8   0   24.47    9.40
   2   8   0   30.65   12.28
   2   8   0   45.21   13.46
   2   8   0   17.36   10.16
   2   8   0   32.00   12.36
  -2  -8  -1  101.51   19.98
  -2  -8  -1   81.28   16.42
  -2  -8  -1   93.81   17.78
   2   8   1   53.25   13.29
   2   8   1   65.78   15.49
   2   8   1   89.58   17.69
   2   8   1   77.64   18.12
   2   8   1   63.08   14.82
  -2  -8  -2   25.23   12.53
  -2  -8  -2   21.17   11.18
  -2  -8  -2   19.56   10.67
   2   8   2   17.95    9.57
   2   8   2   23.37   12.53
   2   8   2   22.94   11.35
   2   8   2   24.98   13.63
  -2  -8  -3  283.29   27.18
   2   8   3  235.11   24.47
   2   8   3  359.83   28.70
   2   8   3  254.59   28.70
  -2  -8  -4   36.07   15.66
  -2  -8  -4   24.04   13.12
   2   8   4   23.28   12.19
   2   8   4   23.62   13.21
   2   8   4   22.86   14.05
  -2  -8  -5  145.37   27.26
  -2  -8  -5  130.89   24.72
   2   8   5  120.39   23.71
   2   8   5  165.01   26.50
   2   8   5  107.10   23.62
  -2  -8  -6   -7.28   14.56
  -2  -8  -6   10.41   12.78
   2   8   6    9.82   11.51
   2   8   6    6.94   12.95
  -2  -9  11   11.51   11.77
  -2  -9  11   16.26   13.04
  -2  -9  11   12.87   14.82
  -2  -9  11   17.02   14.65
   2   9 -11    3.98   12.02
   2   9 -11   11.51   15.32
   2   9 -11   14.05   16.26
  -2  -9  10   55.37   18.71
  -2  -9  10   42.59   16.68
  -2  -9  10   52.41   19.39
  -2  -9  10   55.29   16.42
   2   9 -10   29.46   15.92
   2   9 -10   77.04   22.35
   2   9 -10   32.77   17.44
  -2  -9   9   -1.78   11.18
  -2  -9   9   13.97   12.19
  -2  -9   9    3.56   11.09
  -2  -9   9   13.12   12.02
   2   9  -9    7.28   12.19
   2   9  -9   12.70   13.63
   2   9  -9   13.55   11.94
  -2  -9   8    5.76   11.68
  -2  -9   8   -1.27    8.30
  -2  -9   8   -1.95    9.65
  -2  -9   8    1.19    9.48
   2   9  -8   16.34   12.87
   2   9  -8   -5.93   10.08
   2   9  -8    4.32   11.43
  -2  -9   7  101.77   21.84
  -2  -9   7  131.15   23.20
  -2  -9   7  122.93   22.94
  -2  -9   7   92.54   18.37
   2   9  -7   77.30   20.07
   2   9  -7  147.91   24.64
   2   9  -7   93.89   20.23
  -2  -9   6    1.86   10.16
  -2  -9   6    3.64    9.99
  -2  -9   6   13.29   11.01
  -2  -9   6    0.76    9.23
   2   9  -6    9.14    9.40
   2   9  -6    6.10   10.67
   2   9  -6    1.52    8.97
   2   9  -6    6.43    8.04
  -2  -9   5   71.37   17.27
  -2  -9   5   97.11   21.25
  -2  -9   5  105.15   19.73
  -2  -9   5  109.05   19.90
   2   9  -5   60.62   17.95
   2   9  -5  116.58   21.93
   2   9  -5   89.32   17.95
   2   9  -5   82.55   16.93
  -2  -9   4   31.83   12.70
  -2  -9   4   13.89   11.35
  -2  -9   4   27.85   11.43
  -2  -9   4   28.79   12.62
   2   9  -4   23.79   13.63
   2   9  -4   33.61   13.38
   2   9  -4    2.20    9.48
   2   9  -4   26.92   11.51
  -2  -9   3  136.40   23.62
  -2  -9   3  107.02   21.67
  -2  -9   3  148.08   21.00
   2   9  -3   90.00   19.90
   2   9  -3  131.32   21.50
   2   9  -3  115.31   18.12
   2   9  -3  121.92   21.59
   2   9  -3   99.90   20.07
  -2  -9   2  168.82   26.08
  -2  -9   2  172.38   25.99
   2   9  -2  151.72   24.55
   2   9  -2  167.47   24.30
   2   9  -2  143.59   23.96
   2   9  -2  106.34   20.32
  -2  -9   1   11.09   10.41
  -2  -9   1    6.94   10.33
   2   9  -1   10.08   10.84
   2   9  -1   22.61   11.94
   2   9  -1    9.65   11.35
   2   9  -1    5.59    9.40
  -2  -9   0   88.56   21.08
  -2  -9   0  101.17   19.56
   2   9   0   66.29   16.85
   2   9   0  105.75   19.98
   2   9   0  109.47   21.67
   2   9   0   69.76   16.93
  -2  -9  -1   -0.25   11.85
  -2  -9  -1   12.19    9.65
  -2  -9  -1   14.90   10.67
   2   9   1    4.66    8.38
   2   9   1    4.49   11.35
   2   9   1   -0.68    8.81
   2   9   1    4.74   11.43
  -2  -9  -2   53.68   18.37
  -2  -9  -2   68.75   17.36
   2   9   2   61.72   16.09
   2   9   2  109.22   22.44
   2   9   2   37.17   16.42
  -2  -9  -3    4.91   13.72
  -2  -9  -3   -3.47    9.23
   2   9   3   -2.20    7.70
   2   9   3    8.81   10.41
   2   9   3   -5.16   11.26
  -2  -9  -4    6.94   12.19
  -2  -9  -4    8.47   11.26
   2   9   4   -2.79    8.55
   2   9   4    2.62   10.92
   2   9   4   -1.78   11.18
  -2 -10   9    9.48   13.55
  -2 -10   9   19.22   13.55
  -2 -10   9   15.83   14.65
  -2 -10   9   13.04   12.78
   2  10  -9    9.40   13.80
   2  10  -9   14.14   14.14
   2  10  -9    3.64   13.38
  -2 -10   8  162.22   28.11
  -2 -10   8  158.92   27.52
  -2 -10   8  199.55   30.56
  -2 -10   8  154.09   24.55
   2  10  -8  152.40   28.45
   2  10  -8  251.62   30.39
   2  10  -8  168.57   27.18
  -2 -10   7    4.32   12.62
  -2 -10   7   11.68   11.60
  -2 -10   7   12.45   11.60
  -2 -10   7    9.06   11.60
   2  10  -7    1.78    9.23
   2  10  -7    7.54   13.55
   2  10  -7   13.21   12.36
  -2 -10   6  142.91   26.16
  -2 -10   6  160.44   28.36
  -2 -10   6  169.16   26.50
   2  10  -6  101.68   23.11
   2  10  -6  168.06   27.60
   2  10  -6  126.15   22.77
  -2 -10   5   28.11   15.16
  -2 -10   5   11.09   11.51
  -2 -10   5   28.53   12.78
   2  10  -5   19.13   13.97
   2  10  -5   34.12   14.99
   2  10  -5   18.54   11.60
   2  10  -5   24.04   12.70
  -2 -10   4  156.21   27.35
  -2 -10   4  202.52   30.39
   2  10  -4  102.95   22.44
   2  10  -4  192.10   28.28
   2  10  -4  112.18   21.59
  -2 -10   3   57.57   18.80
  -2 -10   3   63.84   18.88
   2  10  -3   39.37   15.66
   2  10  -3   73.66   18.63
   2  10  -3   40.05   15.32
  -2 -10   2   51.05   17.78
  -2 -10   2   44.62   16.76
   2  10  -2   29.46   14.90
   2  10  -2   45.72   15.92
   2  10  -2   30.82   15.16
  -2 -10   1  101.68   21.42
  -2 -10   1  105.66   22.35
   2  10  -1   98.63   21.25
   2  10  -1  141.22   24.13
   2  10  -1  120.65   25.06
  -2 -10   0   14.99   12.53
  -2 -10   0   16.26   13.29
   2  10   0   17.10   12.28
   2  10   0   32.43   14.73
   2  10   0   24.04   14.90
  -2 -10  -1   59.18   20.91
   2  10   1   61.97   17.86
   2  10   1   39.12   17.69
  -2 -10  -2   33.36   18.54
   2  10   2   53.34   18.63
   2  10   2   30.90   17.86
  -2 -11   7   15.66   14.90
  -2 -11   7   12.45   13.04
  -2 -11   7    3.81   11.26
   2  11  -7   14.14   15.07
   2  11  -7   -0.25   12.70
   2  11  -7   -6.27   10.41
  -2 -11   6   26.42   16.68
  -2 -11   6   23.11   13.21
   2  11  -6   18.63   15.16
   2  11  -6   28.11   15.92
  -2 -11   5   30.39   16.51
  -2 -11   5   30.23   17.19
   2  11  -5   26.92   16.09
   2  11  -5   39.20   16.85
   2  11  -5   41.82   15.83
  -2 -11   4   67.22   20.32
  -2 -11   4  124.03   25.91
   2  11  -4   55.79   19.73
   2  11  -4  112.27   24.04
   2  11  -4   87.29   20.74
  -2 -11   3   22.18   16.85
  -2 -11   3   18.29   14.48
   2  11  -3    6.18   12.95
   2  11  -3   18.63   13.97
   2  11  -3   13.55   12.95
  -2 -11   2   85.77   23.11
  -2 -11   2  116.08   25.15
   2  11  -2   71.12   20.57
   2  11  -2   91.52   22.18
   2  11  -2  106.51   24.21
  -2 -11   1    9.48   15.07
  -2 -11   1   -0.08   11.43
   2  11  -1    9.57   14.31
   2  11  -1    2.20   12.11
   2  11  -1    2.96   13.21
  -3  11   1   68.16   18.63
  -3  11   1   81.11   20.66
  -3  11   1   77.47   22.69
  -3  11   1   90.93   23.11
   3 -11  -1   89.91   23.28
  -3  11   0   13.38   12.78
  -3  11   0   14.22   13.89
  -3  11   0   35.05   17.02
   3 -11   0   25.82   15.41
  -3  11  -1   13.89   13.72
  -3  11  -1   32.85   17.27
  -3  11  -1   30.65   16.42
   3 -11   1   31.16   16.26
  -3  11  -2   -3.56   10.24
  -3  11  -2   17.10   14.31
  -3  11  -2    8.89   12.28
   3 -11   2   10.16   12.36
  -3  11  -3   60.96   19.73
  -3  11  -3   70.27   19.56
  -3  11  -3   70.10   19.73
   3 -11   3   54.78   18.88
  -3  11  -4   79.84   21.25
  -3  11  -4  101.85   23.71
  -3  11  -4   65.36   18.96
   3 -11   4   79.67   22.35
  -3  11  -5   41.91   18.12
  -3  11  -5   13.46   14.31
   3 -11   5    9.91   13.80
  -3  11  -6   13.12   15.07
  -3  11  -6   31.33   15.83
   3 -11   6   13.63   12.95
  -3  11  -7   35.14   17.69
  -3  11  -7   36.32   17.69
  -3  11  -7   43.35   16.42
   3 -11   7   34.20   17.10
   3 -11   7   49.27   17.61
  -3  10   4   78.74   20.57
  -3  10   4   98.04   24.47
  -3  10   4   67.39   20.83
  -3  10   4   83.73   21.25
   3 -10  -4   85.34   22.27
   3 -10  -4   74.17   19.47
  -3  10   3   28.79   13.97
  -3  10   3   25.48   16.00
  -3  10   3   37.34   17.02
  -3  10   3   24.38   14.56
   3 -10  -3   37.00   17.02
   3 -10  -3   22.86   13.04
  -3  10   2   75.35   17.86
  -3  10   2   80.26   18.96
  -3  10   2  124.20   24.98
  -3  10   2  124.29   26.42
  -3  10   2  145.96   25.23
   3 -10  -2  112.01   21.84
   3 -10  -2   95.16   20.40
   3 -10  -2   89.83   20.57
  -3  10   1  154.60   24.38
  -3  10   1  171.36   26.58
  -3  10   1  238.92   34.29
  -3  10   1  164.33   28.19
  -3  10   1  220.04   26.42
   3 -10  -1  242.73   27.60
   3 -10  -1  149.43   23.45
   3 -10  -1  209.21   25.31
  -3  10   0    4.66    7.96
  -3  10   0   10.75   11.26
  -3  10   0    1.02   10.50
  -3  10   0   -7.54    9.23
  -3  10   0    1.02   10.08
   3 -10   0   -1.95    9.57
   3 -10   0    0.42    7.79
   3 -10   0   -2.54   10.33
  -3  10  -1   83.14   20.07
  -3  10  -1  105.92   23.71
  -3  10  -1  112.86   23.03
   3 -10   1  110.91   22.86
  -3  10  -2   17.44   11.26
  -3  10  -2   18.12   13.12
  -3  10  -2   37.34   14.31
   3 -10   2   23.28   13.38
  -3  10  -3  157.05   25.91
  -3  10  -3  315.55   31.66
  -3  10  -3  226.06   25.40
   3 -10   3  242.82   28.19
  -3  10  -4    7.28   12.11
  -3  10  -4   13.72   12.87
  -3  10  -4    9.57   10.41
   3 -10   4    1.95   10.67
  -3  10  -5  148.16   26.84
  -3  10  -5  185.33   30.06
  -3  10  -5  120.31   20.66
  -3  10  -5  144.10   25.57
   3 -10   5  145.71   25.65
   3 -10   5  184.65   26.42
  -3  10  -6   31.66   15.66
  -3  10  -6   36.15   16.85
  -3  10  -6   37.93   14.31
   3 -10   6   28.19   14.31
   3 -10   6   38.69   14.90
  -3  10  -7    3.22   11.85
  -3  10  -7   -0.17    8.72
  -3  10  -7   -4.83    9.82
   3 -10   7   -2.79   10.50
   3 -10   7    9.57   10.67
  -3  10  -8   32.17   16.51
  -3  10  -8   72.39   21.59
  -3  10  -8   56.47   18.63
   3 -10   8   30.56   15.07
   3 -10   8   50.80   18.37
  -3  10  -9    3.39   12.62
  -3  10  -9   -0.93   12.28
  -3  10  -9   -0.76   11.35
   3 -10   9   -6.27    9.74
   3 -10   9   -4.57   11.26
  -3   9   6   45.89   17.53
  -3   9   6   77.98   22.77
  -3   9   6   32.00   16.09
  -3   9   6   52.58   17.69
   3  -9  -6   72.64   22.69
   3  -9  -6   35.31   16.09
  -3   9   5   48.26   15.92
  -3   9   5   72.30   21.76
  -3   9   5   44.87   17.53
  -3   9   5   53.68   16.51
   3  -9  -5   38.78   17.78
   3  -9  -5   42.93   16.34
  -3   9   4  108.46   22.35
  -3   9   4  167.81   29.21
  -3   9   4   91.27   22.01
  -3   9   4  121.75   22.01
   3  -9  -4  150.45   25.99
  -3   9   3   48.51   15.49
  -3   9   3   73.49   18.80
  -3   9   3   59.18   18.80
  -3   9   3   58.42   15.75
   3  -9  -3   46.90   16.42
   3  -9  -3   52.92   15.07
  -3   9   2  180.93   21.08
  -3   9   2  226.14   23.37
  -3   9   2  306.57   30.65
  -3   9   2  240.45   26.33
  -3   9   2  297.60   26.50
  -3   9   2  194.48   22.27
   3  -9  -2  295.56   27.60
   3  -9  -2  228.00   24.72
   3  -9  -2  289.47   27.35
  -3   9   1   48.34   14.22
  -3   9   1   34.37   13.12
  -3   9   1   56.30   17.19
  -3   9   1   37.00   14.05
  -3   9   1   37.34   13.55
  -3   9   1   50.38   14.90
   3  -9  -1   50.71   14.90
   3  -9  -1   31.83   12.11
   3  -9  -1   47.84   14.82
  -3   9   0  176.44   19.81
  -3   9   0  190.67   22.86
  -3   9   0  247.05   27.01
  -3   9   0  188.13   28.11
  -3   9   0  252.81   24.30
  -3   9   0  171.19   24.98
   3  -9   0  243.16   23.11
   3  -9   0  200.74   21.25
   3  -9   0  219.62   24.47
  -3   9  -1   -0.17    6.27
  -3   9  -1    1.35    9.23
  -3   9  -1    7.28    8.64
  -3   9  -1    2.12    9.65
  -3   9  -1    8.13    9.65
  -3   9  -1    5.42    9.14
  -3   9  -1    4.57    9.31
   3  -9   1   -5.59    6.94
   3  -9   1   -4.57    6.52
   3  -9   1   -2.71    7.45
  -3   9  -2  113.87   18.03
  -3   9  -2   94.74   20.07
  -3   9  -2  155.36   17.86
  -3   9  -2  170.68   26.16
  -3   9  -2   90.85   19.05
  -3   9  -2  120.14   20.57
  -3   9  -2   71.63   17.27
   3  -9   2  159.59   18.46
   3  -9   2  130.72   19.81
   3  -9   2    2.29    4.23
   3  -9   2  109.73   20.49
  -3   9  -3   13.80    9.48
  -3   9  -3   17.95   11.60
  -3   9  -3   24.81   11.60
  -3   9  -3   29.21   13.12
   3  -9   3   30.14   11.01
   3  -9   3   19.56   11.35
  -3   9  -4  115.48   22.27
  -3   9  -4  162.39   25.74
  -3   9  -4  110.66   19.30
  -3   9  -4  117.68   19.64
  -3   9  -4   98.80   19.98
   3  -9   4  102.95   21.17
   3  -9   4  107.52   17.95
  -3   9  -5  113.03   21.42
  -3   9  -5  122.43   23.54
  -3   9  -5   88.31   17.44
  -3   9  -5   93.22   17.19
   3  -9   5  117.85   22.35
   3  -9   5  128.94   21.25
  -3   9  -6   23.20   13.97
  -3   9  -6   14.65   12.78
  -3   9  -6   31.41   13.04
   3  -9   6   33.78   14.73
   3  -9   6   35.22   13.63
  -3   9  -7   76.88   19.81
  -3   9  -7   97.36   21.76
  -3   9  -7   88.56   19.73
   3  -9   7   73.74   19.05
   3  -9   7   90.85   20.49
  -3   9  -8   -8.13    8.89
  -3   9  -8   -0.17    8.72
  -3   9  -8    6.01    8.89
   3  -9   8    6.52    9.74
   3  -9   8    7.11   10.58
  -3   9  -9   51.90   18.29
  -3   9  -9   27.35   16.00
  -3   9  -9   38.35   17.02
   3  -9   9   34.20   14.56
   3  -9   9   56.13   18.46
  -3   9 -10   41.23   17.02
  -3   9 -10   79.58   23.20
  -3   9 -10   41.82   18.46
   3  -9  10   62.31   18.88
   3  -9  10   69.59   21.08
  -3   8   7   19.05   14.05
  -3   8   7    6.27   13.55
  -3   8   7   18.20   13.12
  -3   8   7   24.13   13.38
   3  -8  -7   23.62   17.27
   3  -8  -7   10.41   10.58
  -3   8   6   84.66   20.07
  -3   8   6  176.19   30.23
  -3   8   6  124.88   25.23
  -3   8   6  122.17   21.59
   3  -8  -6   98.04   23.37
   3  -8  -6  100.67   22.52
  -3   8   5   31.83   13.12
  -3   8   5   62.48   19.05
  -3   8   5   35.73   14.56
  -3   8   5   51.90   15.16
   3  -8  -5   52.07   17.53
   3  -8  -5   31.24   13.89
  -3   8   4   13.55   10.41
  -3   8   4   33.19   14.65
  -3   8   4   13.46   12.02
  -3   8   4   16.68   10.16
   3  -8  -4   13.29   11.68
   3  -8  -4   19.98   12.02
  -3   8   3   93.22   18.63
  -3   8   3  105.07   18.20
  -3   8   3   83.56   19.22
  -3   8   3   79.58   18.96
  -3   8   3   94.06   18.03
   3  -8  -3   98.04   20.23
   3  -8  -3   83.65   17.69
   3  -8  -3   88.14   16.76
  -3   8   2   56.89   14.31
  -3   8   2   53.68   14.39
  -3   8   2   49.53   15.49
  -3   8   2   64.68   17.19
  -3   8   2   67.99   15.92
  -3   8   2   43.69   13.21
   3  -8  -2   60.11   15.16
   3  -8  -2   54.10   14.22
   3  -8  -2   61.72   14.56
  -3   8   1  165.10   18.12
  -3   8   1  160.52   19.22
  -3   8   1  201.42   23.54
  -3   8   1  191.34   23.03
  -3   8   1  217.84   21.25
  -3   8   1  120.22   19.56
   3  -8  -1  187.53   19.98
   3  -8  -1  150.20   21.59
   3  -8  -1  185.50   20.74
  -3   8   0  174.92   18.63
  -3   8   0  231.56   22.86
  -3   8   0  269.40   22.77
  -3   8   0  291.84   26.50
  -3   8   0  193.63   20.83
  -3   8   0  267.63   22.61
  -3   8   0  195.24   21.34
   3  -8   0  258.91   21.50
   3  -8   0  175.59   18.88
   3  -8   0  220.21   22.61
  -3   8  -1  245.19   20.57
  -3   8  -1  241.13   22.27
  -3   8  -1  328.58   23.79
  -3   8  -1  366.26   28.87
  -3   8  -1  282.70   25.23
  -3   8  -1  352.97   25.40
  -3   8  -1  251.54   22.77
   3  -8   1  332.82   23.62
   3  -8   1  274.82   21.59
   3  -8   1  245.02   23.96
  -3   8  -2  171.28   17.61
  -3   8  -2  144.44   21.76
  -3   8  -2  235.11   20.40
  -3   8  -2  230.54   23.62
  -3   8  -2  188.04   17.69
  -3   8  -2  165.94   19.81
  -3   8  -2  207.09   21.08
  -3   8  -2  124.20   20.32
   3  -8   2  206.07   18.29
   3  -8   2  218.60   19.30
   3  -8   2  147.82   15.58
   3  -8   2  168.91   23.88
   3  -8   2  185.33   17.36
  -3   8  -3   97.79   15.24
  -3   8  -3   65.19   15.32
  -3   8  -3  128.78   15.75
  -3   8  -3  137.67   22.10
  -3   8  -3   92.12   15.58
  -3   8  -3   88.39   16.76
  -3   8  -3  138.60   20.32
  -3   8  -3  101.09   18.54
   3  -8   3  116.24   16.76
   3  -8   3  142.74   15.66
   3  -8   3   82.55   14.14
   3  -8   3   75.86   16.51
   3  -8   3  127.00   18.46
  -3   8  -4  138.09   22.27
  -3   8  -4  160.78   23.79
  -3   8  -4  151.13   18.29
  -3   8  -4  138.00   17.19
  -3   8  -4  135.46   21.42
   3  -8   4  171.95   17.69
   3  -8   4  141.73   22.69
   3  -8   4  144.35   20.32
  -3   8  -5   24.55   12.11
  -3   8  -5   24.89   11.09
  -3   8  -5   25.48   11.01
  -3   8  -5   15.16    9.14
  -3   8  -5   14.22   10.24
   3  -8   5   19.64   10.41
   3  -8   5   27.35   12.02
   3  -8   5   27.60   11.77
  -3   8  -6   20.57   11.68
  -3   8  -6   18.37   12.28
  -3   8  -6   18.37   11.09
  -3   8  -6   18.03   11.43
   3  -8   6   16.00   10.24
   3  -8   6   21.34   11.26
  -3   8  -7   10.33   10.58
  -3   8  -7   27.43   11.94
  -3   8  -7   12.28   10.67
  -3   8  -7   25.65   12.19
   3  -8   7   23.88   12.28
   3  -8   7   23.71   12.87
  -3   8  -8    9.06   10.58
  -3   8  -8   14.14   12.78
  -3   8  -8    8.30   10.50
   3  -8   8    7.87   10.24
   3  -8   8   12.78    9.48
  -3   8  -9   62.48   18.12
  -3   8  -9   66.29   18.37
  -3   8  -9   54.35   18.12
   3  -8   9   48.60   15.49
   3  -8   9   69.43   19.73
  -3   8 -10   -4.49   10.08
  -3   8 -10   -1.10    8.89
  -3   8 -10  -13.63    9.48
   3  -8  10   -1.44    8.38
   3  -8  10   -1.19   11.26
  -3   8 -11   50.38   19.73
  -3   8 -11   23.20   16.93
   3  -8  11   40.64   18.20
  -3   7   8   29.38   13.63
  -3   7   8   66.89   19.98
  -3   7   8   50.29   17.19
  -3   7   8   48.77   15.41
   3  -7  -8   27.43   17.78
   3  -7  -8   45.97   18.12
  -3   7   7   32.09   14.90
  -3   7   7   42.67   17.53
  -3   7   7   53.08   16.34
  -3   7   7   44.36   13.63
   3  -7  -7   55.88   19.64
   3  -7  -7   43.35   16.09
  -3   7   6    8.30   10.50
  -3   7   6    3.64    8.89
  -3   7   6    6.43   10.24
  -3   7   6   12.36    9.40
   3  -7  -6    4.66   12.53
   3  -7  -6    8.81    8.55
  -3   7   5   28.45   11.35
  -3   7   5   44.28   15.66
  -3   7   5   30.23   13.29
  -3   7   5   35.73   11.51
   3  -7  -5   38.44   14.73
   3  -7  -5   29.29   11.51
  -3   7   4   52.24   14.82
  -3   7   4   65.02   16.93
  -3   7   4   54.52   15.75
  -3   7   4   64.18   13.97
   3  -7  -4   54.27   15.49
   3  -7  -4   44.45   13.12
  -3   7   3   35.22   11.43
  -3   7   3   36.15   10.84
  -3   7   3   58.93   16.17
  -3   7   3   41.15   13.97
  -3   7   3   36.58   11.26
  -3   7   3   32.43   10.24
   3  -7  -3   27.69   11.43
   3  -7  -3   26.67   10.41
   3  -7  -3   32.00   10.41
  -3   7   2   34.20   11.35
  -3   7   2   50.71   12.45
  -3   7   2   55.71   14.56
  -3   7   2   77.72   17.27
  -3   7   2   70.78   16.59
  -3   7   2   61.13   13.89
  -3   7   2   50.88   12.78
   3  -7  -2   66.21   14.31
   3  -7  -2   42.59   12.45
   3  -7  -2   73.07   14.65
  -3   7   1  113.54   17.86
  -3   7   1  103.97   16.93
  -3   7   1  114.47   17.78
  -3   7   1  157.48   19.30
  -3   7   1  145.37   21.34
  -3   7   1  127.08   17.61
  -3   7   1  107.19   17.10
   3  -7  -1  134.79   15.92
   3  -7  -1  112.86   17.36
   3  -7  -1  119.21   18.46
  -3   7   0   86.53   15.16
  -3   7   0   80.35   15.24
  -3   7   0  111.08   17.02
  -3   7   0  111.16   18.96
  -3   7   0   88.14   17.19
  -3   7   0   94.32   15.24
  -3   7   0   92.88   16.42
   3  -7   0  114.13   15.75
   3  -7   0   77.13   14.14
   3  -7   0   82.04   14.99
  -3   7  -1  119.97   14.31
  -3   7  -1   97.20   16.51
  -3   7  -1  131.82   15.24
  -3   7  -1  125.73   19.64
  -3   7  -1   95.84   13.12
  -3   7  -1   83.99   15.49
  -3   7  -1  122.00   15.24
  -3   7  -1  106.00   17.53
   3  -7   1  115.57   14.39
   3  -7   1   92.54   14.56
   3  -7   1  115.82   17.95
   3  -7   1  111.00   12.53
  -3   7  -2  336.12   21.17
  -3   7  -2  378.11   23.03
  -3   7  -2  412.83   27.60
  -3   7  -2  321.22   20.32
  -3   7  -2  277.53   22.01
  -3   7  -2  439.75   25.74
  -3   7  -2  301.83   24.13
   3  -7   2  391.74   21.59
   3  -7   2  378.62   22.69
   3  -7   2  297.51   20.07
   3  -7   2  285.15   22.69
   3  -7   2  344.25   21.42
  -3   7  -3  361.26   21.08
  -3   7  -3  283.46   22.94
  -3   7  -3  465.91   24.04
  -3   7  -3  410.71   27.77
  -3   7  -3  370.41   23.45
  -3   7  -3  345.60   23.62
  -3   7  -3  453.30   26.42
  -3   7  -3  297.26   23.37
   3  -7   3  447.37   23.28
   3  -7   3  422.82   23.11
   3  -7   3  319.36   25.23
   3  -7   3  389.46   23.96
  -3   7  -4  197.44   19.73
  -3   7  -4  311.48   19.56
  -3   7  -4  261.87   23.54
  -3   7  -4  237.23   19.90
  -3   7  -4  206.50   18.20
  -3   7  -4  296.83   22.61
  -3   7  -4  197.35   19.81
   3  -7   4  264.41   18.37
   3  -7   4  283.46   19.47
   3  -7   4  213.19   21.67
   3  -7   4  245.36   21.17
  -3   7  -5   82.63   16.93
  -3   7  -5  129.28   13.89
  -3   7  -5  150.53   22.18
  -3   7  -5   98.89   17.61
  -3   7  -5  113.45   15.75
  -3   7  -5   84.50   16.59
   3  -7   5  132.59   14.39
   3  -7   5  129.37   22.44
   3  -7   5   93.89   17.95
   3  -7   5  144.44   21.00
  -3   7  -6  179.07   21.00
  -3   7  -6  284.05   25.65
  -3   7  -6  207.34   22.44
  -3   7  -6  174.75   20.66
   3  -7   6  278.04   20.66
   3  -7   6  199.22   22.10
   3  -7   6  230.37   23.28
  -3   7  -7   58.25   15.32
  -3   7  -7   77.47   18.12
  -3   7  -7   51.22   14.90
  -3   7  -7   54.44   14.39
   3  -7   7   54.69   14.99
   3  -7   7   58.33   15.83
  -3   7  -8   89.83   18.63
  -3   7  -8  119.38   22.27
  -3   7  -8   83.14   19.47
  -3   7  -8   75.94   16.51
   3  -7   8   63.50   15.66
   3  -7   8  115.40   21.50
  -3   7  -9   15.16   10.84
  -3   7  -9   19.30   12.95
  -3   7  -9   12.95   12.11
  -3   7  -9   13.46   10.08
   3  -7   9   20.49   10.50
   3  -7   9   19.73   11.35
  -3   7 -10   17.78   13.55
  -3   7 -10    9.65   10.75
   3  -7  10    9.06    9.31
  -3   7 -11   23.88   15.49
  -3   7 -11   18.71   14.99
   3  -7  11   11.94   11.35
  -3   6   9   30.39   16.42
  -3   6   9   39.28   16.17
  -3   6   9   28.45   12.45
   3  -6  -9   28.02   18.03
   3  -6  -9   33.61   17.69
  -3   6   8   14.99   13.21
  -3   6   8    8.72   13.12
  -3   6   8   12.95   12.62
  -3   6   8   16.59   11.01
   3  -6  -8   18.12   15.58
   3  -6  -8   22.61   14.14
  -3   6   7   88.22   20.74
  -3   6   7  125.98   23.62
  -3   6   7  113.20   21.25
  -3   6   7  115.14   18.20
   3  -6  -7  102.11   22.44
   3  -6  -7  101.60   21.50
  -3   6   6   15.83   10.24
  -3   6   6   12.78   11.35
  -3   6   6   35.05   12.95
  -3   6   6   30.06   10.92
   3  -6  -6   36.74   14.90
   3  -6  -6   16.09   10.75
  -3   6   5   35.90   11.77
  -3   6   5   72.64   17.78
  -3   6   5   33.61   12.78
  -3   6   5   52.66   12.11
   3  -6  -5   62.74   16.26
   3  -6  -5   33.95   12.70
  -3   6   4   66.46   14.90
  -3   6   4   49.19   11.35
  -3   6   4   73.74   16.51
  -3   6   4   61.81   15.07
  -3   6   4   69.93   13.21
  -3   6   4   56.05   11.60
   3  -6  -4   56.73   14.14
   3  -6  -4   39.54   12.11
   3  -6  -4   52.07   11.51
  -3   6   3   41.40   12.70
  -3   6   3   40.64   10.33
  -3   6   3   47.16   13.04
  -3   6   3   43.35   12.87
  -3   6   3   39.28   12.78
  -3   6   3   33.70    9.40
  -3   6   3   35.98    9.65
   3  -6  -3   33.44   11.09
   3  -6  -3   35.64   12.11
   3  -6  -3   29.72    9.48
  -3   6   2  253.40   20.23
  -3   6   2  284.30   20.15
  -3   6   2  310.30   23.28
  -3   6   2  317.66   23.28
  -3   6   2  190.07   20.07
  -3   6   2  286.68   19.22
  -3   6   2  274.91   20.57
   3  -6  -2  314.11   21.76
   3  -6  -2  194.48   19.13
   3  -6  -2  231.64   18.88
  -3   6   1  159.09   16.34
  -3   6   1  150.87   14.90
  -3   6   1  202.69   18.46
  -3   6   1  219.87   19.90
  -3   6   1  174.83   18.29
  -3   6   1  207.60   17.02
  -3   6   1  160.69   16.26
   3  -6  -1  209.55   17.27
   3  -6  -1  159.34   16.51
   3  -6  -1  137.75   14.56
  -3   6   0   69.59   12.70
  -3   6   0   68.49   13.12
  -3   6   0  107.10   15.66
  -3   6   0  115.99   17.53
  -3   6   0   90.25    9.74
  -3   6   0   87.29   14.99
  -3   6   0   99.99   14.22
  -3   6   0   81.02   14.14
   3  -6   0   97.70   13.21
   3  -6   0   67.65   12.53
   3  -6   0   80.26   14.48
   3  -6   0   76.20    9.48
  -3   6  -1  122.68   13.29
  -3   6  -1  120.65   14.99
  -3   6  -1  197.61   16.34
  -3   6  -1  177.71   17.78
  -3   6  -1  150.62   13.38
  -3   6  -1  120.82   13.89
  -3   6  -1  182.37   15.75
  -3   6  -1  131.48   15.49
   3  -6   1  165.60   13.89
   3  -6   1  125.98   14.48
   3  -6   1  162.22   13.72
  -3   6  -2  678.42   27.52
  -3   6  -2  595.28   29.46
  -3   6  -2  828.61   30.39
  -3   6  -2  769.94   33.44
  -3   6  -2  695.86   27.60
  -3   6  -2  614.24   28.62
  -3   6  -2  791.45   30.82
  -3   6  -2  580.21   29.12
   3  -6   2  835.39   26.92
   3  -6   2  841.91   30.73
   3  -6   2  648.45   31.50
   3  -6   2  675.71   27.35
  -3   6  -3  781.20   28.62
  -3   6  -3  706.10   32.93
  -3   6  -3  975.34   32.09
  -3   6  -3  949.43   37.34
  -3   6  -3  776.63   30.99
  -3   6  -3  703.40   29.38
  -3   6  -3  952.14   34.37
  -3   6  -3  732.52   33.53
   3  -6   3  917.60   28.62
   3  -6   3  935.38   31.58
   3  -6   3  677.32   32.00
   3  -6   3  809.48   32.09
  -3   6  -4   99.23   16.68
  -3   6  -4  130.21   13.63
  -3   6  -4  132.33   18.80
  -3   6  -4   93.39   14.90
  -3   6  -4   93.72   13.97
  -3   6  -4  133.35   15.07
  -3   6  -4   94.49   15.92
   3  -6   4  111.16   11.60
   3  -6   4  117.94   12.78
   3  -6   4   88.81   15.66
   3  -6   4  117.43   16.68
   3  -6   4  106.76   15.58
  -3   6  -5  256.45   21.00
  -3   6  -5  411.05   21.50
  -3   6  -5  350.60   25.31
  -3   6  -5  300.48   23.71
  -3   6  -5  280.07   17.78
  -3   6  -5  384.29   23.71
  -3   6  -5  268.81   21.42
   3  -6   5  341.79   19.73
   3  -6   5  356.27   20.49
   3  -6   5  247.98   21.67
   3  -6   5  316.73   24.13
   3  -6   5  293.11   21.42
  -3   6  -6   75.69   15.49
  -3   6  -6  126.83   13.72
  -3   6  -6  121.41   19.30
  -3   6  -6   96.18   17.78
  -3   6  -6   95.93   17.10
   3  -6   6  117.77   13.55
   3  -6   6   98.63   14.14
   3  -6   6   91.01   17.19
   3  -6   6  109.56   18.96
   3  -6   6   89.07   15.66
  -3   6  -7   28.02   11.18
  -3   6  -7   45.55   14.05
  -3   6  -7   35.14   13.29
  -3   6  -7   40.81   11.94
   3  -6   7   42.76   11.09
   3  -6   7   33.70   11.68
   3  -6   7   44.03   13.97
   3  -6   7   31.33   11.94
  -3   6  -8   37.59   12.28
  -3   6  -8   36.15   13.63
  -3   6  -8   22.27   10.75
  -3   6  -8   18.20    9.57
   3  -6   8   36.91   11.01
   3  -6   8   25.99   10.67
   3  -6   8   30.90   13.38
   3  -6   8   33.36   12.19
  -3   6  -9   38.95   13.04
  -3   6  -9   51.22   16.26
  -3   6  -9   31.50   14.90
  -3   6  -9   35.22   13.72
   3  -6   9   41.32   12.19
   3  -6   9   36.66   14.31
  -3   6 -10   30.23   14.48
  -3   6 -10   28.53   15.07
   3  -6  10   14.48   11.94
  -3   6 -11   28.53   14.82
  -3   6 -11   25.74   15.92
   3  -6  11   10.75   12.19
  -3   6 -12   38.18   17.44
  -3   6 -12   27.18   17.69
   3  -6  12   37.51   15.24
  -3   5  10   28.62   14.22
  -3   5  10   40.98   16.09
  -3   5  10   47.50   14.05
   3  -5 -10   41.66   20.49
   3  -5 -10   51.39   18.96
  -3   5   9   35.73   16.51
  -3   5   9   15.92   13.55
  -3   5   9    9.40    9.74
   3  -5  -9   22.44   16.09
   3  -5  -9   16.17   13.46
  -3   5   8  116.92   22.94
  -3   5   8  150.79   25.15
  -3   5   8  135.04   22.44
  -3   5   8  152.14   17.78
   3  -5  -8  163.49   27.35
   3  -5  -8  126.74   23.45
  -3   5   7  103.38   20.83
  -3   5   7  113.20   21.59
  -3   5   7  105.92   19.56
  -3   5   7   86.53   14.39
   3  -5  -7  113.37   21.84
   3  -5  -7  110.32   20.91
  -3   5   6   98.13   18.80
  -3   5   6  128.18   22.01
  -3   5   6  128.27   20.49
  -3   5   6  123.44   14.14
   3  -5  -6  144.01   21.59
   3  -5  -6   97.45   18.20
  -3   5   5   13.55    9.40
  -3   5   5    7.62    9.06
  -3   5   5   16.59    9.23
  -3   5   5   13.89    7.37
   3  -5  -5   20.23   11.09
   3  -5  -5    3.64    6.18
   3  -5  -5   15.07    8.89
  -3   5   4  268.13   22.35
  -3   5   4  296.33   18.46
  -3   5   4  350.68   25.40
  -3   5   4  300.56   23.28
  -3   5   4  326.64   19.05
  -3   5   4  335.78   19.56
   3  -5  -4  390.39   24.98
   3  -5  -4  286.93   23.11
   3  -5  -4  309.03   19.13
  -3   5   3  170.60   16.59
  -3   5   3  225.63   16.34
  -3   5   3  208.28   19.22
  -3   5   3  273.47   20.83
  -3   5   3  140.80   15.58
  -3   5   3  229.02   15.75
  -3   5   3  213.10   16.51
   3  -5  -3  242.06   18.71
   3  -5  -3  179.74   17.95
   3  -5  -3  172.04   14.90
  -3   5   2   74.67   13.29
  -3   5   2  101.94   14.05
  -3   5   2  131.91   15.07
  -3   5   2  140.12   14.65
  -3   5   2   90.00   14.73
  -3   5   2  119.72   11.85
  -3   5   2   92.79   11.60
   3  -5  -2  114.97   12.78
   3  -5  -2   84.92   14.22
   3  -5  -2  100.58   12.28
   3  -5  -2  106.68    7.11
  -3   5   1   15.32    6.27
  -3   5   1   11.77    6.27
  -3   5   1   27.43    8.81
  -3   5   1   27.01    8.55
  -3   5   1   24.98    5.50
  -3   5   1   14.48    7.28
  -3   5   1   17.02    6.52
  -3   5   1   16.68    7.37
   3  -5  -1   21.25    6.86
   3  -5  -1   18.37    7.70
   3  -5  -1   14.56    6.86
   3  -5  -1   18.12    4.91
  -3   5   0  114.04   12.45
  -3   5   0  124.46   13.29
  -3   5   0  145.88   13.29
  -3   5   0  143.93   14.90
  -3   5   0  136.90   10.75
  -3   5   0  107.78   13.21
  -3   5   0  159.51   13.29
  -3   5   0  132.50   13.89
   3  -5   0  145.54   11.43
   3  -5   0  113.96   13.04
   3  -5   0  122.59   10.41
  -3   5  -1  279.06   17.10
  -3   5  -1  312.33   20.15
  -3   5  -1  380.65   20.23
  -3   5  -1  326.21   20.32
  -3   5  -1  307.42   16.59
  -3   5  -1  283.20   18.96
  -3   5  -1  338.49   18.80
  -3   5  -1  287.01   19.56
   3  -5   1  352.97   16.00
   3  -5   1  370.49   19.64
   3  -5   1  276.18   19.39
   3  -5   1  282.36   16.00
  -3   5  -2  581.56   23.96
  -3   5  -2  514.76   25.31
  -3   5  -2  732.52   26.84
  -3   5  -2  724.48   29.46
  -3   5  -2  593.75   24.55
  -3   5  -2  520.18   23.96
  -3   5  -2  784.67   28.11
  -3   5  -2  521.45   25.48
   3  -5   2  729.13   21.76
   3  -5   2  728.03   26.84
   3  -5   2  641.84   28.79
   3  -5   2  651.33   25.82
   3  -5   2  644.05   23.62
  -3   5  -3  186.52   16.76
  -3   5  -3  236.64   15.83
  -3   5  -3  238.92   18.20
  -3   5  -3  188.13   16.00
  -3   5  -3  153.67   13.55
  -3   5  -3  236.72   16.68
  -3   5  -3  189.56   16.85
   3  -5   3  230.54   13.21
   3  -5   3  229.86   15.75
   3  -5   3  174.16   16.51
   3  -5   3  204.80   15.92
   3  -5   3  198.29   15.41
  -3   5  -4  712.96   31.16
  -3   5  -4  854.44   28.79
  -3   5  -4  843.77   33.27
  -3   5  -4  689.34   30.56
  -3   5  -4  672.32   24.98
  -3   5  -4  871.29   31.66
  -3   5  -4  746.15   31.83
   3  -5   4  839.28   25.31
   3  -5   4  822.60   28.36
   3  -5   4  640.66   29.97
   3  -5   4  748.27   31.75
   3  -5   4  722.11   28.45
  -3   5  -5  118.87   14.73
  -3   5  -5  176.36   14.56
  -3   5  -5  162.56   17.27
  -3   5  -5  138.00   16.59
  -3   5  -5  146.89   12.62
  -3   5  -5  178.22   16.09
  -3   5  -5  109.73   15.75
   3  -5   5  154.26   12.62
   3  -5   5  166.03   14.82
   3  -5   5  136.99   15.75
   3  -5   5  140.37   15.41
   3  -5   5  147.82   15.49
  -3   5  -6  139.78   18.80
  -3   5  -6  174.41   15.75
  -3   5  -6  155.44   17.95
  -3   5  -6  108.37   17.53
  -3   5  -6  124.29   17.44
   3  -5   6  129.79   13.55
   3  -5   6  145.54   14.65
   3  -5   6  106.85   16.42
   3  -5   6  140.54   19.98
   3  -5   6  136.31   16.85
  -3   5  -7  201.16   18.63
  -3   5  -7  275.84   19.39
  -3   5  -7  290.06   24.04
  -3   5  -7  199.55   21.76
  -3   5  -7  176.95   17.78
   3  -5   7  251.88   19.30
   3  -5   7  228.51   18.03
   3  -5   7  227.75   20.40
   3  -5   7  234.61   22.77
   3  -5   7  204.47   19.90
  -3   5  -8  138.93   16.93
  -3   5  -8   80.94   14.82
  -3   5  -8  140.29   21.59
  -3   5  -8  113.62   20.07
  -3   5  -8   87.54   15.24
   3  -5   8  140.80   16.93
   3  -5   8   99.40   16.34
   3  -5   8   85.34   18.37
   3  -5   8  101.77   18.03
  -3   5  -9    3.73    7.62
  -3   5  -9   11.60   10.41
  -3   5  -9    0.76    9.65
   3  -5   9    5.25    8.13
   3  -5   9   -0.17    8.38
   3  -5   9   10.75    9.82
  -3   5 -10    9.14   10.67
  -3   5 -10   -0.17    9.91
  -3   5 -10    9.06   11.94
   3  -5  10    6.27   10.75
   3  -5  10    8.97   11.09
   3  -5  10   -1.19    9.74
  -3   5 -11   33.19   15.83
  -3   5 -11   30.39   14.73
   3  -5  11   21.08   12.53
  -3   5 -12   -9.06   10.24
  -3   5 -12   -5.16   11.68
   3  -5  12    0.85   10.75
  -3   4  11   68.83   21.00
  -3   4  11   74.59   22.01
  -3   4  11   77.55   17.10
   3  -4 -11   97.03   24.38
   3  -4 -11   74.17   22.01
  -3   4  10   11.09   12.53
  -3   4  10    9.48   12.53
  -3   4  10   15.32    9.91
   3  -4 -10    8.30   15.07
   3  -4 -10   -0.25   11.35
  -3   4   9   61.55   16.93
  -3   4   9   87.29   20.40
  -3   4   9  114.89   17.36
   3  -4  -9  129.96   24.21
   3  -4  -9   98.30   20.49
  -3   4   8  182.03   21.25
  -3   4   8  227.33   24.04
  -3   4   8  189.48   21.59
  -3   4   8  216.83   18.29
   3  -4  -8  260.60   27.18
   3  -4  -8  209.63   24.04
  -3   4   7   13.38    8.64
  -3   4   7    9.91    9.57
  -3   4   7   10.41    8.64
  -3   4   7   10.50    6.60
   3  -4  -7   21.84   12.70
   3  -4  -7   24.55   11.26
  -3   4   6   22.69   10.41
  -3   4   6   19.56    9.40
  -3   4   6   18.20    9.23
  -3   4   6   18.12    6.86
   3  -4  -6   40.22   13.29
   3  -4  -6   19.13    9.14
  -3   4   5   79.67   15.49
  -3   4   5   80.77    9.57
  -3   4   5   89.74   16.09
  -3   4   5   78.40   15.16
  -3   4   5   83.14   10.16
  -3   4   5   86.87   10.16
   3  -4  -5   88.47   15.75
   3  -4  -5   59.35   13.72
   3  -4  -5   76.88   10.84
  -3   4   4   90.59   15.41
  -3   4   4   99.48   10.67
  -3   4   4  114.64   16.76
  -3   4   4  121.16   17.44
  -3   4   4   98.13   15.32
  -3   4   4  101.85    9.91
  -3   4   4   92.28   10.41
   3  -4  -4  129.88   14.90
   3  -4  -4   76.03   13.89
   3  -4  -4   82.97    9.74
  -3   4   3    9.91    5.59
  -3   4   3   14.05    5.76
  -3   4   3   15.75    6.86
  -3   4   3   18.88    7.20
  -3   4   3   15.41    3.30
  -3   4   3   16.09    7.37
  -3   4   3   18.63    6.43
  -3   4   3   18.29    5.59
  -3   4   3   12.02    5.50
   3  -4  -3   14.05    6.86
   3  -4  -3   14.31    7.03
   3  -4  -3   14.05    5.84
   3  -4  -3   16.76    3.39
  -3   4   2   75.61   12.45
  -3   4   2   97.79   10.67
  -3   4   2  113.54   12.95
  -3   4   2  118.45   12.36
  -3   4   2   98.30    6.94
  -3   4   2  104.39   14.56
  -3   4   2  114.47    9.74
  -3   4   2  110.74    9.57
  -3   4   2   92.54   10.58
   3  -4  -2  117.77   11.43
   3  -4  -2   80.43   12.95
   3  -4  -2   79.92   11.51
   3  -4  -2   86.19    6.86
  -3   4   1  200.99   14.82
  -3   4   1  208.11   14.90
  -3   4   1  283.63   17.53
  -3   4   1  266.69   17.53
  -3   4   1  264.58   12.28
  -3   4   1  248.66   17.44
  -3   4   1  280.92   14.39
  -3   4   1  229.53   15.75
   3  -4  -1  281.43   14.56
   3  -4  -1  211.24   15.32
   3  -4  -1  220.72   11.60
  -3   4   0   65.45   11.01
  -3   4   0   65.87   10.75
  -3   4   0   81.36   11.85
  -3   4   0   89.32   12.45
  -3   4   0   68.83    7.87
  -3   4   0   62.65   10.92
  -3   4   0   78.57    8.81
  -3   4   0   78.65   11.85
   3  -4   0   83.39    7.87
   3  -4   0   62.57   10.84
   3  -4   0   65.53    8.97
  -3   4  -1  188.89   13.89
  -3   4  -1  177.97   14.48
  -3   4  -1  270.59   16.34
  -3   4  -1  244.26   16.09
  -3   4  -1  211.07   13.63
  -3   4  -1  186.86   14.48
  -3   4  -1  262.29   15.16
  -3   4  -1  217.33   15.92
   3  -4   1  249.93   11.26
   3  -4   1  225.55   15.07
   3  -4   1  205.40   15.75
   3  -4   1  219.28   14.05
  -3   4  -2   92.71   10.08
  -3   4  -2   84.50   12.28
  -3   4  -2  126.32   11.77
  -3   4  -2  120.90   12.19
  -3   4  -2   97.79   11.09
  -3   4  -2   86.44   11.94
  -3   4  -2  104.98   10.67
  -3   4  -2   83.82   10.33
   3  -4   2  104.56    7.70
   3  -4   2  106.76   11.18
   3  -4   2   98.80   13.72
   3  -4   2   86.36   11.85
   3  -4   2  103.97   10.16
  -3   4  -3  213.86   16.26
  -3   4  -3  297.26   16.85
  -3   4  -3  274.99   16.93
  -3   4  -3  211.92   16.17
  -3   4  -3  239.69   14.73
  -3   4  -3  304.20   17.36
  -3   4  -3  237.99   17.02
   3  -4   3  264.07   11.94
   3  -4   3  294.38   16.76
   3  -4   3  215.81   15.92
   3  -4   3  249.08   17.36
   3  -4   3  241.89   15.32
  -3   4  -4   40.13    9.14
  -3   4  -4   70.86   11.51
  -3   4  -4   62.31   11.35
  -3   4  -4   44.79   10.58
  -3   4  -4   44.79    8.38
  -3   4  -4   54.27   10.24
  -3   4  -4   35.22    8.55
   3  -4   4   45.21    7.54
   3  -4   4   46.65    9.23
   3  -4   4   49.36   10.75
   3  -4   4   47.33   10.84
   3  -4   4   57.91   10.67
  -3   4  -5   45.04   10.24
  -3   4  -5   75.44   12.02
  -3   4  -5   62.31   12.02
  -3   4  -5   41.15   11.26
  -3   4  -5   49.11    8.30
  -3   4  -5   70.53   12.11
  -3   4  -5   41.32    9.74
   3  -4   5   69.68   10.16
   3  -4   5   58.84   10.92
   3  -4   5   54.35   11.18
   3  -4   5   41.32   11.35
   3  -4   5   48.09   10.67
  -3   4  -6  135.55   14.14
  -3   4  -6  177.37   16.00
  -3   4  -6  187.79   17.95
  -3   4  -6  141.05   17.19
  -3   4  -6  185.92   12.95
  -3   4  -6  203.70   18.12
  -3   4  -6  135.89   14.31
   3  -4   6  163.57   13.72
   3  -4   6  174.32   15.16
   3  -4   6  137.58   15.24
   3  -4   6  136.06   15.66
   3  -4   6  232.66   19.22
   3  -4   6  140.12   16.26
  -3   4  -7  135.21   14.31
  -3   4  -7  108.71   15.32
  -3   4  -7  133.77   15.49
  -3   4  -7  149.77   20.32
  -3   4  -7  120.05   19.39
  -3   4  -7  110.15   15.58
   3  -4   7  128.18   14.14
   3  -4   7  129.20   14.48
   3  -4   7  108.54   15.49
   3  -4   7  114.21   18.88
   3  -4   7  110.91   17.19
  -3   4  -8  188.80   17.95
  -3   4  -8  150.53   15.41
  -3   4  -8  196.93   18.29
  -3   4  -8  193.12   21.00
  -3   4  -8  142.24   21.59
  -3   4  -8  125.98   14.22
   3  -4   8  159.34   17.02
   3  -4   8  153.92   16.42
   3  -4   8  143.42   15.24
   3  -4   8  146.89   21.67
   3  -4   8  144.27   20.32
  -3   4  -9  115.48   18.54
  -3   4  -9  115.91   18.20
  -3   4  -9  130.55   21.93
  -3   4  -9   90.42   18.96
   3  -4   9   96.43   17.19
   3  -4   9   92.20   19.13
   3  -4   9   85.51   17.27
  -3   4 -10   39.62   13.38
  -3   4 -10   30.90   14.14
  -3   4 -10   36.58   15.92
   3  -4  10   39.54   13.46
   3  -4  10   32.09   13.21
   3  -4  10   30.90   13.29
  -3   4 -11   -1.61    9.82
  -3   4 -11    9.99   12.19
  -3   4 -11    4.06   11.77
   3  -4  11   -1.10    8.97
   3  -4  11    2.62   10.75
  -3   4 -12    0.59   12.36
  -3   4 -12    4.15   12.53
   3  -4  12    7.03   11.43
  -3   3  11    5.16   11.18
  -3   3  11    4.49   12.53
  -3   3  11    5.08    8.47
   3  -3 -11   11.60   12.70
   3  -3 -11    7.96    9.65
   3  -3 -11    4.32   11.01
  -3   3  10   66.97   18.54
  -3   3  10   83.06   20.40
  -3   3  10   84.24   15.66
   3  -3 -10   78.74   21.08
   3  -3 -10   59.52   17.02
  -3   3   9  324.60   28.45
  -3   3   9  366.51   31.50
  -3   3   9  368.04   22.35
   3  -3  -9  411.98   33.44
   3  -3  -9  287.61   27.35
  -3   3   8    0.68    8.13
  -3   3   8   12.36   10.16
  -3   3   8    5.00    8.81
  -3   3   8    6.35    5.93
   3  -3  -8    7.20   10.75
   3  -3  -8    9.06    9.14
  -3   3   7  312.67   24.89
  -3   3   7  419.01   29.12
  -3   3   7  322.07   22.61
  -3   3   7  372.10   18.46
   3  -3  -7  420.19   28.87
   3  -3  -7  338.15   25.74
  -3   3   6    3.05    7.03
  -3   3   6   10.08    7.20
  -3   3   6   14.56    7.87
  -3   3   6   15.24    5.42
  -3   3   6   14.39    5.00
   3  -3  -6   10.67    9.31
   3  -3  -6    9.65    6.77
  -3   3   5  258.65   20.15
  -3   3   5  292.35   15.07
  -3   3   5  268.81   19.81
  -3   3   5  381.50   24.13
  -3   3   5  258.14   18.80
  -3   3   5  351.87   20.74
  -3   3   5  315.29   13.97
  -3   3   5  301.91   15.24
   3  -3  -5  357.88   21.76
   3  -3  -5  238.16   18.71
   3  -3  -5  286.84   15.16
   3  -3  -5  328.84   12.28
   3  -3  -5  294.97   13.38
  -3   3   4  147.15   14.82
  -3   3   4  174.16   12.19
  -3   3   4  183.21   16.34
  -3   3   4  221.57   16.93
  -3   3   4  195.32    8.89
  -3   3   4  135.89   13.04
  -3   3   4  202.94   10.24
  -3   3   4  182.79    9.91
  -3   3   4  178.56   12.36
   3  -3  -4  224.28   16.51
   3  -3  -4  170.01   15.75
   3  -3  -4  150.96   11.60
   3  -3  -4  183.38    8.81
  -3   3   3  348.06   19.73
  -3   3   3  387.43   17.61
  -3   3   3  467.35   23.11
  -3   3   3  563.78   24.72
  -3   3   3  466.00   13.72
  -3   3   3  362.96   20.07
  -3   3   3  525.09   14.99
  -3   3   3  505.45   14.82
  -3   3   3  416.47   18.29
   3  -3  -3  550.58   21.93
   3  -3  -3  380.91   20.83
   3  -3  -3  407.83   18.29
   3  -3  -3  477.34   13.89
  -3   3   2   99.82   10.75
  -3   3   2  101.17    9.99
  -3   3   2  115.91   12.28
  -3   3   2  151.38   13.21
  -3   3   2  133.26    8.38
  -3   3   2  124.37   12.53
  -3   3   2  126.66    8.21
  -3   3   2  145.54    8.64
  -3   3   2  102.78   10.16
   3  -3  -2  156.88   11.35
   3  -3  -2   88.90    9.74
   3  -3  -2   98.21    7.54
  -3   3   1   72.64   10.84
  -3   3   1   91.69    9.99
  -3   3   1   84.24   10.50
  -3   3   1   99.14   10.58
  -3   3   1   84.33    7.87
  -3   3   1   77.47   11.35
  -3   3   1   86.02    7.54
  -3   3   1   98.55    7.96
  -3   3   1   83.14    9.74
   3  -3  -1  101.51    8.89
   3  -3  -1   70.19   10.33
   3  -3  -1   77.89    7.87
  -3   3   0  193.63   13.12
  -3   3   0  168.74   12.36
  -3   3   0  243.92   15.16
  -3   3   0  267.88   14.90
  -3   3   0  189.99   11.60
  -3   3   0  223.85   14.90
  -3   3   0  270.00   12.87
  -3   3   0  173.14   13.21
   3  -3   0  248.32    9.74
   3  -3   0  254.59   14.90
   3  -3   0  179.83   13.63
   3  -3   0  187.96   11.68
  -3   3  -1  639.39   22.44
  -3   3  -1  642.86   23.54
  -3   3  -1  887.54   26.75
  -3   3  -1  886.36   25.23
  -3   3  -1  683.25   22.61
  -3   3  -1  635.58   22.69
  -3   3  -1  850.37   23.28
  -3   3  -1  616.11   23.11
   3  -3   1  866.63   14.48
   3  -3   1  848.93   25.91
   3  -3   1  565.14   22.61
   3  -3   1  698.91   23.03
   3  -3   1  743.02   20.07
  -3   3  -2  150.28   12.78
  -3   3  -2  211.32   13.55
  -3   3  -2  231.05   14.05
  -3   3  -2  167.04   13.29
  -3   3  -2  171.95   12.28
  -3   3  -2  236.47   13.97
  -3   3  -2  162.98   13.21
   3  -3   2  220.21    8.21
   3  -3   2  193.88   13.72
   3  -3   2  180.84   13.97
   3  -3   2  198.96   14.39
   3  -3   2  198.12   12.36
  -3   3  -3  712.79   25.57
  -3   3  -3 1027.66   29.55
  -3   3  -3 1003.53   28.79
  -3   3  -3  812.10   28.70
  -3   3  -3  912.09   25.48
  -3   3  -3 1026.39   29.12
  -3   3  -3  732.94   25.99
   3  -3   3  883.82   19.13
   3  -3   3  922.85   28.02
   3  -3   3  873.57   28.53
   3  -3   3  799.57   28.53
   3  -3   3  886.61   26.33
  -3   3  -4  159.85   13.21
  -3   3  -4  211.83   14.90
  -3   3  -4  218.18   15.16
  -3   3  -4  166.37   15.24
  -3   3  -4  217.67   12.70
  -3   3  -4  238.16   15.49
  -3   3  -4  175.93   13.80
   3  -3   4  202.26   11.43
   3  -3   4  185.84   13.97
   3  -3   4  159.09   13.55
   3  -3   4  175.00   15.49
   3  -3   4  190.50   14.31
  -3   3  -5  773.84   24.47
  -3   3  -5  609.59   24.98
  -3   3  -5  776.46   28.45
  -3   3  -5  807.03   29.55
  -3   3  -5  612.97   28.28
  -3   3  -5  714.99   21.00
  -3   3  -5  761.73   27.94
  -3   3  -5  608.40   24.98
   3  -3   5  634.14   22.27
   3  -3   5  683.92   26.67
   3  -3   5  678.50   26.42
   3  -3   5  614.41   28.36
   3  -3   5  728.12   21.42
   3  -3   5  619.83   25.91
  -3   3  -6  147.15   13.63
  -3   3  -6  102.11   12.02
  -3   3  -6  132.92   14.22
  -3   3  -6  147.40   16.17
  -3   3  -6  128.86   18.29
  -3   3  -6  162.22   15.07
  -3   3  -6  115.99   12.70
   3  -3   6  115.14   12.53
   3  -3   6  104.56   12.95
   3  -3   6   -1.52    2.62
   3  -3   6  104.98   16.42
   3  -3   6  128.44   10.08
   3  -3   6  119.21   14.31
  -3   3  -7  270.00   19.05
  -3   3  -7  220.04   16.51
  -3   3  -7  289.38   20.74
  -3   3  -7  314.19   23.03
  -3   3  -7  247.05   21.25
  -3   3  -7  219.96   16.51
   3  -3   7  229.86   17.86
   3  -3   7  232.66   17.27
   3  -3   7  253.83   22.18
   3  -3   7  231.47   20.07
  -3   3  -8  277.11   21.50
  -3   3  -8  244.68   20.66
  -3   3  -8  277.70   23.45
  -3   3  -8  190.58   21.59
   3  -3   8  206.33   19.13
   3  -3   8  205.40   19.13
   3  -3   8  196.08   21.34
   3  -3   8  230.97   21.50
  -3   3  -9   93.30   17.69
  -3   3  -9  112.94   18.96
  -3   3  -9  108.20   19.81
  -3   3  -9   61.47   15.49
   3  -3   9   78.99   16.17
   3  -3   9   68.41   16.26
   3  -3   9   77.64   16.76
  -3   3 -10  242.82   24.30
  -3   3 -10  207.85   23.11
  -3   3 -10  247.64   25.65
  -3   3 -10  240.45   26.33
   3  -3  10  189.31   21.67
   3  -3  10  211.83   23.96
   3  -3  10  200.74   23.20
  -3   3 -11   16.34   13.55
  -3   3 -11   -6.01   11.77
  -3   3 -11    6.10   12.45
   3  -3  11   -0.76    8.21
   3  -3  11    3.22   11.26
  -3   3 -12  406.39   38.69
  -3   3 -12  409.02   36.15
  -3   3 -12  383.28   35.39
   3  -3  12  319.86   31.83
  -3   2  12    4.74   10.92
  -3   2  12    6.69   11.26
  -3   2  12    1.95    9.23
   3  -2 -12   13.04   13.21
   3  -2 -12    2.71   11.51
   3  -2 -12    3.22    9.40
  -3   2  11   92.03   21.34
  -3   2  11   80.85   20.66
  -3   2  11  102.11   16.68
   3  -2 -11  127.51   25.65
   3  -2 -11   94.49   20.57
   3  -2 -11   76.37   19.98
  -3   2  10  103.55   20.91
  -3   2  10  115.99   22.52
  -3   2  10  120.14   14.48
   3  -2 -10  145.28   25.15
   3  -2 -10  119.63   22.01
   3  -2 -10  131.82   23.71
  -3   2   9   10.92    9.65
  -3   2   9   17.53   11.43
  -3   2   9   13.38    6.94
   3  -2  -9   18.20   12.19
   3  -2  -9    8.72    9.31
  -3   2   8   99.06   18.29
  -3   2   8  127.51   20.40
  -3   2   8  111.67   16.42
  -3   2   8  124.63   11.85
   3  -2  -8  182.03   25.06
   3  -2  -8  113.62   18.80
  -3   2   7  166.37   17.86
  -3   2   7  233.17   20.74
  -3   2   7  191.34   17.02
  -3   2   7  224.45   12.78
   3  -2  -7  219.96   21.42
   3  -2  -7  203.03   18.37
  -3   2   6   83.48   14.48
  -3   2   6  102.19    9.14
  -3   2   6  121.41   17.69
  -3   2   6  114.97    9.65
  -3   2   6  103.71   14.39
  -3   2   6  122.09    8.30
  -3   2   6  125.90    8.38
  -3   2   6  117.01    9.65
   3  -2  -6  127.42   14.56
   3  -2  -6   85.93   14.22
   3  -2  -6   94.57    8.72
   3  -2  -6   92.62    9.48
   3  -2  -6  119.80    9.91
  -3   2   5  182.88   15.92
  -3   2   5  229.44   12.70
  -3   2   5  202.43   16.68
  -3   2   5  238.59   18.37
  -3   2   5  215.81   11.51
  -3   2   5  171.62   14.39
  -3   2   5  253.99    8.81
  -3   2   5  229.86    8.38
  -3   2   5  232.32   12.95
   3  -2  -5  256.45   18.37
   3  -2  -5  184.65   16.00
   3  -2  -5  170.35   11.26
   3  -2  -5  204.72   11.35
   3  -2  -5  189.90   11.77
  -3   2   4    7.62    5.76
  -3   2   4    5.33    3.98
  -3   2   4    3.47    5.42
  -3   2   4    5.93    5.59
  -3   2   4    8.55    3.81
  -3   2   4    4.66    3.22
  -3   2   4   10.58    5.84
  -3   2   4    7.37    1.61
  -3   2   4    1.69    3.81
   3  -2  -4    8.55    5.76
   3  -2  -4    5.33    5.50
   3  -2  -4   10.08    4.23
   3  -2  -4   10.84    3.98
   3  -2  -4    8.89    3.98
   3  -2  -4    9.57    4.49
  -3   2   3   11.60    6.10
  -3   2   3   21.84    6.10
  -3   2   3   18.63    6.10
  -3   2   3   23.88    7.20
  -3   2   3   24.81    5.33
  -3   2   3   20.32    4.91
  -3   2   3   15.75    6.52
  -3   2   3   20.49    6.18
   3  -2  -3   26.84    6.77
   3  -2  -3   15.75    5.93
   3  -2  -3   13.55    5.42
   3  -2  -3   19.13    4.83
   3  -2  -3   18.54    5.50
  -3   2   2    2.37    3.81
  -3   2   2    2.20    3.98
  -3   2   2    4.57    5.33
  -3   2   2    3.05    4.49
  -3   2   2    4.06    3.47
  -3   2   2    3.81    5.16
  -3   2   2    5.67    1.86
  -3   2   2    4.23    4.15
   3  -2  -2    4.83    4.49
   3  -2  -2    7.87    4.57
   3  -2  -2    5.25    3.89
   3  -2  -2    4.49    4.06
  -3   2   1   23.37    6.10
  -3   2   1   33.02    6.43
  -3   2   1   41.40    7.54
  -3   2   1   41.74    7.03
  -3   2   1   45.21    6.77
  -3   2   1   37.85    7.45
  -3   2   1   38.27    4.40
  -3   2   1   35.31    7.28
   3  -2  -1   47.16    5.42
   3  -2  -1   30.14    6.77
   3  -2  -1   35.05    6.27
   3  -2  -1   40.55    8.04
  -3   2   0  403.43   17.44
  -3   2   0  367.61   16.34
  -3   2   0  472.18   18.80
  -3   2   0  424.68   16.34
  -3   2   0  440.68   18.12
  -3   2   0  436.02   13.55
  -3   2   0  514.59   14.65
  -3   2   0  369.05   16.76
   3  -2   0  507.14    8.13
   3  -2   0  481.15   19.05
   3  -2   0  353.22   16.09
   3  -2   0  416.38   16.26
  -3   2  -1  170.01   12.02
  -3   2  -1  187.02   12.62
  -3   2  -1   40.30    5.00
  -3   2  -1  159.59   11.60
  -3   2  -1  151.72   10.67
  -3   2  -1  193.54   10.75
  -3   2  -1  159.51   11.77
   3  -2   1  180.25   11.94
   3  -2   1  128.01   10.84
   3  -2   1  192.10   12.62
  -3   2  -2 2072.43   20.57
  -3   2  -2 1566.05   34.12
  -3   2  -2 2160.14   40.22
  -3   2  -2  689.51   19.22
  -3   2  -2 1682.21   36.83
  -3   2  -2 1645.63   32.43
  -3   2  -2 2274.61   38.10
  -3   2  -2 1576.97   34.54
   3  -2   2 1792.95   19.13
   3  -2   2 1902.50   37.93
   3  -2   2 1568.84   34.37
   3  -2   2 1731.06   37.25
   3  -2   2 1862.12   32.68
  -3   2  -3  444.49   13.72
  -3   2  -3  368.55   17.36
  -3   2  -3  458.46   20.32
  -3   2  -3    1.10    1.35
  -3   2  -3  408.59   19.81
  -3   2  -3  416.13   16.51
  -3   2  -3  503.84   20.15
  -3   2  -3  398.86   18.12
   3  -2   3  398.60   13.04
   3  -2   3  427.56   19.56
   3  -2   3  346.11   17.10
   3  -2   3  366.01   18.88
   3  -2   3  469.38   17.61
   3  -2   3  436.53   18.63
  -3   2  -4  343.23   14.73
  -3   2  -4  249.00   14.65
  -3   2  -4  304.54   17.86
  -3   2  -4  367.61   17.86
  -3   2  -4  249.00   16.85
  -3   2  -4  316.99   14.48
  -3   2  -4  343.32   17.86
  -3   2  -4  235.11   14.31
   3  -2   4  285.32   13.63
   3  -2   4  288.28   17.27
   3  -2   4  270.50   15.41
   3  -2   4  263.31   17.36
   3  -2   4  292.69   14.14
   3  -2   4  323.17   17.69
  -3   2  -5   40.98    8.30
  -3   2  -5   26.08    6.94
  -3   2  -5   42.08    9.40
  -3   2  -5   33.36    8.30
  -3   2  -5   28.36    8.47
  -3   2  -5   34.37    8.38
  -3   2  -5   30.06    6.94
   3  -2   5   28.53    7.28
   3  -2   5   24.04    8.04
   3  -2   5   19.39    6.27
   3  -2   5   24.98    8.72
   3  -2   5   35.90    7.11
   3  -2   5   24.38    7.96
  -3   2  -6  283.54   18.29
  -3   2  -6  196.93   13.80
  -3   2  -6  246.88   18.88
  -3   2  -6  222.50   17.44
  -3   2  -6  221.82   18.46
  -3   2  -6  275.16   17.95
  -3   2  -6  188.72   13.72
   3  -2   6  198.20   16.93
   3  -2   6  199.39   14.05
   3  -2   6  211.75   18.03
   3  -2   6  197.86   11.85
   3  -2   6  219.87   17.86
  -3   2  -7  121.75   16.85
  -3   2  -7   83.23    9.91
  -3   2  -7   95.50   16.26
  -3   2  -7  118.11   17.19
  -3   2  -7   95.50   16.34
  -3   2  -7   85.17   10.50
   3  -2   7   95.50   15.83
   3  -2   7   60.37    9.82
   3  -2   7   84.24   15.58
   3  -2   7   72.13   14.31
  -3   2  -8  133.52   18.88
  -3   2  -8  127.59   19.39
  -3   2  -8  154.60   18.20
  -3   2  -8  119.63   19.81
   3  -2   8  118.02   18.37
   3  -2   8  114.64   18.88
   3  -2   8   90.76   16.51
  -3   2  -9  113.87   19.13
  -3   2  -9   88.56   17.19
  -3   2  -9   97.45   18.12
  -3   2  -9   90.51   18.12
   3  -2   9   83.06   17.10
   3  -2   9   79.33   16.85
   3  -2   9   67.05   15.58
  -3   2 -10  297.60   27.01
  -3   2 -10  287.95   26.42
  -3   2 -10  283.80   27.77
  -3   2 -10  283.71   27.52
   3  -2  10  270.08   26.16
   3  -2  10  234.35   24.89
  -3   2 -11  429.34   33.78
  -3   2 -11  339.93   30.23
  -3   2 -11  387.60   32.68
  -3   2 -11  360.33   31.75
   3  -2  11  365.41   31.33
   3  -2  11  302.93   28.96
  -3   2 -12   56.30   20.49
  -3   2 -12   34.04   17.53
  -3   2 -12   53.34   17.78
   3  -2  12   33.87   14.82
  -3   1  12   36.91   16.85
  -3   1  12   28.70   11.18
   3  -1 -12   37.59   18.71
   3  -1 -12   30.99   14.48
   3  -1 -12   45.72   17.53
  -3   1  11   21.08   11.51
  -3   1  11   15.32   13.29
  -3   1  11   15.58    8.81
   3  -1 -11   26.50   15.75
   3  -1 -11   24.21   12.28
   3  -1 -11   13.04   12.11
  -3   1  10    3.98    8.81
  -3   1  10   -1.02    6.86
  -3   1  10    1.27    5.67
   3  -1 -10    5.16   11.35
   3  -1 -10    4.57    8.30
   3  -1 -10    3.47    9.82
  -3   1   9  132.84   20.83
  -3   1   9  150.45   22.94
  -3   1   9  164.42   13.72
   3  -1  -9  172.55   24.64
   3  -1  -9  147.99   18.20
   3  -1  -9  163.06   23.79
  -3   1   8  111.16   18.96
  -3   1   8   81.19   15.41
  -3   1   8  104.73   18.46
  -3   1   8  114.30   12.95
  -3   1   8  115.99   17.61
  -3   1   8  103.55    9.99
   3  -1  -8  147.66   21.59
   3  -1  -8  105.32   16.51
   3  -1  -8  127.93   16.09
  -3   1   7  108.37   16.85
  -3   1   7   97.45   15.49
  -3   1   7  126.07   14.31
  -3   1   7  118.78   17.44
  -3   1   7  102.61   10.92
  -3   1   7   93.89   12.95
  -3   1   7  133.26    8.64
  -3   1   7  118.19   11.35
   3  -1  -7  156.63   16.51
   3  -1  -7  122.17   14.39
   3  -1  -7  105.07   15.83
   3  -1  -7  120.73   11.01
   3  -1  -7  102.95   13.46
   3  -1  -7  122.76   10.33
  -3   1   6  311.74   20.83
  -3   1   6  302.51   19.47
  -3   1   6  327.14   14.99
  -3   1   6  361.86   16.00
  -3   1   6  333.49   22.01
  -3   1   6  320.54   16.68
  -3   1   6  325.20   17.78
  -3   1   6  319.78    8.13
  -3   1   6  373.46    8.97
   3  -1  -6  393.35   23.45
   3  -1  -6  337.30   15.32
   3  -1  -6  285.74   18.96
   3  -1  -6  295.56   14.39
   3  -1  -6  339.08   17.36
   3  -1  -6  301.66   14.22
   3  -1  -6  358.89   15.83
  -3   1   5  576.74   24.89
  -3   1   5  492.83   22.18
  -3   1   5  634.39   20.40
  -3   1   5  666.31   26.08
  -3   1   5  696.96   21.50
  -3   1   5  642.18   27.01
  -3   1   5  602.39   20.74
  -3   1   5  628.81   21.17
  -3   1   5  580.63   22.44
  -3   1   5  655.31   20.83
   3  -1  -5  629.99   26.16
   3  -1  -5  528.56   23.28
   3  -1  -5  540.08   18.88
   3  -1  -5  581.99   20.40
   3  -1  -5  547.19   18.96
   3  -1  -5  622.37   20.40
  -3   1   4  465.49   20.15
  -3   1   4  355.68   18.20
  -3   1   4  481.40   18.03
  -3   1   4  492.33   21.17
  -3   1   4  185.25   11.51
  -3   1   4  507.14   21.84
  -3   1   4  478.10   17.53
  -3   1   4  510.27   18.20
  -3   1   4  440.34   18.96
  -3   1   4  534.23   19.05
   3  -1  -4  513.32   21.25
   3  -1  -4  398.77   19.05
   3  -1  -4  416.80   16.93
   3  -1  -4  469.04   17.69
   3  -1  -4  431.88   16.93
   3  -1  -4  498.17   18.54
  -3   1   3   21.25    6.10
  -3   1   3   20.83    6.35
  -3   1   3   19.98    5.93
  -3   1   3   23.62    6.77
  -3   1   3   16.76    5.59
  -3   1   3   28.96    6.86
  -3   1   3   -0.59    1.10
  -3   1   3   21.76    5.42
  -3   1   3   15.83    6.10
  -3   1   3   23.62    6.27
   3  -1  -3   21.00    6.52
   3  -1  -3   10.67    4.83
   3  -1  -3   19.22    5.25
   3  -1  -3   20.57    5.67
  -3   1   2  353.73   12.70
  -3   1   2  374.64   16.17
  -3   1   2  403.51   16.34
  -3   1   2  441.19   17.69
  -3   1   2  497.66   18.20
  -3   1   2  475.82   16.34
  -3   1   2  410.12   15.32
  -3   1   2  438.82   15.75
  -3   1   2  318.26   14.99
  -3   1   2  414.94   16.68
   3  -1  -2  404.61   13.63
   3  -1  -2  409.19   16.59
   3  -1  -2  363.21   14.48
   3  -1  -2  306.99   14.39
  -3   1   1  324.01    9.40
  -3   1   1  289.81   14.05
  -3   1   1  297.09   13.89
  -3   1   1  363.97   15.41
  -3   1   1  393.52   16.26
  -3   1   1  376.84   12.36
  -3   1   1  366.77   14.65
  -3   1   1  366.43   16.00
  -3   1   1  381.84    6.77
  -3   1   1  368.21    6.77
  -3   1   1  304.29   14.39
   3  -1  -1  383.70   16.09
   3  -1  -1  307.16   14.48
   3  -1  -1  323.25   13.80
   3  -1  -1  247.56   12.95
  -3   1   0  520.27    7.03
  -3   1   0  429.25   16.59
  -3   1   0  558.28   19.13
  -3   1   0  571.57   19.13
  -3   1   0  594.77   13.55
  -3   1   0  475.99   17.02
  -3   1   0  583.43   19.39
  -3   1   0  570.30   13.97
  -3   1   0  500.62   13.04
  -3   1   0  444.15   17.19
   3  -1   0  548.04   18.96
   3  -1   0  408.51   16.26
   3  -1   0  455.16   17.02
   3  -1   0  384.80   15.92
  -3   1  -1 1596.78   14.05
  -3   1  -1 1383.34   29.80
  -3   1  -1 1608.97   33.10
  -3   1  -1 1671.54   32.77
  -3   1  -1 1708.20   22.35
  -3   1  -1 1451.83   31.41
  -3   1  -1 1659.26   32.00
  -3   1  -1 1751.04   29.04
  -3   1  -1 1390.20   29.97
   3  -1   1 1528.03   32.26
   3  -1   1 1261.84   28.62
   3  -1   1 1366.15   30.39
   3  -1   1 1781.77   33.19
   3  -1   1 1511.44   24.81
   3  -1   1 1128.75   26.84
  -3   1  -2 1441.33   20.66
  -3   1  -2 1106.57   27.01
  -3   1  -2 1355.06   32.34
  -3   1  -2 1522.87   24.30
  -3   1  -2 1201.14   30.48
  -3   1  -2 1393.16   29.46
  -3   1  -2 1145.43   27.60
   3  -1   2 1332.88   32.00
   3  -1   2 1109.96   27.09
   3  -1   2 1163.04   30.31
   3  -1   2 1432.53   29.97
   3  -1   2 1327.54   27.43
   3  -1   2 1024.78   25.91
  -3   1  -3  272.62   12.19
  -3   1  -3  219.03   12.95
  -3   1  -3  252.98   16.09
  -3   1  -3  301.15   13.46
  -3   1  -3  219.11   15.16
  -3   1  -3  294.46   15.66
  -3   1  -3  233.25   13.55
   3  -1   3  251.20   15.24
   3  -1   3  192.27   12.19
   3  -1   3  231.47   15.58
   3  -1   3  275.50   14.31
   3  -1   3  253.06   14.65
   3  -1   3  210.05   12.70
  -3   1  -4  555.74   19.64
  -3   1  -4  416.97   17.02
  -3   1  -4  512.90   22.86
  -3   1  -4  533.39   19.56
  -3   1  -4  434.42   21.25
  -3   1  -4  533.39   21.84
  -3   1  -4  409.61   16.93
   3  -1   4  430.27   21.42
   3  -1   4  409.86   17.02
   3  -1   4  523.40   23.71
   3  -1   4  519.93   18.63
   3  -1   4  505.87   21.50
   3  -1   4  462.86   18.03
  -3   1  -5  110.74   11.77
  -3   1  -5  107.52    9.57
  -3   1  -5  125.22   13.97
  -3   1  -5   96.35   13.80
  -3   1  -5  125.81   12.19
  -3   1  -5   95.93    9.31
   3  -1   5   91.78   14.14
   3  -1   5   87.63    8.89
   3  -1   5   90.85   13.63
   3  -1   5  111.76    9.91
   3  -1   5  114.47   12.95
   3  -1   5   95.25   10.67
  -3   1  -6  503.59   24.21
  -3   1  -6  434.42   17.69
  -3   1  -6  421.12   24.72
  -3   1  -6  517.81   24.47
  -3   1  -6  436.70   25.06
  -3   1  -6  609.33   33.19
  -3   1  -6  451.77   18.03
   3  -1   6  372.19   23.03
   3  -1   6  399.03   17.02
   3  -1   6  414.69   24.38
   3  -1   6  417.48   17.61
   3  -1   6  471.67   24.89
  -3   1  -7   22.18    9.40
  -3   1  -7   11.68    8.72
  -3   1  -7   35.47   10.24
  -3   1  -7   17.44    9.06
   3  -1   7   28.70   10.33
   3  -1   7   20.49    8.55
   3  -1   7   23.03   10.33
  -3   1  -8  286.68   23.20
  -3   1  -8  201.59   21.25
  -3   1  -8  239.43   21.25
  -3   1  -8  202.94   20.83
   3  -1   8  177.37   20.07
   3  -1   8  203.20   20.32
   3  -1   8  185.16   20.15
  -3   1  -9   42.76   13.80
  -3   1  -9   44.45   14.48
  -3   1  -9   38.44   12.95
  -3   1  -9   27.85   12.11
   3  -1   9   37.00   13.63
   3  -1   9   38.01   12.53
   3  -1   9   40.72   14.14
  -3   1 -10   15.66   11.94
  -3   1 -10    9.48   11.77
  -3   1 -10   20.40   11.51
  -3   1 -10   21.08   11.85
   3  -1  10   23.79   12.53
   3  -1  10   19.56   10.50
   3  -1  10   15.92   12.36
  -3   1 -11   17.02   13.80
  -3   1 -11   19.22   13.04
  -3   1 -11   16.09   12.53
  -3   1 -11   12.70   11.94
   3  -1  11   19.47   13.29
   3  -1  11   12.62   10.67
   3  -1  11   14.90   12.45
  -3   1 -12   10.58   14.56
  -3   1 -12    9.65   14.22
  -3   1 -12   16.76   14.14
   3  -1  12   17.61   13.72
  -3   0  13   15.07   14.73
  -3   0  13    9.91    9.57
   3   0 -13   10.84   16.51
   3   0 -13    3.22   11.68
  -3   0  12  102.11   22.27
  -3   0  12  136.73   17.02
   3   0 -12  171.19   30.65
   3   0 -12  150.96   26.75
  -3   0  11   -0.76   11.51
  -3   0  11    7.70   12.02
  -3   0  11    4.40    6.69
   3   0 -11    0.00   12.19
   3   0 -11   -0.68    7.70
   3   0 -11    6.60   11.35
  -3   0  10   95.33   20.07
  -3   0  10   83.73   16.34
  -3   0  10   84.83   19.30
  -3   0  10   91.95   13.04
   3   0 -10   97.45   20.74
   3   0 -10   90.08   17.36
   3   0 -10   73.74   17.86
   3   0 -10  101.43   25.57
  -3   0   9   11.35   10.24
  -3   0   9    9.91    8.30
  -3   0   9    7.28    9.65
  -3   0   9    3.30    5.67
  -3   0   9    6.77    5.42
   3   0  -9   15.66   10.84
   3   0  -9   14.39    8.30
   3   0  -9   18.46   10.84
   3   0  -9    9.31    7.87
  -3   0   8  124.97   19.13
  -3   0   8  143.08   15.41
  -3   0   8  150.70   17.44
  -3   0   8    0.17    3.13
  -3   0   8  152.14   10.50
   3   0  -8  189.40   19.22
   3   0  -8  128.69   14.73
   3   0  -8  178.47   18.46
   3   0  -8  151.47   15.41
  -3   0   7  132.42   16.09
  -3   0   7  123.86   13.38
  -3   0   7  152.74   11.85
  -3   0   7  147.15   16.93
  -3   0   7  147.91   13.38
  -3   0   7  148.93   12.62
  -3   0   7  156.29    7.87
  -3   0   7  165.10    8.04
   3   0  -7  151.97   17.10
   3   0  -7  138.34   11.35
   3   0  -7  127.59   13.29
   3   0  -7  165.44   17.19
   3   0  -7  146.47   14.05
   3   0  -7  143.42   11.60
  -3   0   6  535.08   26.16
  -3   0   6  458.04   21.34
  -3   0   6  559.89   20.15
  -3   0   6  592.06   20.83
  -3   0   6  575.30   27.18
  -3   0   6  515.78   22.44
  -3   0   6  538.04   20.32
   3   0  -6  580.12   27.18
   3   0  -6  537.79   19.90
   3   0  -6  493.85   22.01
   3   0  -6  589.61   27.35
   3   0  -6  529.41   22.61
   3   0  -6  546.51   20.07
  -3   0   5 1447.09   38.01
  -3   0   5 1322.04   32.77
  -3   0   5 1439.30   31.41
  -3   0   5 1507.97   34.88
  -3   0   5 1559.70   32.77
  -3   0   5 1491.29   38.69
  -3   0   5 1367.59   33.36
  -3   0   5 1504.83   35.05
  -3   0   5 1436.59   31.50
   3   0  -5 1409.08   31.24
   3   0  -5 1214.94   31.33
   3   0  -5 1418.56   34.12
   3   0  -5 1432.19   32.09
   3   0  -5 1428.63   31.50
  -3   0   4  845.97   26.42
  -3   0   4  770.28   23.45
  -3   0   4  902.02   24.81
  -3   0   4  877.55   24.98
  -3   0   4  832.76   23.96
  -3   0   4  820.23   25.82
  -3   0   4  813.54   24.64
  -3   0   4  766.72   23.71
  -3   0   4  794.49   23.37
  -3   0   4  943.34   25.48
   3   0  -4  695.27   22.18
   3   0  -4  734.72   23.54
   3   0  -4  860.03   24.21
   3   0  -4  896.01   24.98
  -3   0   3  575.55   19.22
  -3   0   3  466.25   17.36
  -3   0   3  476.83   18.12
  -3   0   3  554.22   18.71
  -3   0   3  527.12   19.05
  -3   0   3  622.88   19.90
  -3   0   3  556.50   19.64
  -3   0   3  595.62   20.15
  -3   0   3  571.40   19.64
  -3   0   3  550.58   19.47
   3   0  -3  539.40   18.96
   3   0  -3  551.59   19.56
  -3   0   2  245.02   11.18
  -3   0   2  228.34   11.94
  -3   0   2  245.36   13.04
  -3   0   2  259.50   12.62
  -3   0   2  247.14   13.29
  -3   0   2  231.13   10.08
  -3   0   2  231.22   12.70
  -3   0   2  251.88   13.04
  -3   0   2  207.68   11.77
  -3   0   2  253.99   13.38
   3   0  -2  269.57   12.95
   3   0  -2  196.76   11.77
   3   0  -2  245.95   12.70
   3   0  -2  177.71   11.26
   3   0  -2  257.04   13.55
  -3   0   1  865.19   17.10
  -3   0   1  688.83   20.91
  -3   0   1  894.40   22.44
  -3   0   1  829.04   22.94
  -3   0   1  870.95   14.39
  -3   0   1  910.15   23.71
  -3   0   1  773.84   21.67
  -3   0   1  731.17   21.34
  -3   0   1  852.15   11.35
  -3   0   1  773.92   10.75
  -3   0   1  743.87   21.84
   3   0  -1  893.30   22.61
   3   0  -1  821.16   22.61
   3   0  -1  839.79   22.77
   3   0  -1  683.25   20.57
  -3   0   0  365.84   10.41
  -3   0   0  300.73   13.97
  -3   0   0  326.72   14.56
  -3   0   0  349.92   15.16
  -3   0   0  351.53    5.08
  -3   0   0  296.33   14.14
  -3   0   0  317.49   14.65
  -3   0   0  365.67   11.77
  -3   0   0  343.23   11.43
  -3   0   0  300.98   14.14
   3   0   0  324.86   14.22
   3   0   0  306.40   14.48
   3   0   0  357.96   15.49
   3   0   0  273.38   13.12
  -3   0  -1  415.87   12.11
  -3   0  -1  352.12   15.07
  -3   0  -1  382.26   16.85
  -3   0  -1  428.23   16.59
  -3   0  -1  452.45    7.79
  -3   0  -1  350.68   16.00
  -3   0  -1  466.08   16.00
  -3   0  -1  349.67   15.07
   3   0   1  412.49   17.36
   3   0   1  356.35   15.24
   3   0   1  377.69   16.76
   3   0   1  401.48   16.59
   3   0   1  387.43   13.46
   3   0   1  315.55   14.31
  -3   0  -2  299.21   12.62
  -3   0  -2  242.40   12.78
  -3   0  -2  299.80   16.59
  -3   0  -2  302.93   14.31
  -3   0  -2  318.76   10.33
  -3   0  -2  236.21   14.48
  -3   0  -2  310.21   15.07
  -3   0  -2  261.36   13.29
   3   0   2  260.51   15.49
   3   0   2  229.19   12.53
   3   0   2  268.64   14.82
   3   0   2  321.22   15.58
   3   0   2  275.25   13.80
   3   0   2  270.93   13.63
  -3   0  -3   66.29    8.97
  -3   0  -3   49.61    7.54
  -3   0  -3   65.70   11.09
  -3   0  -3   66.04    8.64
  -3   0  -3   65.87    7.03
  -3   0  -3   66.89   10.58
  -3   0  -3   76.62   10.75
  -3   0  -3   41.57    6.86
   3   0   3   68.75   11.01
   3   0   3   44.96    7.28
   3   0   3   48.00    9.40
   3   0   3   65.70    9.74
   3   0   3   69.00   10.33
   3   0   3   50.71    7.79
  -3   0  -4   17.95    6.77
  -3   0  -4   13.04    4.49
  -3   0  -4   11.18    6.69
  -3   0  -4   14.99    5.33
  -3   0  -4   14.73    6.43
  -3   0  -4   18.29    5.08
   3   0   4   12.45    6.77
   3   0   4   18.29    5.16
   3   0   4   19.56    6.94
   3   0   4   14.65    5.50
   3   0   4   10.58    6.18
   3   0   4   15.16    4.74
  -3   0  -5  716.18   27.26
  -3   0  -5  612.38   19.22
  -3   0  -5  599.26   28.11
  -3   0  -5  321.05   17.02
  -3   0  -5  660.64   27.69
  -3   0  -5  781.29   28.28
  -3   0  -5  605.01   19.13
   3   0   5  562.09   27.09
   3   0   5  543.29   18.03
   3   0   5  651.41   24.21
   3   0   5  599.85   26.33
   3   0   5  610.18   22.52
   3   0   5  643.71   26.92
   3   0   5  570.22   18.46
  -3   0  -6   38.95   10.50
  -3   0  -6   27.94   10.41
  -3   0  -6   30.82    8.55
  -3   0  -6   27.18    8.55
  -3   0  -6   29.55    5.93
   3   0   6   23.11    9.40
   3   0   6   27.35    8.47
   3   0   6   24.72    8.72
   3   0   6   22.94    7.03
   3   0   6   23.45    9.48
   3   0   6   38.95    6.86
  -3   0  -7  610.52   31.58
  -3   0  -7  462.35   28.11
  -3   0  -7  596.72   29.21
  -3   0  -7  523.06   28.36
   3   0   7  437.46   27.35
   3   0   7  443.98   26.67
   3   0   7  515.78   28.53
  -3   0  -8   24.98   11.94
  -3   0  -8   24.81   12.11
  -3   0  -8   24.72    9.99
  -3   0  -8   21.42   10.58
   3   0   8   37.42   13.55
   3   0   8   17.78    9.14
   3   0   8   22.01   10.75
  -3   0  -9   22.35   12.02
  -3   0  -9   30.23   13.29
  -3   0  -9   30.06   11.60
  -3   0  -9   23.37   11.43
   3   0   9   27.18   12.70
   3   0   9   22.69   10.41
   3   0   9   20.57   12.45
  -3   0 -10    2.88   11.35
  -3   0 -10    7.62   11.51
  -3   0 -10    7.87    9.31
  -3   0 -10    4.66    9.40
   3   0  10    8.81   11.43
   3   0  10    4.49    9.14
   3   0  10   -2.20   10.67
  -3   0 -11  -11.60   12.02
  -3   0 -11   -6.77    9.91
  -3   0 -11    0.76   10.16
   3   0  11   -7.37   10.16
   3   0  11   -3.47   11.94
  -3  -1  13   94.32   23.71
  -3  -1  13   87.04   17.10
   3   1 -13  113.37   26.16
   3   1 -13   88.47   23.45
  -3  -1  12    8.30   12.70
  -3  -1  12   24.98   10.41
   3   1 -12    3.13   12.78
   3   1 -12   32.68   15.92
  -3  -1  11  111.33   23.45
  -3  -1  11  129.03   23.96
  -3  -1  11  157.39   19.30
  -3  -1  11  118.62   14.56
   3   1 -11  166.11   28.28
   3   1 -11  128.52   24.04
   3   1 -11  139.19   22.01
  -3  -1  10  170.26   25.82
  -3  -1  10  144.10   23.45
  -3  -1  10  188.13   19.56
  -3  -1  10  173.39   14.82
   3   1 -10  197.02   22.44
   3   1 -10  206.24   23.96
   3   1 -10  168.65   19.98
  -3  -1   9   30.39   11.60
  -3  -1   9   25.23    9.40
  -3  -1   9   18.46   11.01
  -3  -1   9   30.56   10.24
  -3  -1   9   23.37    7.03
   3   1  -9   28.96   11.94
   3   1  -9   22.86    8.47
   3   1  -9   13.63    9.91
   3   1  -9   18.29    9.57
  -3  -1   8  487.92   28.87
  -3  -1   8  532.97   24.38
  -3  -1   8  603.24   23.37
  -3  -1   8  568.10   31.75
  -3  -1   8  563.02   28.11
  -3  -1   8  561.75   18.12
   3   1  -8  625.08   32.51
   3   1  -8  508.33   21.50
   3   1  -8  490.38   23.28
   3   1  -8  669.11   33.95
   3   1  -8  607.47   29.46
   3   1  -8  541.85   22.18
  -3  -1   7   44.79   11.85
  -3  -1   7   47.92    9.82
  -3  -1   7   54.69    9.31
  -3  -1   7   33.61   10.58
  -3  -1   7   56.05   11.18
  -3  -1   7   62.06    8.97
  -3  -1   7   46.31    5.33
  -3  -1   7   54.35    5.42
   3   1  -7   49.53    9.40
   3   1  -7   50.80    9.57
   3   1  -7   49.02   11.43
   3   1  -7   61.55   12.11
   3   1  -7   54.86    8.38
   3   1  -7   45.47    9.06
  -3  -1   6  901.09   32.93
  -3  -1   6  921.75   26.50
  -3  -1   6  902.27   27.18
  -3  -1   6  968.82   33.95
  -3  -1   6 1030.12   33.02
  -3  -1   6 1012.51   25.65
  -3  -1   6  897.96    7.70
  -3  -1   6  892.96    7.79
   3   1  -6 1000.40   28.79
   3   1  -6  919.88   26.58
   3   1  -6 1092.09   35.81
   3   1  -6 1008.78   32.93
   3   1  -6 1074.90   26.16
   3   1  -6 1029.27   29.29
  -3  -1   5  476.24   22.18
  -3  -1   5  463.62   17.69
  -3  -1   5  568.95   21.59
  -3  -1   5  526.53   18.80
  -3  -1   5  464.56   19.56
  -3  -1   5  504.77   22.61
  -3  -1   5  437.89   20.83
  -3  -1   5  487.58   21.84
  -3  -1   5  527.63   18.88
   3   1  -5  502.74   20.66
   3   1  -5  415.96   16.76
   3   1  -5  571.66   23.96
   3   1  -5  461.85   21.50
   3   1  -5  583.68   19.64
   3   1  -5  504.52   20.83
  -3  -1   4 1372.76   33.95
  -3  -1   4 1343.29   27.26
  -3  -1   4 1584.76   34.63
  -3  -1   4 1614.22   29.63
  -3  -1   4 1571.55   34.54
  -3  -1   4 1308.16   31.50
  -3  -1   4 1475.45   35.31
  -3  -1   4 1502.46   35.64
  -3  -1   4 1647.15   32.43
   3   1  -4 1468.51   33.44
   3   1  -4 1402.90   32.60
   3   1  -4 1478.50   35.47
   3   1  -4 1553.09   31.41
   3   1  -4 1509.24   34.29
  -3  -1   3  959.76   25.82
  -3  -1   3  904.98   21.34
  -3  -1   3  893.30   25.74
  -3  -1   3  983.72   22.27
  -3  -1   3  884.07   25.40
  -3  -1   3  880.60   26.16
  -3  -1   3  918.61   26.75
  -3  -1   3 1000.82   25.48
   3   1  -3 1064.66   23.20
   3   1  -3  823.53   24.89
   3   1  -3  944.44   23.20
   3   1  -3 1000.82   25.40
   3   1  -3  914.46   26.25
  -3  -1   2  625.17   19.05
  -3  -1   2  522.13   19.47
  -3  -1   2    0.93    1.19
  -3  -1   2  485.21   18.96
  -3  -1   2  596.04   20.91
  -3  -1   2  512.65   19.13
  -3  -1   2  678.50   21.34
  -3  -1   2  505.03    7.70
  -3  -1   2  520.86    7.87
  -3  -1   2  500.03   19.13
  -3  -1   2  578.94   23.54
   3   1  -2  606.96   17.53
   3   1  -2  496.39   19.13
   3   1  -2  586.22   15.07
   3   1  -2  624.83   20.40
   3   1  -2  571.06   23.11
   3   1  -2  494.78   19.22
  -3  -1   1 1564.94   27.69
  -3  -1   1 1510.25   32.00
  -3  -1   1 1497.47   28.45
  -3  -1   1 1470.04   31.50
  -3  -1   1 1516.94   32.09
  -3  -1   1 1404.08   30.73
  -3  -1   1 1551.74   22.18
  -3  -1   1 1416.44   21.08
  -3  -1   1 1553.68   32.51
   3   1  -1 1401.12   27.35
   3   1  -1 1876.09   19.05
   3   1  -1 1363.95   30.48
   3   1  -1 1453.19   31.16
   3   1  -1 1456.23   31.16
   3   1  -1 1461.48   31.58
  -3  -1   0  933.60   21.42
  -3  -1   0  790.94   22.94
  -3  -1   0  812.44   22.86
  -3  -1   0  815.24   23.37
  -3  -1   0  831.66   24.13
  -3  -1   0  744.80   22.77
  -3  -1   0  896.69   20.66
  -3  -1   0  756.73   22.61
   3   1   0  723.55   21.50
   3   1   0  695.69   22.10
   3   1   0  727.19   22.86
   3   1   0  839.45   23.45
   3   1   0  807.11   23.37
  -3  -1  -1  248.75   12.70
  -3  -1  -1  228.93   12.78
  -3  -1  -1  214.03   13.72
  -3  -1  -1  212.68   12.53
  -3  -1  -1  225.12   13.55
  -3  -1  -1  262.71   13.38
  -3  -1  -1  234.52   13.04
   3   1   1  204.30   13.38
   3   1   1  231.56    6.43
   3   1   1  190.92   12.70
   3   1   1  254.84   14.82
   3   1   1  212.85   11.77
   3   1   1  192.19   11.85
   3   1   1  237.74   13.21
  -3  -1  -2   95.76    9.57
  -3  -1  -2   93.47    9.06
  -3  -1  -2   92.03   11.01
  -3  -1  -2   93.72    9.23
  -3  -1  -2   81.96    9.65
  -3  -1  -2  100.24   10.33
  -3  -1  -2   95.59    9.23
   3   1   2   86.02   12.11
   3   1   2   86.19    6.52
   3   1   2   83.14    9.74
   3   1   2   81.02    9.99
   3   1   2   81.62    9.82
   3   1   2   16.59    4.15
   3   1   2   85.85    9.31
  -3  -1  -3  174.75   13.55
  -3  -1  -3  146.72   10.24
  -3  -1  -3  148.33   13.89
  -3  -1  -3  164.25   10.92
  -3  -1  -3  153.67   10.08
  -3  -1  -3  139.78   12.02
  -3  -1  -3  164.84   13.12
  -3  -1  -3  145.28   10.24
   3   1   3  124.03   12.87
   3   1   3  147.15    9.91
   3   1   3  143.68   12.28
   3   1   3  144.86   12.36
   3   1   3  142.15   12.36
   3   1   3  141.22    9.99
   3   1   3  137.33   10.33
  -3  -1  -4  122.85   12.62
  -3  -1  -4  127.17    9.48
  -3  -1  -4  117.01   13.72
  -3  -1  -4  129.71    9.82
  -3  -1  -4  120.82   10.58
  -3  -1  -4  100.07   11.26
  -3  -1  -4  123.86   12.36
  -3  -1  -4  119.89    9.40
   3   1   4   83.73   13.89
   3   1   4   96.94    8.64
   3   1   4  124.63   10.75
   3   1   4  102.78   11.35
   3   1   4   97.87   10.84
   3   1   4  104.73   12.02
   3   1   4   89.07    8.04
   3   1   4  106.59    9.14
  -3  -1  -5    4.74    6.35
  -3  -1  -5    5.25    3.89
  -3  -1  -5    2.62    5.33
  -3  -1  -5    4.74    5.08
  -3  -1  -5    3.73    5.42
   3   1   5    2.88    5.16
   3   1   5    6.69    4.15
   3   1   5    3.64    3.56
   3   1   5    8.97    6.27
   3   1   5    6.77    5.50
   3   1   5    6.77    5.93
   3   1   5   -0.93    6.10
   3   1   5    6.69    5.33
   3   1   5    5.33    4.15
  -3  -1  -6  144.01   16.85
  -3  -1  -6  110.40   17.53
  -3  -1  -6   96.77   14.73
   3   1   6  117.51   18.71
   3   1   6  105.15   14.90
   3   1   6  103.46   15.32
   3   1   6   89.91   15.32
  -3  -1  -7  118.02   19.30
  -3  -1  -7   82.97   16.76
  -3  -1  -7  113.11   16.51
  -3  -1  -7   98.04   15.49
   3   1   7   79.92   17.44
   3   1   7   91.44   15.16
   3   1   7   68.75   13.12
   3   1   7   72.81   12.53
   3   1   7   88.56   16.59
  -3  -1  -8   15.75   11.18
  -3  -1  -8   13.21   11.35
  -3  -1  -8   16.42    8.64
  -3  -1  -8   14.14    8.97
   3   1   8    5.93    9.48
   3   1   8   12.11    8.97
   3   1   8   11.09    7.45
   3   1   8   17.44   11.01
  -3  -1  -9  209.63   25.15
  -3  -1  -9  176.95   25.99
   3   1   9  144.69   24.81
   3   1   9  190.67   21.84
   3   1   9  205.82   23.71
  -3  -1 -10    1.52   11.68
  -3  -1 -10    5.67   12.11
  -3  -1 -10   -0.93    9.48
   3   1  10    8.21   11.68
   3   1  10   -5.33   10.41
  -3  -1 -11   70.27   20.66
  -3  -1 -11   40.55   17.61
   3   1  11   81.62   21.93
   3   1  11   88.56   26.08
  -3  -2  13   42.93   19.13
  -3  -2  13   40.30   12.62
   3   2 -13   80.94   24.04
   3   2 -13   51.65   19.47
  -3  -2  12   -1.44   12.36
  -3  -2  12    6.01    9.48
  -3  -2  12   -1.61    7.20
   3   2 -12   -1.02   12.62
   3   2 -12    4.23   11.94
   3   2 -12   15.92   13.12
  -3  -2  11  522.55   37.76
  -3  -2  11  511.29   33.10
  -3  -2  11  495.54   25.57
   3   2 -11  577.08   39.54
   3   2 -11  501.13   36.83
   3   2 -11  522.04   34.37
  -3  -2  10    4.83   10.41
  -3  -2  10   17.10    9.65
  -3  -2  10    8.13    6.35
   3   2 -10   15.92   12.19
   3   2 -10   12.28   11.26
   3   2 -10    3.30    8.89
  -3  -2   9  331.89   27.35
  -3  -2   9  297.09   23.54
  -3  -2   9  296.92   16.68
   3   2  -9  373.46   28.36
   3   2  -9  367.45   26.58
  -3  -2   8  286.68   22.77
  -3  -2   8  269.06   16.00
  -3  -2   8  307.16   18.96
  -3  -2   8  251.62   20.74
  -3  -2   8  258.48   13.89
   3   2  -8  311.31   19.30
   3   2  -8  294.80   16.51
   3   2  -8  333.58   24.04
   3   2  -8  299.12   22.94
   3   2  -8  283.80   18.63
  -3  -2   7   41.66   11.77
  -3  -2   7   35.90    7.62
  -3  -2   7    4.32    3.73
  -3  -2   7   46.99   11.35
  -3  -2   7   38.44    6.01
  -3  -2   7   45.04    6.27
   3   2  -7   39.03    9.06
   3   2  -7   41.91    7.70
   3   2  -7   46.99   11.26
   3   2  -7   43.01   11.26
   3   2  -7   37.85    6.77
   3   2  -7   41.15    9.14
  -3  -2   6   -1.19    5.16
  -3  -2   6    1.86    3.22
  -3  -2   6   -1.27    4.15
  -3  -2   6   -1.52    4.49
  -3  -2   6    0.42    2.29
  -3  -2   6    1.19    2.29
   3   2  -6    4.74    4.74
   3   2  -6    1.86    3.30
   3   2  -6    3.81    5.84
   3   2  -6    1.61    5.42
   3   2  -6   -1.02    3.47
   3   2  -6   -1.44    4.57
  -3  -2   5   75.94   12.36
  -3  -2   5   75.52    7.20
  -3  -2   5   83.90    7.28
  -3  -2   5   84.66   11.85
  -3  -2   5   85.51   12.70
  -3  -2   5   97.20   11.60
  -3  -2   5   68.32    4.91
  -3  -2   5   78.31    5.08
   3   2  -5   94.82    7.79
   3   2  -5   81.02   11.77
   3   2  -5   64.85    6.52
   3   2  -5   89.24   11.09
   3   2  -5   91.27   13.04
   3   2  -5   78.91    8.64
   3   2  -5   72.90   11.01
  -3  -2   4  685.70   25.31
  -3  -2   4  731.93   17.53
  -3  -2   4  674.78   24.89
  -3  -2   4  630.08   24.72
  -3  -2   4  695.69   25.82
  -3  -2   4  585.03   11.94
  -3  -2   4  685.53   12.87
   3   2  -4  794.07   18.37
   3   2  -4  627.20   23.96
   3   2  -4  851.22   25.82
   3   2  -4  612.30   24.38
   3   2  -4  681.89   21.59
   3   2  -4  594.52   23.54
  -3  -2   3   11.85    5.84
  -3  -2   3   16.85    6.01
  -3  -2   3   15.41    4.23
  -3  -2   3   19.05    6.86
  -3  -2   3   18.71    6.10
  -3  -2   3   15.58    6.43
  -3  -2   3   12.95    3.39
  -3  -2   3   12.62    3.30
   3   2  -3   16.26    4.40
   3   2  -3   11.35    6.18
   3   2  -3   18.46    5.84
   3   2  -3   18.54    6.01
   3   2  -3    9.40    6.10
  -3  -2   2 2993.24   45.97
  -3  -2   2 2877.16   47.92
  -3  -2   2 3042.51   37.68
  -3  -2   2 2855.74   47.67
  -3  -2   2 3209.47   50.54
  -3  -2   2 2847.62   47.50
  -3  -2   2 2861.08   33.44
  -3  -2   2 2903.92   33.36
   3   2  -2 2881.74   36.58
   3   2  -2 2711.05   46.65
   3   2  -2 3702.99   39.88
   3   2  -2 2768.54   44.96
   3   2  -2 2726.29   46.90
  -3  -2   1  131.06   10.75
  -3  -2   1  144.95   11.77
  -3  -2   1   33.27    5.84
  -3  -2   1  119.80   10.41
  -3  -2   1  138.85   11.77
  -3  -2   1  120.14   10.24
  -3  -2   1  131.82    9.06
   3   2  -1  116.92    9.14
   3   2  -1  109.64   10.16
   3   2  -1  138.85    7.54
   3   2  -1  138.51   11.68
   3   2  -1  115.14   11.35
   3   2  -1  115.65   10.41
  -3  -2   0  717.70   22.77
  -3  -2   0  652.85   22.52
  -3  -2   0  687.73   22.18
  -3  -2   0  677.91   22.94
  -3  -2   0  803.30   24.64
  -3  -2   0  649.46   22.44
  -3  -2   0  766.72   22.01
   3   2   0  680.71   22.01
   3   2   0  635.41   22.27
   3   2   0  809.23   15.07
   3   2   0  642.35   22.10
   3   2   0  734.81   25.23
   3   2   0  686.72   18.80
   3   2   0  687.22   23.20
  -3  -2  -1   35.81    7.79
  -3  -2  -1   23.71    6.35
  -3  -2  -1   26.75    7.45
  -3  -2  -1   31.50    7.03
  -3  -2  -1   24.98    6.60
  -3  -2  -1   29.12    7.20
   3   2   1   18.03    6.60
   3   2   1   23.88    6.52
   3   2   1   40.64    5.25
   3   2   1   31.50    7.20
   3   2   1   30.90    8.13
   3   2   1   30.06    7.11
   3   2   1   26.25    6.69
  -3  -2  -2   43.77    8.89
  -3  -2  -2   60.28    8.97
  -3  -2  -2   47.58    9.82
  -3  -2  -2   49.61    8.04
  -3  -2  -2   47.75    8.55
  -3  -2  -2   60.45    9.82
   3   2   2   49.53    9.91
   3   2   2   41.74    7.79
   3   2   2   56.98    6.35
   3   2   2   51.98    8.89
   3   2   2   46.73    9.65
   3   2   2   50.38    9.14
   3   2   2    2.12    2.54
   3   2   2   47.33    8.55
  -3  -2  -3   17.02    7.03
  -3  -2  -3   24.72    5.93
  -3  -2  -3   19.73    7.11
  -3  -2  -3   27.60    6.27
  -3  -2  -3   19.30    6.77
  -3  -2  -3   25.65    7.62
   3   2   3   20.49    7.20
   3   2   3   22.69    5.84
   3   2   3   14.65    4.83
   3   2   3   23.88    7.20
   3   2   3   13.21    6.69
   3   2   3   15.32    6.60
   3   2   3   17.36    5.25
   3   2   3   18.54    5.67
  -3  -2  -4   61.13   12.19
  -3  -2  -4   52.24   12.02
  -3  -2  -4   57.74    8.04
  -3  -2  -4   56.47   10.08
  -3  -2  -4   67.99   11.51
   3   2   4   51.90   11.43
   3   2   4   46.48    7.54
   3   2   4   52.24    8.64
   3   2   4   30.06    7.28
   3   2   4   26.58    8.38
   3   2   4   55.54   11.35
   3   2   4   61.47    8.38
   3   2   4   56.13    8.30
  -3  -2  -5   33.44   10.58
  -3  -2  -5   24.04    9.23
  -3  -2  -5   28.96    8.97
   3   2   5   21.34    8.89
   3   2   5   33.53    8.97
   3   2   5   -2.12    2.79
   3   2   5   27.18    8.97
   3   2   5   27.69    9.91
   3   2   5   24.55    6.27
  -3  -2  -6  175.00   19.56
  -3  -2  -6  147.99   21.67
  -3  -2  -6    3.89    3.81
  -3  -2  -6  179.91   16.68
   3   2   6  139.27   17.02
   3   2   6  152.90   16.26
   3   2   6  161.79   15.16
   3   2   6  137.16   15.16
   3   2   6  158.83   17.95
  -3  -2  -7    7.11   10.08
  -3  -2  -7    1.95    8.89
  -3  -2  -7    4.57    7.03
  -3  -2  -7    3.64    6.10
   3   2   7    0.93    7.96
   3   2   7    6.01    7.87
   3   2   7   -0.59    6.77
   3   2   7   -0.76    5.76
   3   2   7    0.93    8.72
  -3  -2  -8  304.79   28.36
  -3  -2  -8  261.70   25.48
  -3  -2  -8  328.41   25.31
   3   2   8  258.23   26.58
   3   2   8  321.56   25.23
   3   2   8  307.08   26.42
  -3  -2  -9   37.85   15.92
  -3  -2  -9   31.66   14.65
  -3  -2  -9   31.83   12.53
   3   2   9   15.07   12.45
   3   2   9   28.79   13.29
   3   2   9   24.89   13.46
  -3  -2 -10  289.64   32.17
  -3  -2 -10  244.85   29.72
   3   2  10  211.92   32.17
   3   2  10  300.56   49.87
   3   2  10  271.01   29.29
  -3  -2 -11   -2.03   13.29
  -3  -2 -11   -5.25   12.78
   3   2  11   -3.13   10.92
  -3  -3  13   -5.00    8.97
  -3  -3  13   -7.96    8.64
  -3  -3  13   -1.27    7.96
   3   3 -13    8.30   11.94
   3   3 -13    0.17   11.94
   3   3 -13    4.83   12.70
  -3  -3  12  177.54   29.12
  -3  -3  12  180.59   26.75
  -3  -3  12  146.64   17.61
   3   3 -12  225.04   27.09
   3   3 -12  216.23   31.83
   3   3 -12  168.99   27.26
  -3  -3  11   28.70   14.48
  -3  -3  11   11.18   10.41
  -3  -3  11   16.68    8.21
   3   3 -11   23.20   13.72
   3   3 -11    9.65   11.26
   3   3 -11   18.03   12.45
  -3  -3  10  138.43   23.28
  -3  -3  10  183.30   21.42
  -3  -3  10  150.62   14.90
   3   3 -10  182.28   21.50
   3   3 -10  177.12   24.98
  -3  -3   9  180.25   20.23
  -3  -3   9  144.44   15.75
  -3  -3   9  156.29   22.01
  -3  -3   9  143.00   13.38
   3   3  -9  131.23   14.56
   3   3  -9  188.89   20.32
   3   3  -9  161.46   22.94
   3   3  -9  121.41   14.56
  -3  -3   8  246.88   22.94
  -3  -3   8   81.28   13.04
  -3  -3   8  251.37   21.84
  -3  -3   8  219.87   14.22
   3   3  -8  208.95   17.61
   3   3  -8  251.79   22.61
   3   3  -8  206.84   20.83
   3   3  -8  212.93   17.61
  -3  -3   7  165.44   18.20
  -3  -3   7  188.72   16.76
  -3  -3   7  149.94   15.83
  -3  -3   7  171.28   11.60
   3   3  -7  137.24   14.48
   3   3  -7  201.25   18.71
   3   3  -7  165.01   17.78
   3   3  -7  144.35   10.58
   3   3  -7  133.01   14.48
  -3  -3   6   20.32    7.70
  -3  -3   6   16.76    3.98
  -3  -3   6   24.47    8.04
  -3  -3   6   19.30    7.45
  -3  -3   6   17.95    5.08
  -3  -3   6   17.02    5.00
   3   3  -6   25.57    4.40
   3   3  -6   23.71    8.47
   3   3  -6   18.29    3.81
   3   3  -6   29.29    8.55
   3   3  -6   21.00    8.72
   3   3  -6   20.49    5.93
   3   3  -6   19.05    7.54
  -3  -3   5   55.46   11.01
  -3  -3   5   48.85    4.83
  -3  -3   5   44.87    9.31
  -3  -3   5   48.43   10.75
  -3  -3   5   53.25   10.92
  -3  -3   5   44.28    6.60
  -3  -3   5   51.81    6.94
   3   3  -5   53.17    4.83
   3   3  -5   44.87    9.91
   3   3  -5   41.15    4.32
   3   3  -5   66.97   11.43
   3   3  -5   44.62   10.33
   3   3  -5   46.82    8.04
   3   3  -5   45.89    9.99
  -3  -3   4  205.23   15.92
  -3  -3   4  215.98    8.47
  -3  -3   4  180.67   14.82
  -3  -3   4  187.96   15.49
  -3  -3   4  186.69   15.32
  -3  -3   4  175.00   10.33
  -3  -3   4  197.44   10.67
   3   3  -4  188.80    8.04
   3   3  -4  152.40   14.14
   3   3  -4  234.44   14.99
   3   3  -4  156.21   14.31
   3   3  -4  183.98   12.78
   3   3  -4  190.16   15.41
  -3  -3   3  331.55   18.71
  -3  -3   3  315.38   11.35
  -3  -3   3  276.52   17.61
  -3  -3   3  331.46   18.96
  -3  -3   3  335.27   18.96
  -3  -3   3  275.25   12.95
  -3  -3   3  313.26   13.55
   3   3  -3  276.60   10.75
   3   3  -3  266.19   17.44
   3   3  -3  369.90   16.85
   3   3  -3  274.31   17.44
   3   3  -3  274.48   15.92
   3   3  -3  266.19   17.53
  -3  -3   2  557.09   23.03
  -3  -3   2  529.32   16.59
  -3  -3   2  524.24   22.52
  -3  -3   2  559.21   23.11
  -3  -3   2  536.61   22.27
  -3  -3   2  524.33   18.29
   3   3  -2  512.73   16.26
   3   3  -2  446.61   21.42
   3   3  -2  609.08   19.13
   3   3  -2  473.28   21.08
   3   3  -2  494.19   22.52
  -3  -3   1  175.76   13.97
  -3  -3   1   65.28    7.20
  -3  -3   1  171.70   13.21
  -3  -3   1  189.73   13.97
  -3  -3   1  183.47   13.04
  -3  -3   1  187.70   12.45
   3   3  -1  161.12   10.92
   3   3  -1  183.38   14.39
   3   3  -1  216.23   11.26
   3   3  -1  186.26   14.65
   3   3  -1  198.29   14.99
  -3  -3   0 1473.68   36.83
  -3  -3   0 1421.18   33.44
  -3  -3   0 1385.12   34.97
  -3  -3   0 1591.61   36.32
  -3  -3   0 1401.37   33.87
  -3  -3   0 1632.42   35.90
   3   3   0 1267.26   31.41
   3   3   0 1408.65   35.31
   3   3   0 1733.26   28.87
   3   3   0 1545.30   35.73
   3   3   0 1327.38   36.58
   3   3   0 1321.70   29.63
   3   3   0 1412.38   35.47
  -3  -3  -1   46.48    9.31
  -3  -3  -1   50.29    9.82
  -3  -3  -1   39.03    8.13
  -3  -3  -1   45.13    8.38
  -3  -3  -1   48.77    9.14
   3   3   1   44.45    8.72
   3   3   1   43.60    8.64
   3   3   1   45.72    6.86
   3   3   1   35.22    7.62
   3   3   1   35.47    9.23
   3   3   1   50.38    9.23
   3   3   1   41.15    8.38
  -3  -3  -2  469.55   22.94
  -3  -3  -2  392.59   21.76
  -3  -3  -2  393.27   18.29
  -3  -3  -2  408.17   18.88
  -3  -3  -2  478.36   22.10
   3   3   2  366.01   20.49
   3   3   2  445.17   19.64
   3   3   2  475.82   17.86
   3   3   2  417.23   22.61
   3   3   2  413.42   20.40
   3   3   2  448.81   19.90
  -3  -3  -3   79.58   13.38
  -3  -3  -3   76.37   13.55
  -3  -3  -3   77.98   10.41
  -3  -3  -3   83.56    9.91
  -3  -3  -3   83.48   12.87
   3   3   3   58.76   12.36
   3   3   3   74.76    9.31
   3   3   3   96.09   10.33
   3   3   3   75.27   11.01
   3   3   3   73.49   13.12
   3   3   3  102.78   14.31
   3   3   3   77.98   10.75
  -3  -3  -4   40.47   11.60
  -3  -3  -4   42.33   12.11
  -3  -3  -4   48.17    8.04
  -3  -3  -4   32.68    8.13
  -3  -3  -4   56.64   11.68
   3   3   4   30.06   10.41
   3   3   4   39.54    7.79
   3   3   4   49.87    9.82
   3   3   4   47.84    9.82
   3   3   4   46.99   11.43
   3   3   4   57.49   12.53
   3   3   4   40.89    8.04
  -3  -3  -5  160.36   18.96
  -3  -3  -5  159.34   19.05
  -3  -3  -5  125.13   13.55
   3   3   5  106.17   17.61
   3   3   5  149.69   15.41
   3   3   5  144.35   14.05
   3   3   5  108.12   16.76
   3   3   5  196.85   18.96
  -3  -3  -6   45.30   12.87
  -3  -3  -6   44.96   13.21
   3   3   6   30.65   12.28
   3   3   6   51.14   11.77
   3   3   6   42.50   12.19
   3   3   6   69.76   15.58
  -3  -3  -7  124.63   21.67
  -3  -3  -7  127.67   22.44
   3   3   7  102.36   19.64
   3   3   7  163.74   19.56
   3   3   7   81.02   15.58
   3   3   7  153.24   22.61
  -3  -3  -8    6.86    9.74
  -3  -3  -8    1.19   10.24
  -3  -3  -8   11.51    9.14
   3   3   8    4.23   10.33
   3   3   8   10.92   10.08
   3   3   8   14.82   12.02
  -3  -3  -9  148.42   26.75
  -3  -3  -9  166.20   27.01
   3   3   9  135.63   25.23
   3   3   9  142.41   25.40
  -3  -3 -10   53.42   20.32
  -3  -3 -10   73.24   22.01
   3   3  10   67.48   21.25
  -3  -4  13  110.23   26.42
  -3  -4  13   97.28   22.27
  -3  -4  13   73.15   16.00
   3   4 -13  123.86   27.18
   3   4 -13  137.16   28.19
   3   4 -13  118.28   25.74
  -3  -4  12   13.38   13.72
  -3  -4  12    0.68    9.99
  -3  -4  12    0.08    7.54
   3   4 -12   17.10   14.90
   3   4 -12    6.35   12.95
   3   4 -12    5.67   12.70
  -3  -4  11   -5.59   10.24
  -3  -4  11    3.13    9.40
  -3  -4  11   -2.71    6.60
   3   4 -11    4.91   10.84
   3   4 -11    4.15    9.31
  -3  -4  10   50.71   16.17
  -3  -4  10   56.39   16.00
  -3  -4  10   36.58    9.99
   3   4 -10   48.43   16.17
   3   4 -10   47.33   15.32
  -3  -4   9   48.09   14.05
  -3  -4   9   24.64   10.16
  -3  -4   9   39.79   13.12
  -3  -4   9   31.66    8.97
   3   4  -9   38.95   11.51
   3   4  -9   62.48   16.68
   3   4  -9   43.69   14.48
   3   4  -9   46.40   12.28
  -3  -4   8  490.89   31.33
  -3  -4   8  415.53   25.48
  -3  -4   8  400.55   28.11
  -3  -4   8  385.22   19.90
   3   4  -8  379.04   24.38
   3   4  -8  509.09   30.99
   3   4  -8  390.14   28.11
   3   4  -8  381.16   24.55
  -3  -4   7  315.80   23.45
  -3  -4   7  314.61   22.01
  -3  -4   7  290.06   22.27
  -3  -4   7  247.73   15.66
   3   4  -7  237.74   19.90
   3   4  -7  361.01   24.81
   3   4  -7  284.05   22.27
   3   4  -7  306.06   18.20
   3   4  -7  281.26   21.34
  -3  -4   6  334.17   23.54
  -3  -4   6  352.71   22.52
  -3  -4   6  296.33   21.34
  -3  -4   6  291.08   16.09
   3   4  -6  336.88   22.44
   3   4  -6  340.18   22.27
   3   4  -6  289.89   21.93
   3   4  -6  293.28   16.17
   3   4  -6  337.14   22.44
  -3  -4   5  180.93   17.02
  -3  -4   5  174.75   16.51
  -3  -4   5  176.10   16.85
  -3  -4   5  195.58   17.36
  -3  -4   5  158.24   12.02
   3   4  -5  150.28   15.58
   3   4  -5  227.33   17.19
   3   4  -5  176.02   16.85
   3   4  -5  167.30   12.95
   3   4  -5  173.48   16.59
  -3  -4   4  147.57   14.22
  -3  -4   4  154.51    6.43
  -3  -4   4  142.49   13.89
  -3  -4   4  120.14   13.72
  -3  -4   4  135.97   13.55
  -3  -4   4  135.89   11.35
   3   4  -4  134.62    6.10
   3   4  -4  113.20   13.63
   3   4  -4  154.77   13.55
   3   4  -4  135.89   13.63
   3   4  -4  135.38   12.45
   3   4  -4  119.29   13.97
  -3  -4   3    6.18    5.93
  -3  -4   3    5.76    2.96
  -3  -4   3    5.76    5.76
  -3  -4   3    5.33    5.59
  -3  -4   3    5.93    4.49
  -3  -4   3    7.28    5.08
   3   4  -3    3.30    2.79
   3   4  -3    7.79    6.27
   3   4  -3    7.87    4.74
   3   4  -3    8.72    5.16
   3   4  -3    2.88    4.66
   3   4  -3    4.66    5.93
  -3  -4   2   37.34    9.31
  -3  -4   2   34.97    6.43
  -3  -4   2   25.99    8.38
  -3  -4   2   33.02    8.38
  -3  -4   2   27.01    7.79
  -3  -4   2   36.24    8.04
   3   4  -2   28.87    5.84
   3   4  -2   40.47    9.82
   3   4  -2   56.05    9.14
   3   4  -2   22.94    7.79
   3   4  -2   43.35    9.74
  -3  -4   1 1002.26   33.61
  -3  -4   1  887.88   25.91
  -3  -4   1  868.58   30.99
  -3  -4   1  923.52   30.06
  -3  -4   1  928.60   29.97
  -3  -4   1  970.60   29.80
   3   4  -1  835.05   24.89
   3   4  -1  835.56   30.48
   3   4  -1 1064.49   27.43
   3   4  -1  797.37   30.39
   3   4  -1  915.57   25.65
   3   4  -1  820.15   30.23
  -3  -4   0  324.60   19.73
  -3  -4   0  309.20   17.36
  -3  -4   0  320.46   18.96
  -3  -4   0  350.60   18.63
  -3  -4   0  298.27   17.10
  -3  -4   0  343.32   19.22
   3   4   0  277.70   16.51
   3   4   0  316.99   19.05
   3   4   0  391.15   17.27
   3   4   0  310.13   17.61
   3   4   0  311.23   20.32
   3   4   0  339.08   17.69
   3   4   0  310.89   18.96
  -3  -4  -1  542.36   25.99
  -3  -4  -1  502.66   23.88
  -3  -4  -1  517.22   23.11
  -3  -4  -1  613.90   24.04
  -3  -4  -1  509.17   21.67
  -3  -4  -1  580.80   25.23
   3   4   1  457.87   22.77
   3   4   1  450.50   21.84
   3   4   1  622.29   21.84
   3   4   1    2.88    2.03
   3   4   1  431.62   24.38
   3   4   1  525.85   23.11
   3   4   1  476.92   22.52
  -3  -4  -2   65.36   13.29
  -3  -4  -2   75.69   13.55
  -3  -4  -2   54.61    9.82
  -3  -4  -2   61.89    9.99
  -3  -4  -2   66.80   11.85
   3   4   2   53.17   10.92
   3   4   2   65.19   11.43
   3   4   2   71.97   10.41
   3   4   2   70.61   10.84
   3   4   2   55.62   12.02
   3   4   2   71.80   12.36
   3   4   2   65.53   11.43
  -3  -4  -3  460.41   27.52
  -3  -4  -3  403.85   25.48
  -3  -4  -3  493.77   21.76
  -3  -4  -3  442.97   20.74
  -3  -4  -3  549.14   26.67
   3   4   3  399.11   24.64
   3   4   3  394.62   19.81
   3   4   3  545.33   23.88
   3   4   3  447.11   20.83
   3   4   3  400.72   25.40
   3   4   3  460.83   24.89
   3   4   3  417.74   20.49
  -3  -4  -4  268.90   23.54
  -3  -4  -4  242.73   22.10
  -3  -4  -4  245.02   16.42
   3   4   4  203.36   20.32
   3   4   4  297.34   19.90
   3   4   4  235.62   16.26
   3   4   4  240.45   21.42
   3   4   4  239.86   20.91
  -3  -4  -5   28.11   12.45
  -3  -4  -5   19.39    9.82
   3   4   5    8.81    9.57
   3   4   5   25.31    8.97
   3   4   5   10.67    8.72
   3   4   5   27.77   11.26
  -3  -4  -6   97.70   19.98
  -3  -4  -6   87.63   19.64
   3   4   6   83.56   17.86
   3   4   6   97.70   16.42
   3   4   6   72.39   16.42
   3   4   6   81.53   17.19
  -3  -4  -7    5.42    9.48
  -3  -4  -7    9.06    9.48
   3   4   7    5.33    9.57
   3   4   7    3.47    7.79
   3   4   7   -0.42    8.13
   3   4   7   -0.08    9.74
  -3  -4  -8   90.93   22.69
  -3  -4  -8   84.33   21.50
   3   4   8   85.43   21.50
  -3  -4  -9  102.78   24.72
  -3  -4  -9  106.51   24.89
   3   4   9   69.17   19.30
  -3  -5  13   17.19   15.49
  -3  -5  13   19.13   13.89
  -3  -5  13   12.62   10.67
   3   5 -13   25.91   17.02
   3   5 -13    1.44   14.05
   3   5 -13    7.28   14.56
  -3  -5  12   -3.39   11.35
  -3  -5  12    0.17    7.45
  -3  -5  12    6.52    8.89
   3   5 -12   -6.52   11.51
   3   5 -12   -3.56   11.85
  -3  -5  11  127.84   24.89
  -3  -5  11  125.98   23.62
  -3  -5  11  104.98   17.27
   3   5 -11  128.94   25.06
   3   5 -11  125.47   24.89
  -3  -5  10    8.72   11.35
  -3  -5  10   15.24   10.08
  -3  -5  10   20.91   11.43
  -3  -5  10   14.39    8.64
   3   5 -10   19.39   11.26
   3   5 -10   12.95    9.99
   3   5 -10   10.75   11.94
   3   5 -10    8.81    9.91
  -3  -5   9  191.85   23.45
  -3  -5   9  205.06   20.66
  -3  -5   9  181.10   22.35
  -3  -5   9  178.47   17.10
   3   5  -9  170.09   20.40
   3   5  -9  219.62   24.21
   3   5  -9  193.63   23.71
   3   5  -9  193.80   21.67
  -3  -5   8   36.07   13.21
  -3  -5   8   43.35   12.28
  -3  -5   8   42.33   12.45
  -3  -5   8   40.81   10.33
   3   5  -8   36.15   12.11
   3   5  -8   52.83   14.65
   3   5  -8   24.89   12.45
   3   5  -8   28.96   10.92
  -3  -5   7  670.46   35.47
  -3  -5   7  614.84   32.09
  -3  -5   7  569.79   32.77
  -3  -5   7  544.31   25.06
   3   5  -7  538.98   30.48
   3   5  -7  729.13   35.05
   3   5  -7  503.50   31.33
   3   5  -7  495.04   29.46
  -3  -5   6  504.86   29.80
  -3  -5   6  450.92   27.35
  -3  -5   6  437.29   27.69
  -3  -5   6  424.17   21.93
   3   5  -6  377.69   25.48
   3   5  -6  525.35   28.36
   3   5  -6  415.62   27.26
   3   5  -6  407.66   20.74
   3   5  -6  431.37   27.09
  -3  -5   5  322.49   22.69
  -3  -5   5  272.20   21.42
  -3  -5   5  302.42   21.67
  -3  -5   5  308.60   21.84
  -3  -5   5  273.47   17.53
   3   5  -5  268.73   21.59
   3   5  -5  338.91   22.01
   3   5  -5  297.09   21.59
   3   5  -5  284.14   18.20
   3   5  -5  254.50   21.25
  -3  -5   4  246.29   19.47
  -3  -5   4  225.38   19.30
  -3  -5   4  246.71   19.47
  -3  -5   4  239.43   19.22
  -3  -5   4  234.44   16.34
   3   5  -4  204.63   18.71
   3   5  -4  263.82   19.05
   3   5  -4  222.50   18.80
   3   5  -4  200.91   16.51
   3   5  -4  178.39   18.03
  -3  -5   3  203.79   18.12
  -3  -5   3  197.61   10.50
  -3  -5   3  154.94   16.34
  -3  -5   3  197.95   17.02
  -3  -5   3  184.74   16.51
  -3  -5   3  207.01   15.66
   3   5  -3  167.30    9.82
   3   5  -3  205.14   18.54
   3   5  -3  229.36   16.42
   3   5  -3  182.28   16.42
   3   5  -3  141.22   14.90
   3   5  -3  187.45   17.95
  -3  -5   2 1143.31   39.45
  -3  -5   2 1030.03   26.75
  -3  -5   2 1012.17   36.83
  -3  -5   2 1126.13   36.15
  -3  -5   2 1102.00   35.73
  -3  -5   2 1066.52   33.87
   3   5  -2  955.87   25.74
   3   5  -2  899.90   34.71
   3   5  -2 1192.67   33.78
   3   5  -2  993.37   34.04
   3   5  -2  931.57   34.80
   3   5  -2  893.30   34.71
  -3  -5   1  421.12   25.15
  -3  -5   1  405.97   19.30
  -3  -5   1  404.27   23.03
  -3  -5   1  463.96   23.03
  -3  -5   1  428.83   22.10
  -3  -5   1  465.57   23.45
   3   5  -1  372.19   18.46
   3   5  -1  384.21   23.20
   3   5  -1  486.23   21.59
   3   5  -1  410.79   21.59
   3   5  -1  350.26   23.03
   3   5  -1  379.30   23.11
  -3  -5   0  247.14   20.23
  -3  -5   0  235.28   16.76
  -3  -5   0  213.61   17.61
  -3  -5   0  248.15   16.85
  -3  -5   0  227.66   16.09
  -3  -5   0  237.74   18.03
   3   5   0  213.36   15.92
   3   5   0  183.38   16.59
   3   5   0  283.71   17.36
   3   5   0  119.46   11.77
   3   5   0  205.31   18.88
   3   5   0  224.19   16.51
   3   5   0  183.30   16.76
  -3  -5  -1  303.44   23.03
  -3  -5  -1  274.91   19.56
  -3  -5  -1  282.36   19.81
  -3  -5  -1  305.47   18.46
  -3  -5  -1  278.72   17.27
  -3  -5  -1  302.00   20.74
   3   5   1  259.07   18.96
   3   5   1  287.86   20.32
   3   5   1  344.67   19.39
   3   5   1  282.44   17.61
   3   5   1  242.40   20.91
   3   5   1  256.96   18.63
   3   5   1  279.14   20.32
  -3  -5  -2  159.42   19.05
  -3  -5  -2  194.90   18.54
  -3  -5  -2  167.72   15.32
  -3  -5  -2  168.14   14.22
  -3  -5  -2  188.38   17.61
   3   5   2  171.70   17.44
   3   5   2  148.08   14.73
   3   5   2  211.49   16.09
   3   5   2  168.23   14.14
   3   5   2  149.43   16.93
   3   5   2  187.62   17.61
   3   5   2  167.21   15.58
  -3  -5  -3   88.05   17.27
  -3  -5  -3  112.86   18.46
  -3  -5  -3  111.25   13.12
   3   5   3   76.11   15.83
   3   5   3   87.88   13.38
   3   5   3  117.43   15.92
   3   5   3   84.16   16.42
   3   5   3  111.00   17.19
   3   5   3   79.58   12.95
  -3  -5  -4  105.24   19.90
  -3  -5  -4  101.01   18.88
   3   5   4  105.75   19.22
   3   5   4  130.38   16.17
   3   5   4   80.94   16.93
   3   5   4  113.54   18.12
  -3  -5  -5   26.42   11.68
  -3  -5  -5   21.84   11.94
   3   5   5   13.04   10.41
   3   5   5   37.85   11.18
   3   5   5   20.15   11.85
   3   5   5   55.29   26.08
  -3  -5  -6   21.34   12.11
  -3  -5  -6   21.67   11.01
   3   5   6   15.58   11.35
   3   5   6   19.56    9.99
   3   5   6   25.31   13.04
  -3  -5  -7    3.30   13.12
  -3  -5  -7    6.60   11.60
   3   5   7    9.91   11.18
   3   5   7    6.52   10.84
  -3  -5  -8   20.15   13.29
  -3  -5  -8   17.44   14.22
   3   5   8   24.81   15.83
  -3  -5  -9   -3.30   14.90
  -3  -5  -9   10.33   14.31
   3   5   9   23.11   16.26
  -3  -6  12  225.04   33.61
  -3  -6  12  196.68   30.65
  -3  -6  12  220.64   23.71
   3   6 -12  254.25   36.15
   3   6 -12  232.32   34.46
  -3  -6  11    4.83   11.85
  -3  -6  11    3.89    8.47
  -3  -6  11   -1.35    8.21
   3   6 -11   11.01   13.29
   3   6 -11   11.68   12.70
  -3  -6  10   67.73   17.78
  -3  -6  10   73.49   16.93
  -3  -6  10   61.21   16.51
  -3  -6  10   45.55   12.36
   3   6 -10   45.55   14.99
   3   6 -10   75.44   19.47
   3   6 -10   61.04   17.36
   3   6 -10   41.23   14.14
  -3  -6   9   37.59   14.56
  -3  -6   9   27.01   12.28
  -3  -6   9   44.96   14.14
  -3  -6   9   33.78   11.35
   3   6  -9   29.80   12.53
   3   6  -9   47.58   15.92
   3   6  -9   29.29   12.45
   3   6  -9   15.92   10.92
  -3  -6   8   86.87   19.39
  -3  -6   8   65.36   15.66
  -3  -6   8   72.05   17.27
  -3  -6   8   71.71   13.55
   3   6  -8   84.16   17.53
   3   6  -8   92.54   18.80
   3   6  -8   76.20   18.54
   3   6  -8   56.39   14.90
  -3  -6   7    7.79    7.96
  -3  -6   7   14.05    8.55
  -3  -6   7    8.30    9.65
  -3  -6   7    5.16    6.77
   3   6  -7   12.28    9.82
   3   6  -7   20.91   10.84
   3   6  -7   12.36   10.50
   3   6  -7   12.62    9.82
  -3  -6   6   39.88   12.78
  -3  -6   6   34.37   11.94
  -3  -6   6   33.78   12.11
  -3  -6   6   33.53   10.33
   3   6  -6   34.71   12.53
   3   6  -6   34.37   11.68
   3   6  -6   28.87   11.51
   3   6  -6   29.80    9.23
   3   6  -6   28.79   11.68
  -3  -6   5  407.41   27.01
  -3  -6   5  330.87   24.30
  -3  -6   5  377.10   25.31
  -3  -6   5  337.98   22.10
   3   6  -5  360.50   26.50
   3   6  -5  420.61   25.91
   3   6  -5  363.64   25.91
   3   6  -5  334.51   21.59
   3   6  -5  316.90   25.06
  -3  -6   4   14.73    9.65
  -3  -6   4   21.08   10.16
  -3  -6   4   14.48    7.62
  -3  -6   4   20.49    8.89
  -3  -6   4   19.47    8.38
   3   6  -4   13.72    8.13
   3   6  -4   24.13    8.97
   3   6  -4   25.48   10.08
   3   6  -4   18.71    8.89
   3   6  -4   19.98   10.16
  -3  -6   3  785.69   36.32
  -3  -6   3  659.62   32.51
  -3  -6   3  719.48   32.09
  -3  -6   3  765.20   33.02
  -3  -6   3  773.75   31.75
   3   6  -3  782.90   36.07
   3   6  -3  867.65   33.02
   3   6  -3  721.77   32.17
   3   6  -3  661.74   31.50
   3   6  -3  784.25   36.07
  -3  -6   2   50.29   12.70
  -3  -6   2   38.10    8.21
  -3  -6   2   44.11   12.36
  -3  -6   2   43.09   10.75
  -3  -6   2   53.76   11.35
  -3  -6   2   45.38   11.26
   3   6  -2   33.87    7.87
   3   6  -2   48.17   12.70
   3   6  -2   47.75   10.58
   3   6  -2   36.32   10.24
   3   6  -2   44.62   12.19
   3   6  -2   36.83   11.26
  -3  -6   1  169.58   19.39
  -3  -6   1  169.24   14.31
  -3  -6   1  154.34   17.27
  -3  -6   1  170.85   16.42
  -3  -6   1  181.61   16.09
  -3  -6   1  183.05   17.95
   3   6  -1  136.48   13.38
   3   6  -1  124.80   17.69
   3   6  -1  192.10   16.42
   3   6  -1  158.49   15.41
   3   6  -1  159.76   18.37
   3   6  -1  125.22   18.63
  -3  -6   0  119.72   18.80
  -3  -6   0  105.49   15.07
  -3  -6   0  107.02   17.02
  -3  -6   0   97.96   13.80
  -3  -6   0  102.19   14.22
  -3  -6   0   80.18   14.39
   3   6   0   98.38   14.48
   3   6   0   87.04   15.41
   3   6   0  127.17   14.56
   3   6   0   93.22   13.63
   3   6   0  107.86   13.46
   3   6   0   87.29   16.93
   3   6   0   79.42   14.90
  -3  -6  -1  148.33   21.34
  -3  -6  -1  133.94   15.83
  -3  -6  -1  158.32   17.44
  -3  -6  -1  175.93   15.58
  -3  -6  -1  157.65   14.56
  -3  -6  -1  170.35   18.46
   3   6   1  143.08   15.92
   3   6   1  127.59   15.92
   3   6   1  222.75   18.20
   3   6   1  158.66   14.56
   3   6   1  134.19   20.74
   3   6   1  158.92   17.36
  -3  -6  -2   83.82   17.86
  -3  -6  -2   73.32   15.24
  -3  -6  -2   85.17   14.99
   3   6   2   69.59   14.82
   3   6   2   91.35   15.49
   3   6   2  107.44   15.41
   3   6   2   80.52   17.10
   3   6   2   76.62   14.56
  -3  -6  -3   92.96   19.56
  -3  -6  -3  100.24   18.12
   3   6   3   61.30   14.73
   3   6   3  103.97   16.85
   3   6   3   66.89   15.49
  -3  -6  -4   70.19   18.46
  -3  -6  -4   73.74   17.02
   3   6   4   60.20   15.24
   3   6   4   91.95   16.34
   3   6   4   50.29   15.16
  -3  -6  -5   92.03   21.42
  -3  -6  -5   67.73   18.03
   3   6   5   67.39   17.36
   3   6   5   97.11   20.66
   3   6   5   55.03   15.92
  -3  -6  -6   52.75   18.63
  -3  -6  -6   78.31   19.22
   3   6   6   69.09   19.39
   3   6   6   36.91   14.56
  -3  -6  -7   10.08   15.41
  -3  -6  -7    1.27   11.26
   3   6   7   14.48   13.72
   3   6   7   15.16   12.62
  -3  -6  -8   17.44   17.61
  -3  -6  -8   12.02   15.41
   3   6   8    0.00   12.19
  -3  -7  12   29.80   17.36
  -3  -7  12   30.14   16.76
  -3  -7  12   42.84   14.56
   3   7 -12   45.80   19.90
   3   7 -12   49.78   20.23
  -3  -7  11    0.68   10.92
  -3  -7  11   -2.12    8.97
  -3  -7  11    3.73   11.43
  -3  -7  11   -0.68    8.47
   3   7 -11    0.00   11.68
   3   7 -11   -2.62    8.38
   3   7 -11   -0.93    9.48
  -3  -7  10   99.99   22.01
  -3  -7  10   68.41   17.53
  -3  -7  10   76.37   20.32
  -3  -7  10   68.24   16.34
   3   7 -10   80.52   19.90
   3   7 -10  107.44   23.20
   3   7 -10   66.46   20.23
  -3  -7   9   32.26   14.48
  -3  -7   9   24.89   11.94
  -3  -7   9   42.59   14.31
  -3  -7   9   27.77   11.60
   3   7  -9   28.62   13.12
   3   7  -9   47.84   16.00
   3   7  -9   35.31   15.58
   3   7  -9   33.36   13.38
  -3  -7   8   72.13   18.03
  -3  -7   8   57.74   16.00
  -3  -7   8   49.44   15.58
  -3  -7   8   53.08   13.21
   3   7  -8   42.25   14.65
   3   7  -8   78.65   18.80
   3   7  -8   55.03   15.49
   3   7  -8   36.91   14.05
  -3  -7   7   40.47   14.65
  -3  -7   7   28.02   12.78
  -3  -7   7   23.45   11.85
  -3  -7   7   26.16   10.92
   3   7  -7   24.30   12.78
   3   7  -7   41.66   13.72
   3   7  -7   28.87   12.78
   3   7  -7   22.10   12.11
  -3  -7   6   85.34   18.46
  -3  -7   6   59.69   15.49
  -3  -7   6   82.63   17.78
  -3  -7   6   81.11   15.32
   3   7  -6   61.47   16.09
   3   7  -6  108.88   18.80
   3   7  -6   66.72   16.00
   3   7  -6   58.59   12.70
   3   7  -6   67.56   16.09
  -3  -7   5  112.52   19.05
  -3  -7   5  113.62   20.23
  -3  -7   5   96.01   17.36
  -3  -7   5   95.93   16.09
   3   7  -5  102.44   18.46
   3   7  -5  134.28   19.64
   3   7  -5  102.95   18.20
   3   7  -5   81.19   14.99
   3   7  -5   73.74   15.92
  -3  -7   4   30.99   12.28
  -3  -7   4   23.11   11.35
  -3  -7   4   18.46    9.40
  -3  -7   4   13.21    9.23
   3   7  -4   14.56   10.24
   3   7  -4   22.69   10.67
   3   7  -4   27.77   10.84
   3   7  -4   30.56   11.43
   3   7  -4   17.10   10.75
  -3  -7   3  510.19   32.34
  -3  -7   3  424.93   29.29
  -3  -7   3  478.27   28.02
  -3  -7   3  524.24   28.62
  -3  -7   3  528.82   29.29
   3   7  -3  552.78   29.38
   3   7  -3  451.69   27.26
   3   7  -3  375.07   26.58
   3   7  -3  376.76   28.19
  -3  -7   2  118.11   19.47
  -3  -7   2   92.37   17.61
  -3  -7   2  118.11   17.69
  -3  -7   2  128.35   15.49
  -3  -7   2  123.78   18.37
   3   7  -2   84.75   17.10
   3   7  -2  126.24   17.78
   3   7  -2   93.98   15.16
   3   7  -2   90.08   16.59
   3   7  -2   99.48   18.03
  -3  -7   1  400.46   28.53
  -3  -7   1  401.73   22.77
  -3  -7   1  351.02   25.31
  -3  -7   1  424.68   25.06
  -3  -7   1  450.16   25.57
  -3  -7   1  414.43   26.84
   3   7  -1  324.77   20.83
   3   7  -1  304.71   23.88
   3   7  -1  433.06   25.57
   3   7  -1  389.71   24.04
   3   7  -1  350.94   27.52
   3   7  -1  318.68   25.40
  -3  -7   0   70.10   16.85
  -3  -7   0   34.46   10.16
  -3  -7   0   77.04   15.66
  -3  -7   0   83.31   13.55
  -3  -7   0   70.36   12.87
  -3  -7   0   53.34   13.12
   3   7   0   48.09   11.51
   3   7   0   43.86   12.95
   3   7   0   88.73   14.99
   3   7   0   56.89   11.43
   3   7   0   68.75   12.78
   3   7   0   50.54   14.73
   3   7   0   53.68   13.89
  -3  -7  -1  211.15   22.52
  -3  -7  -1  163.57   18.37
  -3  -7  -1  183.89   19.30
   3   7   1  161.12   17.78
   3   7   1  178.98   20.23
   3   7   1  234.01   20.23
   3   7   1  163.83   20.15
   3   7   1  183.05   20.83
  -3  -7  -2   45.21   15.58
  -3  -7  -2   64.60   15.49
  -3  -7  -2   48.09   12.11
   3   7   2   29.29   11.18
   3   7   2   41.99   12.36
   3   7   2   66.55   14.14
   3   7   2   21.76   10.58
  -3  -7  -3   51.14   15.58
  -3  -7  -3   52.15   15.32
   3   7   3   32.00   12.19
   3   7   3   60.96   14.05
   3   7   3   46.23   15.75
  -3  -7  -4  101.09   22.94
  -3  -7  -4   66.55   17.53
   3   7   4   70.53   17.61
   3   7   4   66.63   18.29
  -3  -7  -5    3.56   13.97
  -3  -7  -5   -7.45    8.97
   3   7   5   -8.04    8.38
   3   7   5    0.51    9.23
  -3  -7  -6   69.68   22.18
  -3  -7  -6   68.49   20.49
   3   7   6   56.05   18.71
   3   7   6   39.88   15.92
  -3  -7  -7   47.24   20.83
  -3  -7  -7   35.64   15.58
   3   7   7   31.66   16.68
   3   7   7   10.24   12.53
  -3  -8  11   59.35   18.37
  -3  -8  11   83.73   22.61
  -3  -8  11   85.34   18.96
   3   8 -11   94.23   23.88
   3   8 -11  100.16   24.89
   3   8 -11   65.95   21.93
  -3  -8  10    6.60   11.94
  -3  -8  10   -3.47    8.97
  -3  -8  10   -1.61   11.18
  -3  -8  10   -2.71    8.47
   3   8 -10   10.33   13.63
   3   8 -10   -3.64    7.96
   3   8 -10    3.13    9.23
  -3  -8   9  152.99   25.82
  -3  -8   9  105.83   21.67
  -3  -8   9  131.99   24.04
  -3  -8   9  121.49   20.74
   3   8  -9  120.99   24.55
   3   8  -9  197.52   29.63
   3   8  -9  118.95   23.79
  -3  -8   8   34.04   15.07
  -3  -8   8   38.95   14.73
  -3  -8   8   37.00   14.90
  -3  -8   8   46.82   13.46
   3   8  -8   31.24   15.24
   3   8  -8   46.73   15.92
   3   8  -8   21.84   11.60
  -3  -8   7   88.73   20.40
  -3  -8   7   97.62   20.15
  -3  -8   7   99.99   20.32
  -3  -8   7  108.46   18.80
   3   8  -7   76.20   19.39
   3   8  -7  120.90   21.84
   3   8  -7   95.08   19.81
  -3  -8   6    3.39    9.57
  -3  -8   6   -3.81    7.28
  -3  -8   6   -3.98    8.04
  -3  -8   6   -1.78    8.21
   3   8  -6    1.19    9.65
   3   8  -6    5.25    8.81
   3   8  -6   -1.44    8.21
   3   8  -6   -2.54    7.96
   3   8  -6   -7.37    7.96
  -3  -8   5   20.57   12.53
  -3  -8   5   34.29   13.72
  -3  -8   5   41.82   13.80
  -3  -8   5   45.80   13.63
   3   8  -5   23.96   12.62
   3   8  -5   46.31   14.56
   3   8  -5   36.07   11.94
   3   8  -5   30.39   12.11
   3   8  -5   18.20   11.18
  -3  -8   4  122.26   21.67
  -3  -8   4  109.89   21.00
  -3  -8   4  102.87   17.95
  -3  -8   4  117.09   19.13
   3   8  -4   90.08   18.80
   3   8  -4  141.47   21.50
   3   8  -4  101.09   18.03
   3   8  -4   74.17   16.26
   3   8  -4   84.83   17.86
  -3  -8   3  122.51   21.67
  -3  -8   3  105.32   20.49
  -3  -8   3  137.41   20.49
  -3  -8   3  139.61   21.34
   3   8  -3  132.67   21.67
   3   8  -3  158.24   19.13
   3   8  -3   98.80   17.27
   3   8  -3   84.50   17.86
   3   8  -3   96.77   19.05
  -3  -8   2   77.55   18.54
  -3  -8   2   57.40   15.92
  -3  -8   2   59.60   13.63
  -3  -8   2   46.06   13.80
   3   8  -2   60.45   16.17
   3   8  -2   73.74   15.75
   3   8  -2   50.80   12.36
   3   8  -2   60.87   16.26
   3   8  -2   70.02   17.27
  -3  -8   1  353.81   30.56
  -3  -8   1  285.66   25.82
   3   8  -1  240.87   24.38
   3   8  -1  323.67   24.98
   3   8  -1  260.68   25.15
   3   8  -1  287.10   26.50
  -3  -8   0  115.14   22.44
  -3  -8   0   -2.12    3.98
  -3  -8   0  131.82   21.42
   3   8   0   68.41   13.97
   3   8   0   85.26   17.86
   3   8   0  111.76   18.54
   3   8   0   70.19   18.20
   3   8   0   70.19   16.17
  -3  -8  -1  276.43   29.04
  -3  -8  -1  267.54   23.88
  -3  -8  -1  248.66   23.71
   3   8   1  237.48   22.94
   3   8   1  267.29   24.89
   3   8   1  293.19   24.38
   3   8   1  197.69   28.87
   3   8   1  249.85   24.13
  -3  -8  -2   83.90   20.83
  -3  -8  -2   95.76   18.96
   3   8   2   88.47   18.12
   3   8   2  119.21   20.32
   3   8   2   69.34   19.13
  -3  -8  -3  206.50   31.16
  -3  -8  -3  173.48   26.08
   3   8   3  155.78   24.89
  -3  -8  -4   -4.40   12.78
  -3  -8  -4    2.54   10.75
   3   8   4    1.61    8.64
   3   8   4    7.28   12.11
  -3  -8  -5   94.74   24.47
  -3  -8  -5  115.14   24.81
   3   8   5   58.50   18.03
  -3  -9  10   12.45   13.72
  -3  -9  10   10.16   12.02
  -3  -9  10   13.21   14.99
  -3  -9  10   30.39   14.48
   3   9 -10    5.16   13.97
   3   9 -10    8.81   13.80
   3   9 -10   17.78   13.38
  -3  -9   9   93.55   20.83
  -3  -9   9  108.12   23.45
  -3  -9   9   95.25   21.93
  -3  -9   9  108.62   21.25
   3   9  -9  105.49   24.38
   3   9  -9   96.86   22.10
   3   9  -9   90.76   22.10
  -3  -9   8   16.85   14.39
  -3  -9   8   15.41   12.45
  -3  -9   8    8.97   12.70
  -3  -9   8   20.83   12.45
   3   9  -8   13.38   14.05
   3   9  -8   14.99   13.12
   3   9  -8    1.19   11.01
  -3  -9   7   79.33   20.23
  -3  -9   7   76.88   19.64
  -3  -9   7   84.83   20.32
  -3  -9   7   57.83   15.58
   3   9  -7   56.98   19.05
   3   9  -7  109.39   21.76
   3   9  -7   55.71   16.93
  -3  -9   6   10.33   12.28
  -3  -9   6   22.69   13.04
  -3  -9   6   21.34   12.45
  -3  -9   6   21.76   12.28
   3   9  -6    7.70   11.77
   3   9  -6   23.11   12.78
   3   9  -6    9.74    9.14
   3   9  -6   15.41   10.41
  -3  -9   5   56.73   16.51
  -3  -9   5   60.28   17.86
  -3  -9   5   67.22   16.93
  -3  -9   5   70.78   17.27
   3   9  -5   50.12   17.02
   3   9  -5   71.63   17.61
   3   9  -5   65.45   16.51
   3   9  -5   47.84   14.90
  -3  -9   4   58.67   17.86
  -3  -9   4   49.87   16.34
  -3  -9   4   54.86   15.83
  -3  -9   4   54.02   16.00
   3   9  -4   39.96   15.58
   3   9  -4   59.01   16.34
   3   9  -4   38.95   13.80
   3   9  -4   41.06   14.05
  -3  -9   3   38.01   15.66
  -3  -9   3   46.23   15.83
  -3  -9   3   41.23   12.70
   3   9  -3   32.34   14.73
   3   9  -3   55.12   15.07
   3   9  -3   44.53   13.29
   3   9  -3   27.43   13.21
  -3  -9   2  196.85   24.38
  -3  -9   2  147.57   24.81
   3   9  -2  159.17   25.48
   3   9  -2  214.20   23.45
   3   9  -2  122.26   21.93
  -3  -9   1    4.74   11.43
  -3  -9   1    8.30   10.08
   3   9  -1    3.05   10.16
   3   9  -1   17.10   10.41
   3   9  -1   18.71   13.38
  -3  -9   0  112.43   24.04
  -3  -9   0   88.81   19.30
   3   9   0   84.33   19.64
   3   9   0  137.16   21.76
   3   9   0   79.92   20.74
   3   9   0   76.20   18.63
  -3  -9  -1   51.98   18.63
  -3  -9  -1   23.88   13.46
   3   9   1   26.67   13.63
   3   9   1   52.58   18.88
  -3  -9  -2  253.40   29.29
  -3  -9  -2  160.44   24.89
   3   9   2  124.37   21.50
  -3  -9  -3   54.69   21.17
  -3  -9  -3   27.09   14.39
   3   9   3   29.21   13.89
   3   9   3   24.21   15.92
  -3  -9  -4   34.12   19.13
  -3  -9  -4   39.03   16.85
   3   9   4   56.98   17.86
   3   9   4   24.72   17.19
  -3 -10   9    0.34   14.22
  -3 -10   9    5.59   11.94
  -3 -10   9   -4.91   12.02
  -3 -10   9    3.89   12.02
   3  10  -9   -4.74   12.78
   3  10  -9   -2.29   12.45
   3  10  -9   -3.39   11.51
  -3 -10   8  122.93   25.65
  -3 -10   8  101.34   23.79
  -3 -10   8  145.54   27.52
  -3 -10   8  171.11   26.84
   3  10  -8  122.85   27.18
   3  10  -8  177.54   29.72
   3  10  -8  117.26   24.21
  -3 -10   7   29.29   16.85
  -3 -10   7   24.81   15.07
  -3 -10   7   42.84   16.76
  -3 -10   7   24.89   13.97
   3  10  -7   19.81   15.32
   3  10  -7   25.91   15.07
   3  10  -7   26.75   13.89
  -3 -10   6  114.30   24.38
  -3 -10   6  155.87   25.99
  -3 -10   6  141.98   25.74
   3  10  -6  142.74   24.89
   3  10  -6  107.52   21.67
  -3 -10   5   -4.23    8.38
  -3 -10   5    7.03   11.77
  -3 -10   5    6.69   10.41
   3  10  -5   -4.66   10.67
   3  10  -5    6.43   11.18
   3  10  -5    0.76   11.01
   3  10  -5    7.45   10.33
  -3 -10   4   52.75   18.46
  -3 -10   4   47.84   17.61
   3  10  -4   27.77   15.07
   3  10  -4   41.66   15.24
   3  10  -4   40.13   16.09
  -3 -10   3    9.48   10.58
  -3 -10   3   29.21   15.41
   3  10  -3    1.61   11.51
   3  10  -3    3.13   10.75
   3  10  -3   11.26   12.19
  -3 -10   2   11.60   13.21
  -3 -10   2   15.75   13.55
   3  10  -2    8.89   12.19
   3  10  -2   26.67   14.05
   3  10  -2   15.16   13.04
  -3 -10   1   -6.77   11.51
  -3 -10   1    3.47   10.08
   3  10  -1   -5.25   10.58
   3  10  -1    0.68   12.28
  -3 -10   0   39.96   17.61
  -3 -10   0   59.60   18.80
   3  10   0   42.59   16.42
   3  10   0   49.61   18.46
  -3 -10  -1   49.27   17.86
   3  10   1   35.81   17.78
  -3 -11   6   40.05   18.12
  -3 -11   6   34.63   17.36
   3  11  -6   33.19   18.12
   3  11  -6   46.40   17.69
  -3 -11   5    7.70   15.24
  -3 -11   5   -2.03   12.19
   3  11  -5   -8.64   12.28
   3  11  -5   -1.52   11.43
   3  11  -5   -5.08   12.62
  -3 -11   4   81.96   22.77
  -3 -11   4  111.00   24.55
   3  11  -4   45.55   19.22
   3  11  -4   81.02   21.08
   3  11  -4   73.15   20.74
  -3 -11   3    2.62   14.48
  -3 -11   3   18.20   15.16
   3  11  -3    8.30   14.22
   3  11  -3   13.12   13.97
  -3 -11   2    7.70   14.82
  -3 -11   2   -1.95   10.75
   3  11  -2    2.12   12.62
   3  11  -2   10.84   14.48
  -4  11   1   50.29   16.51
  -4  11   1   53.93   17.95
  -4  11   1   58.67   21.00
  -4  11   1   77.30   23.03
   4 -11  -1   46.40   17.27
   4 -11  -1   60.37   19.64
  -4  11   0   -2.62   10.67
  -4  11   0   -3.39   11.85
  -4  11   0   -1.52   11.94
   4 -11   0    0.51   12.02
  -4  11  -1   -7.20   10.24
  -4  11  -1    1.78   11.77
  -4  11  -1   14.14   13.46
   4 -11   1    3.22   11.43
  -4  11  -2   24.64   14.90
  -4  11  -2   21.25   15.75
  -4  11  -2   28.11   14.82
   4 -11   2   11.60   10.67
  -4  11  -3    1.27   11.77
  -4  11  -3   -6.01   11.68
  -4  11  -3   -0.68    9.99
   4 -11   3    0.08    8.64
  -4  11  -4   52.49   18.80
  -4  11  -4   48.77   19.05
  -4  11  -4   54.95   18.29
   4 -11   4   42.42   17.44
  -4  11  -5   66.38   20.49
  -4  11  -5  104.14   24.04
   4 -11   5   81.70   22.35
  -4  11  -6   24.04   16.42
  -4  11  -6   29.29   17.02
   4 -11   6   38.95   18.12
  -4  10   4    3.30   10.84
  -4  10   4   15.07   14.56
  -4  10   4   -9.40   11.01
  -4  10   4    7.79   13.29
   4 -10  -4    5.59   10.92
  -4  10   3    7.79   11.68
  -4  10   3   25.40   15.92
  -4  10   3    3.56   13.46
  -4  10   3   12.36   13.21
   4 -10  -3    6.27   11.01
  -4  10   2   38.10   14.82
  -4  10   2   34.29   14.48
  -4  10   2   47.92   17.78
  -4  10   2   38.44   17.53
  -4  10   2   45.72   16.17
   4 -10  -2   31.75   13.55
   4 -10  -2   45.30   16.34
  -4  10   1  101.17   20.74
  -4  10   1   96.69   21.00
  -4  10   1  140.29   27.18
  -4  10   1   90.76   23.37
  -4  10   1  131.32   23.54
   4 -10  -1   64.43   17.19
   4 -10  -1  114.38   23.37
  -4  10   0    8.89    9.91
  -4  10   0   17.61   11.85
  -4  10   0   24.89   15.07
  -4  10   0   10.75   13.38
  -4  10   0   18.63   13.21
   4 -10   0    6.69    9.91
   4 -10   0   18.29   12.78
  -4  10  -1  157.22   23.62
  -4  10  -1  164.25   26.67
  -4  10  -1  186.01   22.52
  -4  10  -1  198.71   30.23
  -4  10  -1  199.89   30.23
  -4  10  -1  207.43   28.62
   4 -10   1  246.80   26.50
   4 -10   1  157.73   23.37
   4 -10   1  187.02   28.62
  -4  10  -2   21.84   11.68
  -4  10  -2   26.33   14.48
  -4  10  -2   29.89   13.97
   4 -10   2   12.11   12.28
  -4  10  -3  105.58   22.77
  -4  10  -3  138.68   25.15
  -4  10  -3  101.68   21.50
   4 -10   3   62.23   19.22
  -4  10  -4   53.25   17.95
  -4  10  -4   64.51   19.39
  -4  10  -4   49.53   16.09
   4 -10   4   54.95   17.86
  -4  10  -5    8.30   11.85
  -4  10  -5   14.73   13.55
  -4  10  -5   22.27   11.85
   4 -10   5   18.80   13.55
   4 -10   5   19.39   12.11
  -4  10  -6   22.77   15.07
  -4  10  -6   25.31   15.07
  -4  10  -6   30.48   13.46
   4 -10   6   31.92   15.49
   4 -10   6   39.71   16.68
  -4  10  -7   -3.47   10.67
  -4  10  -7    0.85    9.57
  -4  10  -7   14.56   12.95
   4 -10   7    5.50   11.35
   4 -10   7   17.44   12.87
  -4  10  -8   33.95   16.68
  -4  10  -8   56.98   20.40
  -4  10  -8   29.97   15.83
   4 -10   8   11.68   12.95
   4 -10   8   33.27   16.17
  -4   9   5   10.84   11.94
  -4   9   5   19.98   14.48
  -4   9   5    2.96   10.08
  -4   9   5   -4.23    9.57
   4  -9  -5    0.59   13.46
   4  -9  -5   14.05   12.87
  -4   9   4   21.34   13.21
  -4   9   4   23.88   15.24
  -4   9   4   24.04   15.83
  -4   9   4   28.36   12.78
   4  -9  -4   12.70   14.73
   4  -9  -4   18.03   11.35
  -4   9   3   44.36   14.90
  -4   9   3   75.69   20.91
  -4   9   3   57.40   18.63
  -4   9   3   71.88   17.53
   4  -9  -3   66.72   17.44
   4  -9  -3   49.78   16.26
  -4   9   2   78.31   18.37
  -4   9   2  104.48   20.23
  -4   9   2  129.88   24.64
  -4   9   2   98.72   21.84
  -4   9   2  143.42   22.52
  -4   9   2   75.61   17.61
   4  -9  -2   70.86   17.44
   4  -9  -2   85.17   18.96
  -4   9   1   24.21   11.60
  -4   9   1   42.93   14.31
  -4   9   1   45.21   14.90
  -4   9   1   33.36   13.55
  -4   9   1   37.34   15.75
  -4   9   1   40.47   13.97
  -4   9   1   37.68   13.38
   4  -9  -1   21.00   11.43
   4  -9  -1   39.37   15.07
  -4   9   0  116.58   20.32
  -4   9   0  101.94   20.32
  -4   9   0  150.79   23.03
  -4   9   0  184.06   28.28
  -4   9   0  100.07   21.67
  -4   9   0  160.86   23.37
  -4   9   0   98.38   19.47
   4  -9   0  122.09   20.49
   4  -9   0  123.86   22.61
  -4   9  -1   16.09    9.99
  -4   9  -1   28.79   13.55
  -4   9  -1   28.45   11.94
  -4   9  -1   23.37   13.38
  -4   9  -1   33.70   13.72
  -4   9  -1   25.74   12.11
  -4   9  -1   28.45   12.95
   4  -9   1   26.67   12.02
   4  -9   1   23.20   10.84
   4  -9   1   16.42   11.77
  -4   9  -2   36.24   11.51
  -4   9  -2   43.09   14.99
  -4   9  -2   44.28   13.12
  -4   9  -2   71.63   18.54
  -4   9  -2   61.21   15.75
  -4   9  -2   63.24   16.26
  -4   9  -2   36.74   15.83
   4  -9   2   47.58   13.72
   4  -9   2   44.11   12.02
   4  -9   2   59.10   17.10
  -4   9  -3   25.06   12.78
  -4   9  -3   35.05   18.46
  -4   9  -3   35.47   14.31
  -4   9  -3   19.39   11.43
  -4   9  -3   45.47   14.90
   4  -9   3   23.54   13.63
  -4   9  -4    3.05   10.33
  -4   9  -4   10.58   11.35
  -4   9  -4    8.13    8.55
  -4   9  -4    0.93    7.70
   4  -9   4    5.00    8.13
   4  -9   4    1.86    8.04
  -4   9  -5   37.42   15.16
  -4   9  -5   40.22   15.83
  -4   9  -5   31.33   12.70
  -4   9  -5   30.39   13.04
   4  -9   5   30.73   14.05
   4  -9   5   43.69   14.65
  -4   9  -6   95.16   21.34
  -4   9  -6  107.78   22.61
  -4   9  -6   71.63   17.53
   4  -9   6   44.62   15.41
   4  -9   6   82.89   19.22
  -4   9  -7   16.93   10.84
  -4   9  -7   24.81   14.14
  -4   9  -7   18.71   12.53
   4  -9   7   26.75   14.39
   4  -9   7   20.66   13.46
  -4   9  -8   13.55   12.70
  -4   9  -8   -3.98   10.33
  -4   9  -8   -0.68   10.50
   4  -9   8    7.79   11.35
   4  -9   8    5.00   11.35
  -4   9  -9   36.58   15.92
  -4   9  -9   50.21   18.80
  -4   9  -9   48.94   19.39
   4  -9   9   30.99   14.90
   4  -9   9   66.80   21.17
  -4   8   7   -1.10   10.24
  -4   8   7    7.03   12.62
  -4   8   7   12.02   13.46
  -4   8   7    7.70   11.26
   4  -8  -7    8.81   15.75
   4  -8  -7   -6.86    9.57
  -4   8   6   12.78    9.91
  -4   8   6   15.49   14.31
  -4   8   6   15.32   12.28
  -4   8   6   14.65   11.60
   4  -8  -6    7.20   13.46
   4  -8  -6    9.06   11.09
  -4   8   5   -8.55    7.54
  -4   8   5    5.93   11.09
  -4   8   5    5.67    9.74
  -4   8   5    1.95    8.97
   4  -8  -5   -4.91   10.50
   4  -8  -5   -3.64    6.60
  -4   8   4    8.55   10.33
  -4   8   4    7.62   11.43
  -4   8   4    6.18   10.75
  -4   8   4   12.45   10.16
   4  -8  -4   13.21   11.26
   4  -8  -4    9.06    8.72
  -4   8   3   26.42   12.53
  -4   8   3   27.09   11.43
  -4   8   3   27.35   12.28
  -4   8   3   14.56   11.94
  -4   8   3   40.55   13.12
  -4   8   3   35.64   12.11
   4  -8  -3   32.17   12.87
   4  -8  -3   26.25   11.01
   4  -8  -3   31.58   12.19
  -4   8   2    8.04    8.81
  -4   8   2   19.22   10.84
  -4   8   2   25.74   12.36
  -4   8   2   11.85    9.57
  -4   8   2   19.81   11.68
  -4   8   2   17.61   10.67
  -4   8   2   16.68    9.91
   4  -8  -2   28.19   12.19
   4  -8  -2    8.38    7.54
   4  -8  -2   11.01    9.82
  -4   8   1  191.85   21.08
  -4   8   1  218.35   22.69
  -4   8   1  246.97   22.94
  -4   8   1  298.95   26.50
  -4   8   1  212.09   24.38
  -4   8   1  231.90   22.52
  -4   8   1  211.49   22.35
   4  -8  -1  250.52   21.93
   4  -8  -1  206.07   20.91
   4  -8  -1  203.36   22.27
  -4   8   0  111.16   18.71
  -4   8   0  108.12   19.56
  -4   8   0  148.76   21.59
  -4   8   0  146.64   22.86
  -4   8   0  121.41   21.59
  -4   8   0  166.03   19.73
  -4   8   0   90.34   17.44
   4  -8   0   99.48   17.10
   4  -8   0  103.29   19.56
  -4   8  -1   15.16    8.72
  -4   8  -1    9.40    9.48
  -4   8  -1   22.52   10.50
  -4   8  -1   20.57   11.51
  -4   8  -1   20.57   11.26
  -4   8  -1   33.87   11.77
  -4   8  -1   10.75    9.65
   4  -8   1   21.34   10.33
   4  -8   1   32.17   10.67
   4  -8   1   19.90   11.35
  -4   8  -2   12.11    8.21
  -4   8  -2   18.71    9.65
  -4   8  -2    9.91    8.55
  -4   8  -2   29.97   12.70
  -4   8  -2   22.94    8.97
  -4   8  -2    8.30    9.31
  -4   8  -2   24.38   10.92
  -4   8  -2   15.75    8.97
   4  -8   2   16.00    9.65
   4  -8   2   13.29    8.38
   4  -8   2   19.90   11.60
   4  -8   2   21.93    9.14
  -4   8  -3  120.39   17.95
  -4   8  -3  121.92   21.34
  -4   8  -3  157.39   17.44
  -4   8  -3  177.71   22.01
  -4   8  -3  122.76   18.20
  -4   8  -3  126.24   20.66
  -4   8  -3  134.87   20.57
  -4   8  -3  135.72   22.01
   4  -8   3  145.71   20.32
   4  -8   3  111.50   20.40
   4  -8   3  145.20   17.36
  -4   8  -4   51.31   15.24
  -4   8  -4   82.55   14.90
  -4   8  -4   96.52   19.64
  -4   8  -4   52.41   13.72
  -4   8  -4   83.31   16.76
  -4   8  -4   91.86   17.95
  -4   8  -4   47.24   14.48
   4  -8   4   76.03   14.39
   4  -8   4   81.19   18.03
   4  -8   4   83.90   17.02
  -4   8  -5   64.68   16.93
  -4   8  -5   70.61   17.78
  -4   8  -5   51.65   14.39
  -4   8  -5   68.75   14.48
  -4   8  -5   50.97   15.32
   4  -8   5   57.91   16.00
   4  -8   5   64.77   15.83
  -4   8  -6   17.78   11.43
  -4   8  -6   18.71   12.11
  -4   8  -6   10.41    8.38
  -4   8  -6    8.64    9.91
   4  -8   6   16.93   11.68
   4  -8   6    4.91   10.16
  -4   8  -7   33.19   14.31
  -4   8  -7   48.60   16.34
  -4   8  -7   33.87   12.87
   4  -8   7   28.96   11.60
   4  -8   7   41.82   14.90
  -4   8  -8   26.08   13.29
  -4   8  -8   14.82   13.12
  -4   8  -8   21.59   11.51
   4  -8   8   16.93   11.26
   4  -8   8   16.68   12.87
  -4   8  -9  232.57   26.50
  -4   8  -9  286.00   31.83
  -4   8  -9  166.45   28.45
   4  -8   9  203.03   29.29
   4  -8   9  212.68   32.34
  -4   8 -10   25.74   20.66
  -4   8 -10   15.66   14.99
  -4   8 -10   13.21   13.80
   4  -8  10   18.88   14.48
  -4   7   8   20.07   14.39
  -4   7   8   12.70   11.51
  -4   7   8    1.35   11.01
  -4   7   8   13.12    9.99
   4  -7  -8    2.12   13.38
   4  -7  -8    4.15   11.68
  -4   7   7    3.47    7.96
  -4   7   7   -2.03   10.41
  -4   7   7   -1.35    9.99
  -4   7   7   -0.42    8.04
   4  -7  -7   -2.54   12.19
   4  -7  -7   -1.61    9.40
  -4   7   6   23.28   12.78
  -4   7   6   37.08   14.14
  -4   7   6   22.18   12.36
  -4   7   6   20.74   10.50
   4  -7  -6   16.76   13.63
   4  -7  -6   24.13   12.87
  -4   7   5   -0.25    5.76
  -4   7   5    5.33   10.50
  -4   7   5    4.40   10.50
  -4   7   5   -1.10    6.77
   4  -7  -5    4.49   10.33
   4  -7  -5  -10.58    6.43
  -4   7   4   51.05   14.31
  -4   7   4   57.23   12.95
  -4   7   4   80.77   18.71
  -4   7   4   58.67   16.09
  -4   7   4   60.62   13.72
   4  -7  -4   44.36   13.72
   4  -7  -4   48.85   13.55
   4  -7  -4   51.90   13.38
  -4   7   3   34.80   12.87
  -4   7   3   61.47   13.97
  -4   7   3   59.43   14.90
  -4   7   3   36.32   13.55
  -4   7   3   49.27   14.90
  -4   7   3   55.54   12.62
  -4   7   3   38.69   11.85
   4  -7  -3   58.33   13.97
   4  -7  -3   41.32   12.70
   4  -7  -3   53.51   13.72
  -4   7   2   23.03    9.48
  -4   7   2   24.21   10.08
  -4   7   2   17.95   10.84
  -4   7   2   27.35   12.28
  -4   7   2   14.99   11.01
  -4   7   2   16.51    8.55
  -4   7   2   24.38   10.16
   4  -7  -2   19.98    9.23
   4  -7  -2   15.83    9.31
   4  -7  -2   16.85    9.57
  -4   7   1   12.53    8.55
  -4   7   1   17.44    9.65
  -4   7   1   19.98    8.89
  -4   7   1   19.90   11.01
  -4   7   1   10.08    9.40
  -4   7   1   10.33    7.96
  -4   7   1   12.78    8.97
   4  -7  -1   17.44    8.81
   4  -7  -1    5.84    7.45
   4  -7  -1   12.02    9.48
  -4   7   0   66.55   13.72
  -4   7   0   53.93   13.04
  -4   7   0   73.07   14.99
  -4   7   0   74.59   16.26
  -4   7   0   46.99   13.89
  -4   7   0   69.59   13.72
  -4   7   0   45.72   12.11
   4  -7   0   70.61   12.28
   4  -7   0   57.32   13.04
   4  -7   0   37.25   12.70
  -4   7  -1   10.16    7.54
  -4   7  -1    8.72    7.03
  -4   7  -1    9.91    8.21
  -4   7  -1   11.77    8.89
  -4   7  -1   10.33    7.20
  -4   7  -1    9.82    9.23
  -4   7  -1    8.04    7.70
  -4   7  -1   11.43    8.04
   4  -7   1   11.94    6.94
   4  -7   1    7.28    7.96
   4  -7   1    6.94    9.14
   4  -7   1    5.00    6.77
  -4   7  -2   67.22   13.55
  -4   7  -2   72.64   15.41
  -4   7  -2  100.92   16.17
  -4   7  -2   87.29   16.42
  -4   7  -2   74.17   13.29
  -4   7  -2   99.48   17.69
  -4   7  -2   88.22   15.32
  -4   7  -2   68.83   15.49
   4  -7   2  111.42   17.19
   4  -7   2   68.66   14.99
   4  -7   2   65.19   12.70
  -4   7  -3   27.26   10.50
  -4   7  -3   44.28   11.85
  -4   7  -3   33.19   12.02
  -4   7  -3   19.05    9.23
  -4   7  -3   28.53   10.41
  -4   7  -3   51.73   12.95
  -4   7  -3   19.30    9.14
   4  -7   3   32.17   10.41
   4  -7   3   37.42   12.53
   4  -7   3   27.35   10.41
  -4   7  -4   16.68    9.06
  -4   7  -4   16.85    8.04
  -4   7  -4   23.28   10.75
  -4   7  -4   17.86    9.65
  -4   7  -4   13.21    8.04
  -4   7  -4   17.86    9.23
  -4   7  -4   16.09    8.89
   4  -7   4   19.13    8.97
   4  -7   4   13.46    9.99
   4  -7   4   16.68    9.48
  -4   7  -5   60.11   15.66
  -4   7  -5   99.23   15.92
  -4   7  -5   69.59   16.17
  -4   7  -5   76.54   16.26
  -4   7  -5   79.58   13.89
  -4   7  -5   49.44   13.97
   4  -7   5   70.36   13.38
   4  -7   5   73.74   17.02
   4  -7   5   90.00   18.12
  -4   7  -6   33.95   12.78
  -4   7  -6   48.68   14.82
  -4   7  -6   21.17    9.99
  -4   7  -6   25.57   11.35
   4  -7   6   30.06   12.02
   4  -7   6   34.54   12.11
  -4   7  -7   52.83   14.90
  -4   7  -7   85.26   19.39
  -4   7  -7   58.08   15.41
  -4   7  -7   53.76   14.56
   4  -7   7   60.45   15.92
   4  -7   7   71.46   18.54
  -4   7  -8  142.15   22.69
  -4   7  -8  211.41   25.57
  -4   7  -8  142.24   25.06
  -4   7  -8  142.66   22.61
   4  -7   8  137.75   23.03
   4  -7   8  158.24   26.16
  -4   7  -9    2.88    9.82
  -4   7  -9    2.96   11.51
  -4   7  -9   15.58   12.78
  -4   7  -9   12.87   10.16
   4  -7   9    4.91    9.74
   4  -7   9    9.31   12.45
  -4   7 -10   41.49   16.85
  -4   7 -10   35.05   15.07
   4  -7  10   21.67   12.62
  -4   7 -11   98.21   24.04
  -4   7 -11   96.86   24.72
   4  -7  11   96.35   23.62
  -4   6   9   41.99   15.75
  -4   6   9   34.46   16.42
  -4   6   9   45.89   14.05
   4  -6  -9   51.73   20.32
   4  -6  -9   51.22   16.93
  -4   6   8   23.96   12.28
  -4   6   8   10.58   12.45
  -4   6   8    8.47   11.35
  -4   6   8   13.38    9.57
   4  -6  -8   14.14   14.39
   4  -6  -8    2.29    8.21
  -4   6   7  124.80   24.47
  -4   6   7  211.92   30.31
  -4   6   7  154.60   24.81
  -4   6   7  183.13   19.22
   4  -6  -7  201.59   29.04
   4  -6  -7  134.45   23.62
  -4   6   6   11.18   10.08
  -4   6   6    5.59   10.58
  -4   6   6   16.26   10.92
  -4   6   6   14.90    8.13
   4  -6  -6   21.08   12.45
   4  -6  -6   23.03   12.02
  -4   6   5   24.98   11.60
  -4   6   5   35.64   12.78
  -4   6   5   40.05   14.14
  -4   6   5   25.91    9.23
   4  -6  -5   27.69   12.19
   4  -6  -5   15.92   10.67
  -4   6   4    1.27    7.70
  -4   6   4    0.93    5.67
  -4   6   4    4.74    7.20
  -4   6   4    5.08    6.69
  -4   6   4    8.38    9.40
  -4   6   4    5.93    6.86
  -4   6   4    1.10    5.93
   4  -6  -4   -2.29    7.54
   4  -6  -4    4.40    6.77
   4  -6  -4   -2.29    6.18
  -4   6   3  112.01   18.63
  -4   6   3  130.89   18.29
  -4   6   3   96.77   17.61
  -4   6   3  140.20   17.44
  -4   6   3  113.96   19.81
  -4   6   3  121.83   14.05
  -4   6   3  110.15   16.76
   4  -6  -3  128.27   18.12
   4  -6  -3   99.82   17.78
   4  -6  -3  121.58   17.44
  -4   6   2  426.03   26.84
  -4   6   2  481.40   27.09
  -4   6   2  507.14   29.97
  -4   6   2  556.08   31.41
  -4   6   2  450.50   29.21
  -4   6   2  519.16   24.98
  -4   6   2  542.87   28.70
   4  -6  -2  510.36   25.15
   4  -6  -2  414.77   26.50
   4  -6  -2  391.32   24.89
  -4   6   1  128.61   15.92
  -4   6   1  132.50   15.92
  -4   6   1  171.87   17.36
  -4   6   1  168.48   17.44
  -4   6   1  179.07   14.05
  -4   6   1  146.05   17.95
  -4   6   1  174.92   16.09
  -4   6   1  134.87   16.09
   4  -6  -1  180.17   15.24
   4  -6  -1  122.43   18.03
   4  -6  -1  161.03   17.53
   4  -6  -1  149.43   13.55
  -4   6   0  826.07   34.54
  -4   6   0 1080.83   40.55
  -4   6   0 1147.89   40.72
  -4   6   0 1193.18   42.67
  -4   6   0 1065.08   31.16
  -4   6   0 1015.81   40.13
  -4   6   0 1179.80   37.42
  -4   6   0 1078.12   40.55
   4  -6   0 1132.82   31.50
   4  -6   0  939.02   38.10
   4  -6   0 1029.69   30.82
  -4   6  -1  201.08   17.86
  -4   6  -1  157.82   16.42
  -4   6  -1  245.78   19.64
  -4   6  -1  252.72   20.91
  -4   6  -1  180.08   15.07
  -4   6  -1  224.02   19.81
  -4   6  -1  278.63   19.56
  -4   6  -1  177.29   17.36
   4  -6   1  258.65   15.32
   4  -6   1  221.31   19.05
   4  -6   1  181.86   18.96
   4  -6   1  202.77   16.51
  -4   6  -2  147.40   15.41
  -4   6  -2  125.81   18.29
  -4   6  -2  205.06   17.78
  -4   6  -2  190.24   18.54
  -4   6  -2  170.35   16.09
  -4   6  -2  129.28   15.83
  -4   6  -2  184.74   17.02
  -4   6  -2  123.36   17.86
   4  -6   2  190.83   13.04
   4  -6   2  209.71   18.20
   4  -6   2  145.96   16.34
   4  -6   2  173.31   16.17
  -4   6  -3  342.55   23.96
  -4   6  -3  528.56   26.58
  -4   6  -3  476.07   27.69
  -4   6  -3  385.73   24.30
  -4   6  -3  395.05   23.96
  -4   6  -3  485.81   26.25
  -4   6  -3  336.88   23.88
   4  -6   3  437.89   24.47
   4  -6   3  337.56   24.13
   4  -6   3  388.87   24.21
  -4   6  -4    4.49    6.10
  -4   6  -4    2.12    5.93
  -4   6  -4    3.64    7.03
  -4   6  -4    3.56    7.37
  -4   6  -4    1.02    5.76
  -4   6  -4    5.08    7.37
  -4   6  -4   -0.93    5.00
   4  -6   4    0.25    6.43
   4  -6   4    5.67    6.10
   4  -6   4    0.42    7.28
  -4   6  -5   32.60   11.68
  -4   6  -5   34.97   10.08
  -4   6  -5   27.52   10.75
  -4   6  -5   24.89   10.67
  -4   6  -5   36.24    9.74
  -4   6  -5   31.58   10.67
  -4   6  -5   24.04   10.33
   4  -6   5   23.03    8.97
   4  -6   5   18.63   10.16
   4  -6   5   31.83   11.85
  -4   6  -6   35.64   12.19
  -4   6  -6   21.17    8.64
  -4   6  -6   29.21   11.85
  -4   6  -6   23.96   11.68
  -4   6  -6   13.72    8.89
   4  -6   6   27.60    9.57
   4  -6   6    7.54    8.64
   4  -6   6   16.09   10.67
  -4   6  -7  152.48   18.88
  -4   6  -7  241.13   20.66
  -4   6  -7  237.99   23.88
  -4   6  -7  139.27   22.35
  -4   6  -7  148.08   18.46
   4  -6   7  199.98   20.49
   4  -6   7  155.70   19.22
   4  -6   7  203.70   23.28
  -4   6  -8   23.11   10.92
  -4   6  -8   33.36   13.38
  -4   6  -8   27.77   13.72
  -4   6  -8   21.84   10.24
   4  -6   8   19.73    9.82
   4  -6   8   25.40   11.77
  -4   6  -9   43.35   14.05
  -4   6  -9   71.20   18.12
  -4   6  -9   51.39   16.26
   4  -6   9   34.46   12.53
   4  -6   9   60.11   17.36
  -4   6 -10  106.51   22.77
  -4   6 -10   57.83   19.13
   4  -6  10   66.72   19.47
  -4   6 -11   59.10   18.80
  -4   6 -11   47.24   19.22
   4  -6  11   49.61   18.20
  -4   5  10   50.71   18.80
  -4   5  10   97.36   22.69
  -4   5  10   79.16   16.17
   4  -5 -10  110.15   25.74
   4  -5 -10   77.21   22.10
  -4   5   9    7.20   10.50
  -4   5   9   19.98   14.14
  -4   5   9   11.60    8.64
   4  -5  -9   11.18   15.07
   4  -5  -9   24.30   14.56
  -4   5   8  164.76   27.35
  -4   5   8  153.84   26.16
  -4   5   8  202.43   24.89
  -4   5   8  173.82   17.95
   4  -5  -8  176.44   27.35
   4  -5  -8  143.59   24.64
  -4   5   7   -2.12    5.50
  -4   5   7    4.23    9.06
  -4   5   7    3.73    9.23
  -4   5   7    2.46    5.93
   4  -5  -7    1.78    9.99
   4  -5  -7   14.14   11.51
  -4   5   6   19.39   11.09
  -4   5   6   27.09   12.62
  -4   5   6   22.35   11.26
  -4   5   6   31.75    9.31
   4  -5  -6   37.85   13.46
   4  -5  -6   30.48   12.95
  -4   5   5   10.41    8.97
  -4   5   5    6.69    6.52
  -4   5   5    9.99    8.97
  -4   5   5    3.81    6.94
  -4   5   5    3.39    7.87
  -4   5   5    9.23    6.10
  -4   5   5    5.76    6.18
   4  -5  -5    5.76    8.38
   4  -5  -5    5.93    8.55
   4  -5  -5    6.77    6.10
  -4   5   4   76.71   15.66
  -4   5   4   83.48   13.21
  -4   5   4  100.16   17.19
  -4   5   4  129.20   19.39
  -4   5   4   81.36   16.42
  -4   5   4   96.77   11.43
  -4   5   4   82.04   13.12
   4  -5  -4  114.38   17.10
   4  -5  -4   73.15   14.90
   4  -5  -4  109.30   15.41
  -4   5   3  192.87   19.22
  -4   5   3  237.40   18.03
  -4   5   3  248.41   20.66
  -4   5   3  261.95   21.84
  -4   5   3  218.86   20.57
  -4   5   3  243.24   15.83
  -4   5   3  245.53   18.37
   4  -5  -3  244.43   18.88
   4  -5  -3  163.49   16.93
   4  -5  -3  227.75   18.54
  -4   5   2   51.90   12.11
  -4   5   2   51.05   11.09
  -4   5   2   70.02   13.46
  -4   5   2   72.39   13.55
  -4   5   2   67.22    7.87
  -4   5   2   66.63   13.97
  -4   5   2   63.75   10.24
  -4   5   2   74.08   12.87
   4  -5  -2   64.85   11.18
   4  -5  -2   56.56   12.19
   4  -5  -2   47.58   11.01
   4  -5  -2   61.38    8.38
  -4   5   1   78.74   13.97
  -4   5   1   85.09   13.63
  -4   5   1  110.40   16.09
  -4   5   1  125.30   13.89
  -4   5   1  108.71   10.16
  -4   5   1   69.68   13.38
  -4   5   1  109.13   11.35
  -4   5   1   97.53   14.73
   4  -5  -1  108.46   10.92
   4  -5  -1   77.04   13.21
   4  -5  -1  111.25   10.50
  -4   5   0    0.08    4.91
  -4   5   0    0.08    4.91
  -4   5   0    3.56    5.93
  -4   5   0    6.35    6.35
  -4   5   0    1.19    4.49
  -4   5   0   -4.06    5.16
  -4   5   0    4.15    4.91
  -4   5   0   -0.93    4.83
   4  -5   0    2.96    4.15
   4  -5   0    2.46    4.74
   4  -5   0   -1.78    5.16
   4  -5   0    7.54    5.33
  -4   5  -1  333.83   20.74
  -4   5  -1  304.54   21.17
  -4   5  -1  476.83   24.21
  -4   5  -1  432.21   23.54
  -4   5  -1  365.07   19.73
  -4   5  -1  353.22   21.50
  -4   5  -1  486.48   22.77
  -4   5  -1  315.97   21.59
   4  -5   1  432.30   15.58
   4  -5   1  428.66   23.03
   4  -5   1  311.23   20.91
   4  -5   1  379.04   20.57
  -4   5  -2  358.72   21.25
  -4   5  -2  366.77   23.28
  -4   5  -2  487.42   24.64
  -4   5  -2  465.32   24.38
  -4   5  -2  373.29   21.42
  -4   5  -2  438.06   23.79
  -4   5  -2  537.96   24.72
  -4   5  -2  406.05   24.38
   4  -5   2  457.87   15.32
   4  -5   2  438.73   23.62
   4  -5   2  351.11   23.20
   4  -5   2  395.64   22.18
  -4   5  -3    1.35    6.27
  -4   5  -3    1.19    4.91
  -4   5  -3    2.88    5.50
  -4   5  -3    2.54    6.01
  -4   5  -3   -1.61    4.57
  -4   5  -3    0.17    4.91
  -4   5  -3    0.51    5.76
   4  -5   3   -1.61    2.79
   4  -5   3   -2.12    4.66
   4  -5   3   -1.27    4.32
   4  -5   3   -7.28    4.66
  -4   5  -4   16.34    8.21
  -4   5  -4   29.97    9.06
  -4   5  -4   30.48    9.65
  -4   5  -4   20.15    9.57
  -4   5  -4   22.27    8.13
  -4   5  -4   30.48    9.74
  -4   5  -4   11.43    7.70
   4  -5   4   21.67    6.18
   4  -5   4   18.88    8.04
   4  -5   4    7.28    7.11
   4  -5   4   14.31    8.55
  -4   5  -5   98.97   16.85
  -4   5  -5  128.18   14.73
  -4   5  -5  130.98   16.34
  -4   5  -5   91.18   16.59
  -4   5  -5  108.62   12.78
  -4   5  -5  144.01   15.92
  -4   5  -5  103.46   16.42
   4  -5   5  108.20   15.75
   4  -5   5  109.05   17.44
   4  -5   5  101.85   16.76
  -4   5  -6   59.01   13.55
  -4   5  -6   80.77   14.39
  -4   5  -6   96.94   16.76
  -4   5  -6   85.68   17.19
  -4   5  -6   46.23   11.85
   4  -5   6   72.30   13.80
   4  -5   6   50.97   13.04
   4  -5   6   62.31   15.16
  -4   5  -7   73.24   15.07
  -4   5  -7  118.11   17.86
  -4   5  -7   98.21   17.69
  -4   5  -7   86.02   18.54
  -4   5  -7   76.79   15.16
   4  -5   7   96.35   15.92
   4  -5   7   77.81   15.32
   4  -5   7   78.31   17.44
  -4   5  -8   15.24    9.57
  -4   5  -8   48.51   12.70
  -4   5  -8   33.10   12.53
  -4   5  -8   20.32   12.28
  -4   5  -8   22.27   10.08
   4  -5   8   28.19   10.75
   4  -5   8   31.24   10.84
   4  -5   8   20.40   11.26
  -4   5  -9   63.67   16.51
  -4   5  -9   32.00   14.82
   4  -5   9   37.93   14.39
  -4   5 -10    1.61   10.16
  -4   5 -10    0.51   11.51
   4  -5  10   -3.30    8.55
  -4   5 -11   39.96   16.09
  -4   5 -11    8.72   13.55
   4  -5  11   23.45   13.97
  -4   4  11   29.80   16.26
  -4   4  11   30.65   17.27
  -4   4  11   36.74   12.45
   4  -4 -11   53.59   21.76
   4  -4 -11   32.77   16.85
  -4   4  10   66.89   19.64
  -4   4  10   93.72   22.27
  -4   4  10   99.99   16.42
   4  -4 -10   89.49   23.45
   4  -4 -10   76.37   20.83
  -4   4   9   95.59   21.84
  -4   4   9  135.63   24.55
  -4   4   9   82.55   13.80
   4  -4  -9  145.71   26.33
   4  -4  -9   93.72   21.17
  -4   4   8   44.20   15.16
  -4   4   8   43.43   13.97
  -4   4   8   36.49   12.78
  -4   4   8   43.77   10.16
   4  -4  -8   58.25   16.26
   4  -4  -8   45.80   13.89
  -4   4   7   27.43   11.85
  -4   4   7   45.97   14.56
  -4   4   7   48.34   13.46
  -4   4   7   41.99    9.14
   4  -4  -7   44.28   13.46
   4  -4  -7   40.81   13.46
  -4   4   6   64.68   15.66
  -4   4   6  108.37   18.80
  -4   4   6   73.40   15.32
  -4   4   6   84.83   10.33
   4  -4  -6  103.38   17.61
   4  -4  -6   68.92   15.83
  -4   4   5  124.54   18.88
  -4   4   5  168.23   14.56
  -4   4   5  154.85   17.19
  -4   4   5  185.59   19.81
  -4   4   5  170.43   18.71
  -4   4   5  174.92   12.45
  -4   4   5  178.64   14.99
   4  -4  -5  192.87   18.71
   4  -4  -5  140.88   16.59
   4  -4  -5  123.70   13.12
  -4   4   4  131.82   15.24
  -4   4   4  145.62   13.46
  -4   4   4  168.14   17.86
  -4   4   4  189.31   18.54
  -4   4   4  162.56   17.61
  -4   4   4  183.38   12.02
  -4   4   4  140.12   13.29
   4  -4  -4  230.37   18.03
   4  -4  -4  111.76   16.93
   4  -4  -4  123.78   12.78
  -4   4   3   45.55   10.92
  -4   4   3   55.62   10.58
  -4   4   3   57.49   12.28
  -4   4   3   53.93   11.85
  -4   4   3   59.86    7.03
  -4   4   3   47.58   11.60
  -4   4   3   62.40    7.79
  -4   4   3   50.29    9.99
   4  -4  -3   79.25   11.77
   4  -4  -3   42.33   10.50
   4  -4  -3   61.81   11.18
   4  -4  -3   50.12    7.28
  -4   4   2    2.88    5.50
  -4   4   2    4.23    5.00
  -4   4   2   11.01    6.01
  -4   4   2    2.96    5.67
  -4   4   2   10.92    4.74
  -4   4   2    3.73    5.00
  -4   4   2    9.74    4.91
  -4   4   2    8.55    4.49
  -4   4   2    8.04    5.76
   4  -4  -2    6.10    5.33
   4  -4  -2    5.50    5.25
   4  -4  -2    7.96    4.40
  -4   4   1    0.93    3.56
  -4   4   1    3.39    4.83
  -4   4   1    1.35    4.15
  -4   4   1   -3.13    4.15
  -4   4   1    1.52    3.89
  -4   4   1   -0.51    3.89
  -4   4   1    0.25    3.64
  -4   4   1   -1.19    3.13
  -4   4   1    3.89    5.33
   4  -4  -1    1.95    3.73
   4  -4  -1   -1.95    4.49
   4  -4  -1    0.00    3.98
  -4   4   0   16.59    7.03
  -4   4   0   35.05    8.97
  -4   4   0   35.14    9.06
  -4   4   0   28.11    8.04
  -4   4   0   26.58    7.03
  -4   4   0   27.35    8.64
  -4   4   0   19.39    6.10
  -4   4   0   35.05    9.06
   4  -4   0   35.98    5.50
   4  -4   0   30.06    8.72
   4  -4   0   32.85    8.72
   4  -4   0   22.27    7.03
  -4   4  -1  160.36   14.31
  -4   4  -1  196.59   16.17
  -4   4  -1  222.84   16.59
  -4   4  -1  223.43   15.58
  -4   4  -1  164.08   13.63
  -4   4  -1  150.36   14.31
  -4   4  -1  226.90   14.99
  -4   4  -1  200.74   16.51
   4  -4   1  202.01    8.21
   4  -4   1  190.67   15.58
   4  -4   1  149.52   13.89
   4  -4   1  183.30   14.31
  -4   4  -2   37.08    9.48
  -4   4  -2   40.55    9.48
  -4   4  -2   53.25   10.16
  -4   4  -2   37.68    9.31
  -4   4  -2   51.22   10.41
  -4   4  -2   48.43    9.40
  -4   4  -2   39.96    9.82
   4  -4   2   45.47    4.40
   4  -4   2   42.42    9.74
   4  -4   2   34.97    8.89
   4  -4   2   46.14    9.91
   4  -4   2   51.48    8.97
  -4   4  -3  394.71   22.35
  -4   4  -3  545.58   25.06
  -4   4  -3  537.11   23.96
  -4   4  -3  428.91   23.71
  -4   4  -3  452.96   21.84
  -4   4  -3  532.20   24.21
  -4   4  -3  382.01   22.01
   4  -4   3  461.93   13.38
   4  -4   3  484.20   23.88
   4  -4   3  360.33   22.27
   4  -4   3  439.24   24.04
   4  -4   3  411.13   20.15
  -4   4  -4   57.83   12.19
  -4   4  -4   65.95   12.36
  -4   4  -4   59.10   11.35
  -4   4  -4   50.46   12.19
  -4   4  -4   60.54   10.84
  -4   4  -4   70.10   12.02
  -4   4  -4   41.06   10.33
   4  -4   4   54.69    7.28
   4  -4   4   61.47   11.94
   4  -4   4   50.80   11.35
   4  -4   4   40.13   10.92
   4  -4   4   51.73   10.41
  -4   4  -5   30.90    6.94
  -4   4  -5   24.89    8.81
  -4   4  -5   40.55   10.67
  -4   4  -5   41.06   10.24
  -4   4  -5   19.81    9.57
  -4   4  -5   29.04    7.45
  -4   4  -5   29.21    9.23
  -4   4  -5   15.66    7.70
   4  -4   5   17.36    5.84
   4  -4   5   22.10    7.87
   4  -4   5   27.52    9.06
   4  -4   5   23.28    9.82
   4  -4   5   14.65    7.79
  -4   4  -6  259.50   16.68
  -4   4  -6  188.04   17.36
  -4   4  -6  275.50   20.66
  -4   4  -6  282.70   21.42
  -4   4  -6  234.35   22.35
  -4   4  -6  249.59   22.35
  -4   4  -6  284.64   21.00
  -4   4  -6  204.38   17.95
   4  -4   6  221.06   15.66
   4  -4   6  237.32   19.56
   4  -4   6  184.74   17.53
   4  -4   6  244.51   21.42
   4  -4   6  210.14   19.90
  -4   4  -7   22.35    8.81
  -4   4  -7   41.74   12.28
  -4   4  -7   40.98   11.51
  -4   4  -7   18.88   11.18
  -4   4  -7   26.84    9.23
   4  -4   7   28.19   10.33
   4  -4   7   33.78   10.84
   4  -4   7   31.33   10.92
   4  -4   7   23.45   10.33
   4  -4   7   24.64   10.84
  -4   4  -8   55.20   12.36
  -4   4  -8   77.04   15.49
  -4   4  -8   92.62   17.44
  -4   4  -8   59.94   17.02
   4  -4   8   54.35   13.55
   4  -4   8   51.65   12.36
   4  -4   8   43.26   13.97
  -4   4  -9   83.73   17.69
  -4   4  -9   89.15   18.37
  -4   4  -9   64.43   17.10
   4  -4   9   55.20   15.83
  -4   4 -10   13.72   11.77
  -4   4 -10    3.89   11.68
   4  -4  10   10.33    9.31
  -4   4 -11   53.00   17.44
  -4   4 -11   41.06   17.86
   4  -4  11   43.52   16.51
  -4   4 -12   16.09   14.73
  -4   4 -12   14.99   14.73
   4  -4  12   20.91   14.39
  -4   3  11    5.93   11.68
  -4   3  11    3.22   11.60
  -4   3  11    5.42    7.79
   4  -3 -11    0.17   13.80
   4  -3 -11    4.91   12.02
   4  -3 -11    1.95   11.85
  -4   3  10   50.38   16.76
  -4   3  10   57.15   18.71
  -4   3  10   44.79   11.01
   4  -3 -10   51.56   18.29
   4  -3 -10   44.87   15.75
  -4   3   9  189.99   23.20
  -4   3   9  273.64   28.19
  -4   3   9  268.47   18.20
   4  -3  -9  255.26   27.77
   4  -3  -9  209.29   24.04
  -4   3   8   37.25   13.46
  -4   3   8   38.78   13.89
  -4   3   8   33.87   12.19
  -4   3   8   32.85    7.79
   4  -3  -8   39.79   14.22
   4  -3  -8   25.57   10.67
  -4   3   7  106.93   18.29
  -4   3   7  148.33   21.59
  -4   3   7  138.85   20.15
   4  -3  -7  167.30   23.11
   4  -3  -7  122.85   19.98
  -4   3   6  145.79   17.61
  -4   3   6  194.22   14.31
  -4   3   6  174.41   18.96
  -4   3   6  214.03   20.83
  -4   3   6  174.24   17.86
  -4   3   6  181.44   10.92
  -4   3   6  197.78   14.48
   4  -3  -6  223.60   20.57
   4  -3  -6  120.48   18.71
   4  -3  -6  156.46   13.21
  -4   3   5  401.14   24.64
  -4   3   5  514.34   22.27
  -4   3   5  454.14   26.16
  -4   3   5  568.86   29.55
  -4   3   5  453.38   25.48
  -4   3   5  564.97   15.83
  -4   3   5  533.30   15.49
  -4   3   5  520.10   22.44
   4  -3  -5  552.01   27.01
   4  -3  -5  368.80   23.54
   4  -3  -5  498.25   22.18
   4  -3  -5  484.28   17.53
  -4   3   4   87.20   14.48
  -4   3   4  107.69   11.60
  -4   3   4  123.78   14.65
  -4   3   4  134.02   14.82
  -4   3   4  118.95    9.40
  -4   3   4  121.16   16.76
  -4   3   4  136.99    7.79
  -4   3   4  126.24    7.54
  -4   3   4  111.50   11.94
   4  -3  -4  140.12   13.72
   4  -3  -4  118.95   16.68
   4  -3  -4   86.70   10.24
   4  -3  -4  115.14    9.57
  -4   3   3   38.35    9.82
  -4   3   3   36.32    8.47
  -4   3   3   53.51   11.51
  -4   3   3   40.55    8.97
  -4   3   3   39.62    7.28
  -4   3   3   51.14   11.18
  -4   3   3   44.96    5.33
  -4   3   3   42.25    5.50
  -4   3   3   21.25    6.94
   4  -3  -3   49.53    9.14
   4  -3  -3   32.85    7.96
   4  -3  -3   30.56    6.43
  -4   3   2  141.73   13.89
  -4   3   2  189.40   14.56
  -4   3   2  160.02   14.65
  -4   3   2  221.40   15.41
  -4   3   2  196.42   12.28
  -4   3   2  141.22   14.05
  -4   3   2  207.17    9.99
  -4   3   2  200.40    9.91
  -4   3   2  177.71   14.22
   4  -3  -2  206.41   12.11
   4  -3  -2  144.44   12.45
   4  -3  -2  174.07   11.85
  -4   3   1   16.17    6.27
  -4   3   1   13.12    6.27
  -4   3   1   26.50    7.79
  -4   3   1   22.27    6.86
  -4   3   1   13.72    5.67
  -4   3   1   13.46    6.52
  -4   3   1   13.72    4.49
  -4   3   1   14.90    4.57
  -4   3   1   13.63    6.10
   4  -3  -1   22.18    5.00
   4  -3  -1   24.38    7.28
   4  -3  -1    9.82    5.93
   4  -3  -1   15.66    5.59
  -4   3   0  184.40   14.73
  -4   3   0  153.67   13.04
  -4   3   0  237.99   16.42
  -4   3   0  256.28   15.24
  -4   3   0  191.94   13.38
  -4   3   0  172.29   14.48
  -4   3   0  250.61   13.12
  -4   3   0  170.85   14.39
   4  -3   0  237.23    7.28
   4  -3   0  235.20   16.59
   4  -3   0  186.09   14.31
   4  -3   0  184.48   13.46
  -4   3  -1  106.76   11.18
  -4   3  -1  135.29   12.45
  -4   3  -1  120.31   11.85
  -4   3  -1  143.85   13.21
  -4   3  -1  142.15   11.18
  -4   3  -1  117.85   12.45
   4  -3   1  139.78   13.38
   4  -3   1   97.45   11.68
   4  -3   1  108.96   11.68
  -4   3  -2  381.08    5.25
  -4   3  -2  282.36   18.03
  -4   3  -2  354.91   19.30
  -4   3  -2   -0.34    1.86
  -4   3  -2  316.14   18.96
  -4   3  -2  373.37   19.22
  -4   3  -2  414.94   19.22
  -4   3  -2  284.05   18.20
   4  -3   2  379.21   20.40
   4  -3   2  267.12   17.78
   4  -3   2  318.42   18.54
   4  -3   2  304.12   15.24
  -4   3  -3  126.66    6.77
  -4   3  -3   80.43   12.28
  -4   3  -3  128.01   13.29
  -4   3  -3   -1.02    1.78
  -4   3  -3   88.31   13.38
  -4   3  -3  107.44   11.26
  -4   3  -3  125.39   12.19
  -4   3  -3   88.73   12.87
   4  -3   3  108.71   12.45
   4  -3   3   86.27   12.95
   4  -3   3   94.49   13.89
   4  -3   3  114.64   11.51
  -4   3  -4  160.78    9.91
  -4   3  -4  119.97   12.95
  -4   3  -4  165.77   15.32
  -4   3  -4    9.23    4.57
  -4   3  -4  112.77   13.12
  -4   3  -4  145.62   12.87
  -4   3  -4  157.48   14.31
  -4   3  -4  124.46   13.12
   4  -3   4  146.89   14.56
   4  -3   4  113.70   12.70
   4  -3   4  115.82   14.14
   4  -3   4  168.40   13.89
   4  -3   4  127.34   13.04
  -4   3  -5   54.02    8.64
  -4   3  -5   34.63    9.14
  -4   3  -5   41.15   10.67
  -4   3  -5   45.55    9.82
  -4   3  -5   33.61   10.75
  -4   3  -5   48.60    9.23
  -4   3  -5   61.97   11.85
  -4   3  -5   33.70    9.06
   4  -3   5   38.86   10.24
   4  -3   5   29.21    8.81
   4  -3   5   32.26    9.74
   4  -3   5   45.13    9.23
   4  -3   5   38.35   10.08
  -4   3  -6   95.67   12.70
  -4   3  -6   60.96   11.68
  -4   3  -6   98.72   15.58
  -4   3  -6   82.12   13.46
  -4   3  -6   71.63   14.56
  -4   3  -6   82.55   14.31
  -4   3  -6   50.04   10.58
   4  -3   6   76.88   14.39
   4  -3   6   42.50   10.16
   4  -3   6   59.52   13.29
   4  -3   6   61.97   10.24
   4  -3   6   70.02   13.80
  -4   3  -7   84.75   13.55
  -4   3  -7   62.91   12.11
  -4   3  -7   78.65   15.24
  -4   3  -7   71.37   13.89
  -4   3  -7   51.14   13.46
  -4   3  -7   49.11   11.01
   4  -3   7   60.20   13.97
   4  -3   7   56.98   12.28
   4  -3   7   60.20   15.16
   4  -3   7   58.16   13.80
  -4   3  -8   68.75   14.14
  -4   3  -8   65.02   15.24
  -4   3  -8   88.90   17.53
  -4   3  -8   56.05   14.99
   4  -3   8   59.94   14.31
   4  -3   8   69.00   16.59
   4  -3   8   56.30   14.73
  -4   3  -9   29.72   12.36
  -4   3  -9   34.88   12.78
  -4   3  -9   36.83   14.48
   4  -3   9   29.38   11.60
   4  -3   9   23.28   11.51
  -4   3 -10  206.33   27.77
  -4   3 -10  205.82   24.13
  -4   3 -10  147.91   25.15
   4  -3  10  144.78   23.54
   4  -3  10  161.03   25.91
  -4   3 -11   -6.10   11.18
  -4   3 -11    9.40   12.28
   4  -3  11   -5.42    8.55
  -4   3 -12  141.05   27.35
   4  -3  12  108.54   24.04
  -4   2  12   45.21   17.36
  -4   2  12   41.74   17.78
  -4   2  12   45.89   12.62
   4  -2 -12   48.17   21.25
   4  -2 -12   28.19   14.90
   4  -2 -12   49.19   19.05
  -4   2  11   45.97   17.10
  -4   2  11   45.63   17.36
  -4   2  11   62.48   12.78
   4  -2 -11   53.59   19.22
   4  -2 -11   41.49   15.49
   4  -2 -11   39.54   16.34
  -4   2  10   99.57   19.98
  -4   2  10  132.16   24.04
  -4   2  10  129.45   13.80
   4  -2 -10  179.74   28.79
   4  -2 -10  117.01   20.91
   4  -2 -10  103.80   21.67
  -4   2   9   12.19    9.65
  -4   2   9   30.65   13.29
  -4   2   9   19.47    6.86
   4  -2  -9   12.53   11.77
   4  -2  -9   17.69   10.41
  -4   2   8  102.87   18.63
  -4   2   8  162.22   19.39
  -4   2   8  140.46   17.10
  -4   2   8  150.62   11.09
   4  -2  -8  153.58   23.20
   4  -2  -8  115.65   19.30
  -4   2   7   18.12    9.91
  -4   2   7   36.66   11.18
  -4   2   7   28.36    9.23
  -4   2   7   34.29    5.59
   4  -2  -7   41.82   12.95
   4  -2  -7   33.78   11.09
  -4   2   6  127.42   15.66
  -4   2   6  154.68   12.87
  -4   2   6  152.40   15.66
  -4   2   6  169.08   16.85
  -4   2   6  166.79   13.12
  -4   2   6  166.45   12.62
  -4   2   6  160.44   15.83
  -4   2   6  163.40    6.27
  -4   2   6  156.21   12.95
   4  -2  -6  169.67   17.61
   4  -2  -6  124.88   14.31
   4  -2  -6  138.85   12.28
   4  -2  -6  145.20   12.11
   4  -2  -6  151.38   12.95
  -4   2   5    3.47    4.83
  -4   2   5    4.83    4.66
  -4   2   5    1.19    6.01
  -4   2   5    6.52    6.43
  -4   2   5    3.81    4.49
  -4   2   5    3.56    4.06
  -4   2   5    7.54    6.27
  -4   2   5    5.25    4.91
   4  -2  -5   10.33    6.77
   4  -2  -5    9.91    6.86
   4  -2  -5    6.69    4.74
   4  -2  -5   13.46    5.25
   4  -2  -5    6.01    4.23
  -4   2   4  192.61   16.00
  -4   2   4  229.44   14.90
  -4   2   4  238.75   17.53
  -4   2   4  259.92   16.00
  -4   2   4  291.08   18.54
  -4   2   4  294.29   15.16
  -4   2   4  249.08   13.72
  -4   2   4  252.89   17.61
  -4   2   4  226.39   14.99
   4  -2  -4  275.75   17.10
   4  -2  -4  172.38   15.24
   4  -2  -4  173.56   13.21
   4  -2  -4  266.27   14.39
  -4   2   3  515.44   23.79
  -4   2   3  648.70   24.38
  -4   2   3  644.05   26.33
  -4   2   3  737.94   26.16
  -4   2   3  674.69   24.98
  -4   2   3  667.41   21.84
  -4   2   3  651.07   26.25
  -4   2   3  654.29   24.55
   4  -2  -3  727.36   22.69
   4  -2  -3  553.88   22.69
   4  -2  -3  623.64   21.25
  -4   2   2   40.72    8.55
  -4   2   2   36.15    8.21
  -4   2   2   47.41    9.65
  -4   2   2   43.35    9.23
  -4   2   2   48.17    8.21
  -4   2   2   50.04    8.21
  -4   2   2   48.60    9.82
  -4   2   2   49.95    3.73
  -4   2   2   50.54    3.89
  -4   2   2   36.32    8.13
   4  -2  -2   51.56    7.20
   4  -2  -2   61.38   10.58
   4  -2  -2   38.10    8.38
   4  -2  -2   51.31    8.64
  -4   2   1   28.62    7.79
  -4   2   1   24.98    7.37
  -4   2   1   39.71    8.89
  -4   2   1   12.36    3.89
  -4   2   1   29.80    7.11
  -4   2   1   29.04    8.13
  -4   2   1   41.15    5.42
  -4   2   1   25.48    4.57
  -4   2   1   25.82    7.45
   4  -2  -1   41.15    5.25
   4  -2  -1   41.91    9.23
   4  -2  -1   28.62    7.70
   4  -2  -1   36.66    7.79
  -4   2   0  214.96   15.16
  -4   2   0  200.40   14.65
  -4   2   0  250.52   16.26
  -4   2   0  278.21   12.87
  -4   2   0  227.16   14.56
  -4   2   0  227.66   15.66
  -4   2   0  231.13   11.60
  -4   2   0  224.45   15.49
   4  -2   0  235.96   16.00
   4  -2   0  174.66   14.05
   4  -2   0  245.70   15.32
  -4   2  -1  243.58   15.92
  -4   2  -1  323.17   18.37
  -4   2  -1  333.58   13.80
  -4   2  -1  257.13   15.66
  -4   2  -1  302.93   17.19
  -4   2  -1  228.00   15.58
   4  -2   1  334.68   18.71
   4  -2   1  237.32   15.41
   4  -2   1  271.94   16.68
  -4   2  -2  423.49    7.37
  -4   2  -2  334.68   18.46
  -4   2  -2  399.28   20.66
  -4   2  -2  463.54   16.59
  -4   2  -2  362.20   19.39
  -4   2  -2  391.41   18.88
  -4   2  -2  521.28   20.57
  -4   2  -2  338.66   18.63
   4  -2   2  379.47   19.64
   4  -2   2  325.28   17.86
   4  -2   2  359.32   19.39
   4  -2   2  432.13   19.90
   4  -2   2  393.35   16.59
  -4   2  -3  177.29    8.72
  -4   2  -3  131.15   12.36
  -4   2  -3  159.09   13.72
  -4   2  -3  174.32   11.85
  -4   2  -3  139.87   13.29
  -4   2  -3  167.13   13.04
  -4   2  -3  185.92   13.89
  -4   2  -3  120.31   12.02
   4  -2   3  154.09   14.22
   4  -2   3  134.11   12.62
   4  -2   3  131.82   13.89
   4  -2   3  159.59   12.95
   4  -2   3  148.42   12.45
  -4   2  -4  459.65   16.59
  -4   2  -4  321.39   18.37
  -4   2  -4  437.89   23.54
  -4   2  -4  484.96   20.15
  -4   2  -4  381.50   22.86
  -4   2  -4  445.25   20.15
  -4   2  -4  498.76   23.11
  -4   2  -4  329.68   18.54
   4  -2   4  395.30   22.27
   4  -2   4  392.68   20.49
   4  -2   4  352.88   21.50
   4  -2   4  434.58   20.07
   4  -2   4  399.87   20.49
  -4   2  -5   77.64    9.65
  -4   2  -5   61.13   10.58
  -4   2  -5   69.34   13.55
  -4   2  -5   96.77   11.60
  -4   2  -5   72.90   14.05
  -4   2  -5   86.44   13.63
  -4   2  -5   50.04    9.65
   4  -2   5   80.85   14.48
   4  -2   5    1.86    2.88
   4  -2   5   64.35   13.21
   4  -2   5   71.29   11.09
   4  -2   5   61.47   12.28
  -4   2  -6  484.03   22.61
  -4   2  -6  407.41   20.66
  -4   2  -6  524.33   27.94
  -4   2  -6   -0.25    2.62
  -4   2  -6  423.58   26.33
  -4   2  -6  543.38   27.35
  -4   2  -6  438.06   21.50
   4  -2   6  467.01   26.42
   4  -2   6  402.50   20.91
   4  -2   6  476.24   28.53
   4  -2   6  448.55   20.49
   4  -2   6  472.09   26.16
  -4   2  -7  296.83   20.91
  -4   2  -7  230.54   18.80
  -4   2  -7  275.92   22.10
  -4   2  -7  282.10   21.17
  -4   2  -7  224.79   20.91
  -4   2  -7  257.30   20.91
   4  -2   7  230.20   21.50
   4  -2   7  220.47   21.67
   4  -2   7  196.59   19.64
  -4   2  -8  161.54   18.03
  -4   2  -8  169.67   20.57
  -4   2  -8  165.44   18.54
  -4   2  -8  115.40   20.32
   4  -2   8  117.26   20.32
   4  -2   8  124.12   20.32
   4  -2   8  104.56   18.20
  -4   2  -9   66.63   16.42
  -4   2  -9   43.09   15.07
  -4   2  -9   71.54   16.34
  -4   2  -9   74.42   17.95
   4  -2   9   47.84   14.56
   4  -2   9   38.61   13.21
   4  -2   9   34.37   22.52
  -4   2 -10   24.30   13.04
  -4   2 -10   37.08   13.63
  -4   2 -10   29.80   14.31
   4  -2  10   16.68   12.36
   4  -2  10   13.38   10.50
  -4   2 -11   64.01   19.05
  -4   2 -11   60.87   18.03
   4  -2  11   57.91   18.03
   4  -2  11   70.53   18.71
  -4   1  12   36.24   17.10
  -4   1  12   27.26    9.99
   4  -1 -12   19.05   16.26
   4  -1 -12   25.74   15.32
  -4   1  11  115.65   21.59
  -4   1  11  134.45   25.23
  -4   1  11  131.57   14.90
   4  -1 -11  202.69   30.82
   4  -1 -11  136.99   22.52
   4  -1 -11  113.62   22.52
  -4   1  10   17.02   10.41
  -4   1  10   10.92   11.18
  -4   1  10   21.67    7.28
   4  -1 -10    7.87   12.28
   4  -1 -10   12.11    9.91
   4  -1 -10   11.26   11.26
  -4   1   9    0.93    8.81
  -4   1   9    6.27    8.38
  -4   1   9    6.35    9.48
  -4   1   9    2.54    4.32
   4  -1  -9   -2.20    9.14
   4  -1  -9   -3.56    6.43
   4  -1  -9   -0.93    7.96
  -4   1   8   57.40   14.65
  -4   1   8   65.62   14.48
  -4   1   8   63.41   15.58
  -4   1   8   86.95   13.46
  -4   1   8   73.91   13.46
  -4   1   8   75.10    6.94
   4  -1  -8  113.70   19.30
   4  -1  -8   63.92   14.22
   4  -1  -8   67.14   12.28
  -4   1   7    1.44    7.11
  -4   1   7    5.42    6.86
  -4   1   7    4.91    5.08
  -4   1   7    6.86    5.84
  -4   1   7   14.22    8.97
  -4   1   7    5.84    5.84
  -4   1   7    5.16    7.20
  -4   1   7    5.33    1.52
  -4   1   7    7.03    1.86
   4  -1  -7   14.31    8.97
   4  -1  -7   11.18    6.35
   4  -1  -7    7.70    6.94
   4  -1  -7   11.26    5.93
   4  -1  -7   10.24    6.77
   4  -1  -7    9.06    5.93
  -4   1   6  337.90   21.93
  -4   1   6  274.82   18.80
  -4   1   6  377.86   18.96
  -4   1   6  329.18   21.08
  -4   1   6  421.97   20.15
  -4   1   6  371.68   23.45
  -4   1   6  362.62   19.05
  -4   1   6  360.84   19.22
  -4   1   6  378.03   20.74
  -4   1   6  365.75   18.71
   4  -1  -6  350.77   22.61
   4  -1  -6  268.90   19.13
   4  -1  -6  322.66   17.69
   4  -1  -6  347.04   19.13
   4  -1  -6  333.41   18.20
  -4   1   5   59.86   10.84
  -4   1   5   65.70   11.94
  -4   1   5   81.62   11.35
  -4   1   5   82.12   12.62
  -4   1   5   -0.42    2.46
  -4   1   5   77.38   12.45
  -4   1   5    2.03    2.79
  -4   1   5   80.35    9.48
  -4   1   5   76.03   12.02
  -4   1   5   96.60   10.58
   4  -1  -5   81.87   12.78
   4  -1  -5   68.41   11.51
   4  -1  -5   69.85   10.67
   4  -1  -5   79.67    9.65
   4  -1  -5   90.08   10.67
  -4   1   4  733.96   25.23
  -4   1   4  672.66   25.74
  -4   1   4  896.52   28.11
  -4   1   4  802.37   28.28
  -4   1   4  906.51   28.45
  -4   1   4  896.01   28.96
  -4   1   4  845.38   26.42
  -4   1   4  867.56   26.58
  -4   1   4  675.46   25.82
  -4   1   4  892.37   28.11
   4  -1  -4  825.99   26.75
   4  -1  -4  759.44   25.99
   4  -1  -4  862.73   26.58
   4  -1  -4  928.18   28.70
  -4   1   3  708.64   21.84
  -4   1   3  582.32   23.37
  -4   1   3  628.64   23.37
  -4   1   3  725.83   25.91
  -4   1   3  828.36   27.18
  -4   1   3  830.31   25.23
  -4   1   3  732.27   24.13
  -4   1   3  693.32   23.45
  -4   1   3  587.49   23.79
  -4   1   3  628.04   23.71
   4  -1  -3  801.61   23.28
   4  -1  -3  647.18   24.04
   4  -1  -3  671.14   23.11
  -4   1   2  966.79   21.34
  -4   1   2  950.70   28.45
  -4   1   2 1146.11   31.58
  -4   1   2 1091.41   30.73
  -4   1   2 1183.36   32.09
  -4   1   2 1177.52   25.91
  -4   1   2 1172.95   30.14
  -4   1   2 1039.85   28.36
  -4   1   2 1130.87   31.92
  -4   1   2 1200.12   32.34
   4  -1  -2 1206.39   32.00
   4  -1  -2  827.51   26.67
   4  -1  -2  979.66   27.69
  -4   1   1   55.88    5.16
  -4   1   1   61.72    9.91
  -4   1   1   58.76    9.91
  -4   1   1   80.94   11.43
  -4   1   1   67.65   10.41
  -4   1   1   70.02    6.94
  -4   1   1   47.92    8.81
  -4   1   1   49.87    9.57
  -4   1   1   70.61    5.50
  -4   1   1   54.44    5.08
  -4   1   1   55.71    9.48
   4  -1  -1   78.74   11.01
   4  -1  -1   44.87    8.72
   4  -1  -1   52.75    9.23
  -4   1   0  249.17    6.69
  -4   1   0  191.68   13.97
  -4   1   0  275.50   15.83
  -4   1   0  274.82   15.83
  -4   1   0  303.95   10.41
  -4   1   0  220.30   14.65
  -4   1   0  218.77   14.90
  -4   1   0  281.51   12.28
  -4   1   0  255.26   11.68
  -4   1   0  201.16   14.39
   4  -1   0  256.03   16.00
   4  -1   0  228.76   15.07
   4  -1   0  194.73   14.14
   4  -1   0  269.23   16.51
  -4   1  -1   49.02    3.73
  -4   1  -1   27.60    7.45
  -4   1  -1   53.34   10.24
  -4   1  -1   52.92    9.06
  -4   1  -1   50.21    5.33
  -4   1  -1   39.54    8.72
  -4   1  -1   43.18    8.81
  -4   1  -1   53.59    8.04
  -4   1  -1   27.09    7.54
   4  -1   1   40.64    9.23
   4  -1   1   31.83    7.37
   4  -1   1   38.10    8.97
   4  -1   1   32.00    8.30
  -4   1  -2   21.93    4.23
  -4   1  -2   15.24    6.18
  -4   1  -2   16.93    7.11
  -4   1  -2   21.42    6.94
  -4   1  -2   22.35    4.49
  -4   1  -2   15.07    5.93
  -4   1  -2   19.47    6.69
  -4   1  -2   25.82    7.20
  -4   1  -2   18.20    6.35
   4  -1   2   30.48    8.55
   4  -1   2   10.92    5.67
   4  -1   2   17.36    6.94
   4  -1   2   18.29    6.69
   4  -1   2   20.40    6.10
  -4   1  -3  977.71   22.18
  -4   1  -3  786.71   26.42
  -4   1  -3  917.51   32.00
  -4   1  -3 1035.28   23.37
  -4   1  -3  767.91   29.04
  -4   1  -3  808.97   26.84
   4  -1   3  876.70   30.90
   4  -1   3  735.31   25.65
   4  -1   3  902.19   31.83
   4  -1   3  878.82   27.77
   4  -1   3  897.87   27.26
  -4   1  -4  129.45   10.75
  -4   1  -4  106.68   10.75
  -4   1  -4  121.41   13.21
  -4   1  -4  143.59   11.18
  -4   1  -4  103.38   14.73
  -4   1  -4  155.61   14.14
  -4   1  -4  114.21   11.01
   4  -1   4  109.13   12.53
   4  -1   4    3.73    3.05
   4  -1   4  111.84   13.55
   4  -1   4  131.65   12.11
   4  -1   4  113.96   12.45
  -4   1  -5  493.34   21.50
  -4   1  -5  395.89   19.47
  -4   1  -5  426.54   25.40
  -4   1  -5  540.58   22.27
  -4   1  -5  390.14   24.13
  -4   1  -5  583.43   26.58
  -4   1  -5  401.82   19.47
   4  -1   5  421.04   24.98
   4  -1   5  383.87   19.30
   4  -1   5  393.69   24.21
   4  -1   5  442.54   21.08
   4  -1   5  500.62   24.98
  -4   1  -6  261.02   18.37
  -4   1  -6  217.42   15.07
  -4   1  -6  227.75   21.00
  -4   1  -6  264.32   18.63
  -4   1  -6  202.94   19.64
  -4   1  -6  224.02   15.41
   4  -1   6  197.78   19.47
   4  -1   6  173.39   13.89
   4  -1   6  167.64   17.95
   4  -1   6  189.06   15.07
   4  -1   6  207.94   19.05
  -4   1  -7  303.61   21.84
  -4   1  -7  262.88   23.62
  -4   1  -7   10.50    5.76
  -4   1  -7  279.48   23.62
   4  -1   7  226.65   21.93
   4  -1   7  229.19   21.59
   4  -1   7  280.41   23.45
  -4   1  -8    7.03    8.72
  -4   1  -8    5.08    9.48
  -4   1  -8   10.24    8.72
  -4   1  -8    3.81    8.72
   4  -1   8    5.25    8.72
   4  -1   8    5.84    8.30
   4  -1   8   10.41    9.82
  -4   1  -9   42.67   14.99
  -4   1  -9   35.22   14.56
  -4   1  -9   29.63   11.68
  -4   1  -9   49.36   14.82
   4  -1   9   26.92   11.51
   4  -1   9   37.34   12.87
  -4   1 -10   20.49   13.12
  -4   1 -10    4.83   11.60
  -4   1 -10   -0.93    9.91
   4  -1  10    2.29   10.84
   4  -1  10    6.35   10.50
  -4   1 -11   30.56   16.09
  -4   1 -11   24.98   14.48
   4  -1  11   26.58   14.56
   4  -1  11   26.92   13.38
  -4   0  13    5.25   10.67
  -4   0  13   10.08    8.89
   4   0 -13    2.96   14.56
   4   0 -13    8.13   12.70
  -4   0  12   62.48   19.64
  -4   0  12   74.84   13.80
   4   0 -12   94.91   23.79
   4   0 -12  106.25   23.37
  -4   0  11   18.03   13.12
  -4   0  11   23.20   14.22
  -4   0  11   15.49    7.62
   4   0 -11   13.46   13.72
   4   0 -11   21.17   12.95
  -4   0  10   41.23   15.49
  -4   0  10   42.08   12.53
  -4   0  10   49.36   16.00
  -4   0  10   41.91    8.47
   4   0 -10   61.04   17.69
   4   0 -10   48.17   13.29
   4   0 -10   55.96   16.17
  -4   0   9  183.98   22.35
  -4   0   9  161.46   17.69
  -4   0   9  151.80   23.11
  -4   0   9    0.93    3.64
  -4   0   9  193.12   11.68
   4   0  -9  218.35   23.96
   4   0  -9  149.60   16.93
   4   0  -9  159.51   23.20
   4   0  -9  168.91   18.12
  -4   0   8   50.21   12.95
  -4   0   8   44.96   11.35
  -4   0   8   64.51   15.49
  -4   0   8   72.47   13.46
  -4   0   8   57.66   13.29
  -4   0   8   58.67    5.50
   4   0  -8   53.00   13.46
   4   0  -8   60.28   16.34
   4   0  -8   47.84   11.60
   4   0  -8   48.43   13.55
   4   0  -8   62.91   12.70
   4   0  -8   55.46   15.75
  -4   0   7  221.82   19.13
  -4   0   7  188.97   16.42
  -4   0   7  273.81   17.19
  -4   0   7  291.16   17.78
  -4   0   7  240.62   19.73
  -4   0   7  270.25   18.80
  -4   0   7  260.34   17.44
   4   0  -7  258.65   21.42
   4   0  -7  254.67   16.85
   4   0  -7  207.09   16.76
   4   0  -7  236.05   19.56
   4   0  -7  225.46   17.69
   4   0  -7  274.23   17.61
  -4   0   6  170.94   15.49
  -4   0   6  143.68   13.55
  -4   0   6  169.50   13.29
  -4   0   6  205.57   15.75
  -4   0   6   58.42    9.82
  -4   0   6  177.46   15.66
  -4   0   6  176.53   14.90
  -4   0   6  180.25   14.99
  -4   0   6  198.12   14.73
   4   0  -6  191.77   17.19
   4   0  -6  159.34   13.29
   4   0  -6  144.78   13.46
   4   0  -6  161.20   14.90
   4   0  -6  177.20   15.07
   4   0  -6  170.60   13.80
  -4   0   5  895.08   30.73
  -4   0   5  834.63   27.94
  -4   0   5 1031.22   30.99
  -4   0   5  992.78   30.39
  -4   0   5 1002.09   30.48
  -4   0   5 1085.23   33.53
  -4   0   5  932.33   30.31
  -4   0   5 1009.97   31.50
  -4   0   5  999.13   30.23
  -4   0   5 1066.27   31.58
   4   0  -5  837.34   28.02
   4   0  -5  771.30   26.92
   4   0  -5  996.08   31.41
   4   0  -5 1010.81   30.90
  -4   0   4  218.10   14.39
  -4   0   4  197.35   13.80
  -4   0   4  201.33   14.22
  -4   0   4  243.24   14.99
  -4   0   4  262.63   16.34
  -4   0   4  260.60   15.75
  -4   0   4  262.97   16.26
  -4   0   4  241.89   15.66
  -4   0   4  225.29   15.07
  -4   0   4  181.86   13.63
   4   0  -4  211.83   14.82
  -4   0   3  113.96    9.82
  -4   0   3   94.74   10.08
  -4   0   3  108.71   11.09
  -4   0   3  100.92   10.24
  -4   0   3  103.04   11.26
  -4   0   3   86.61    8.64
  -4   0   3  100.50   10.92
  -4   0   3   92.71    9.74
  -4   0   3   99.14   11.09
  -4   0   3  117.35   11.43
   4   0  -3  123.53   11.26
   4   0  -3   95.25   10.67
   4   0  -3  118.45   11.01
   4   0  -3  119.04   11.94
  -4   0   2  148.93    9.99
  -4   0   2  131.99   11.43
  -4   0   2  181.10   13.63
  -4   0   2  183.64   12.87
  -4   0   2  182.54   13.29
  -4   0   2  154.34    9.23
  -4   0   2  167.72   13.21
  -4   0   2  179.24   13.38
  -4   0   2  184.06   13.97
  -4   0   2  172.97   13.46
   4   0  -2  181.69   13.12
   4   0  -2  151.30   12.62
   4   0  -2  182.71   14.05
   4   0  -2  184.82   14.14
  -4   0   1  713.47   17.61
  -4   0   1  611.03   22.94
  -4   0   1  715.67   24.13
  -4   0   1  778.15   26.25
  -4   0   1  713.81   13.46
  -4   0   1  732.52   24.89
  -4   0   1  622.46   23.28
  -4   0   1  651.16   23.79
  -4   0   1  753.77   16.00
  -4   0   1  644.47   14.73
  -4   0   1  632.36   23.79
   4   0  -1  680.54   23.11
   4   0  -1  638.71   23.28
   4   0  -1  678.42   24.21
   4   0  -1  671.48   24.55
  -4   0   0  554.22   14.82
  -4   0   0  448.38   19.73
  -4   0   0  533.30   21.67
  -4   0   0  536.44   21.93
  -4   0   0  449.15   19.98
  -4   0   0  550.15   22.52
  -4   0   0  572.76   17.53
  -4   0   0  556.67   20.49
  -4   0   0  487.33   20.57
   4   0   0  500.20   21.08
   4   0   0  478.27   21.08
   4   0   0  550.83   22.44
  -4   0  -1  296.41   11.68
  -4   0  -1  245.70   15.24
  -4   0  -1  281.00   16.51
  -4   0  -1  306.06   16.93
  -4   0  -1  259.24   15.92
  -4   0  -1  294.46   14.99
  -4   0  -1  238.84   15.07
   4   0   1  256.53   15.83
   4   0   1  217.84   13.97
   4   0   1  262.04   16.59
   4   0   1  278.89   16.76
  -4   0  -2  159.42   10.08
  -4   0  -2  134.11   11.60
  -4   0  -2  157.98   14.14
  -4   0  -2  165.52   12.87
  -4   0  -2  172.21    7.28
  -4   0  -2  140.46   13.12
  -4   0  -2  190.24   13.46
  -4   0  -2  123.27   11.26
   4   0   2  127.34   13.12
   4   0   2  130.89   11.60
   4   0   2  142.91   13.38
   4   0   2  157.14   13.38
   4   0   2  149.09   11.35
  -4   0  -3  308.94   15.32
  -4   0  -3  243.75   14.82
  -4   0  -3  316.14   19.56
  -4   0  -3  299.63   16.34
  -4   0  -3  337.22   12.87
  -4   0  -3  257.97   17.78
  -4   0  -3  323.67   18.29
  -4   0  -3  273.98   15.66
   4   0   3  281.93   19.13
   4   0   3  224.62   14.22
   4   0   3  277.95   17.78
   4   0   3  282.53   17.27
   4   0   3  341.45   18.12
  -4   0  -4   28.11    7.45
  -4   0  -4   37.76    7.87
  -4   0  -4   24.89    9.40
  -4   0  -4   46.57    7.79
  -4   0  -4   29.46    8.81
  -4   0  -4   35.39    7.62
   4   0   4   28.87    9.65
   4   0   4   34.54    7.28
   4   0   4   31.58    9.31
   4   0   4   32.34    8.30
   4   0   4   36.24    9.31
  -4   0  -5  142.15   13.97
  -4   0  -5  124.46   11.43
  -4   0  -5  130.05   18.80
  -4   0  -5  167.55   13.55
  -4   0  -5  119.89   14.90
  -4   0  -5  144.69   14.90
  -4   0  -5  129.54   11.51
   4   0   5  134.28   15.24
   4   0   5  120.05   11.18
   4   0   5  118.62   17.02
   4   0   5  146.47   13.89
   4   0   5  117.77   14.48
   4   0   5  137.50   11.94
  -4   0  -6   64.35   12.70
  -4   0  -6   71.71   15.75
  -4   0  -6   89.24   13.55
  -4   0  -6   60.87   13.46
   4   0   6   52.41   13.89
   4   0   6   54.78   12.87
   4   0   6   49.02   10.33
   4   0   6   43.52   11.94
  -4   0  -7   86.78   16.00
  -4   0  -7   88.81   18.12
  -4   0  -7   77.64   14.22
  -4   0  -7   56.30   13.80
   4   0   7   66.04   15.83
   4   0   7   68.75   14.39
   4   0   7   69.00   15.58
  -4   0  -8   27.60   11.77
  -4   0  -8   13.55   11.60
  -4   0  -8    2.37    3.89
  -4   0  -8   16.17   10.24
   4   0   8   15.66   10.75
   4   0   8   10.16    9.23
   4   0   8   27.01   12.36
  -4   0  -9  115.99   21.00
  -4   0  -9   76.03   19.30
  -4   0  -9   75.01   17.02
   4   0   9   70.27   18.71
   4   0   9   74.08   16.51
  -4   0 -10   -8.13   10.16
  -4   0 -10   -4.74   10.33
  -4   0 -10   -2.20    9.91
   4   0  10   -1.35    7.11
   4   0  10   -6.60    6.69
  -4   0 -11   22.94   15.66
  -4   0 -11   14.82   14.73
   4   0  11    3.30    9.23
  -4  -1  13   20.32   17.10
  -4  -1  13   34.37   11.60
   4   1 -13   34.46   19.13
   4   1 -13   45.13   18.71
  -4  -1  12    8.89   14.22
  -4  -1  12    9.65    7.87
   4   1 -12    8.64   14.31
   4   1 -12    8.04   12.62
  -4  -1  11   25.40   15.07
  -4  -1  11   33.87   15.16
  -4  -1  11   37.17   13.29
  -4  -1  11   23.62    7.96
   4   1 -11   22.61   14.73
   4   1 -11   43.35   15.75
   4   1 -11   16.51   12.11
  -4  -1  10  310.13   28.96
  -4  -1  10  303.10   28.70
  -4  -1  10  305.30   24.55
  -4  -1  10  296.41   16.59
   4   1 -10  376.17   31.50
   4   1 -10  377.01   30.90
   4   1 -10  323.67   27.01
  -4  -1   9   13.38    9.23
  -4  -1   9   11.43    8.21
  -4  -1   9    2.62    9.65
  -4  -1   9    7.79    8.72
  -4  -1   9    1.78    4.15
   4   1  -9   12.78    9.23
   4   1  -9    9.14    6.94
   4   1  -9    9.99    9.65
   4   1  -9   14.31    9.48
  -4  -1   8  305.98   24.64
  -4  -1   8  285.83   19.47
  -4  -1   8  335.78   20.23
  -4  -1   8  306.74   23.45
  -4  -1   8  312.50   22.52
  -4  -1   8  313.01   10.84
   4   1  -8  328.75   20.32
   4   1  -8  280.75   18.71
   4   1  -8  320.20   23.79
   4   1  -8  297.09   22.52
   4   1  -8  379.81   21.67
  -4  -1   7   95.25   16.51
  -4  -1   7   84.75   12.53
  -4  -1   7   28.53    7.70
  -4  -1   7   82.46   14.90
  -4  -1   7  102.53   15.32
  -4  -1   7   94.15   14.65
  -4  -1   7  111.67   12.28
   4   1  -7   93.22   11.60
   4   1  -7   84.41   12.28
   4   1  -7  111.84   16.76
   4   1  -7  109.47   15.75
   4   1  -7  108.79   11.85
   4   1  -7  102.53   12.36
  -4  -1   6  235.37   18.71
  -4  -1   6  210.14   14.22
  -4  -1   6  249.25   16.68
  -4  -1   6  270.17   16.34
  -4  -1   6  248.66   16.85
  -4  -1   6  241.89   18.37
  -4  -1   6  263.82   18.80
  -4  -1   6  239.35   17.95
  -4  -1   6  271.44   16.59
   4   1  -6  237.48   16.59
   4   1  -6  195.07   13.97
   4   1  -6  260.68   18.71
   4   1  -6  235.71   18.12
   4   1  -6  271.18   16.59
   4   1  -6  249.59   17.10
  -4  -1   5  252.64   17.53
  -4  -1   5  258.91   15.07
  -4  -1   5  300.98   17.95
  -4  -1   5  283.97   15.58
  -4  -1   5  247.64   16.51
  -4  -1   5  249.93   16.51
  -4  -1   5  259.67   17.78
  -4  -1   5  257.13   17.10
  -4  -1   5  282.61   17.02
   4   1  -5  300.90   15.83
   4   1  -5  235.03   16.26
   4   1  -5  276.60   17.27
   4   1  -5  221.06   16.09
   4   1  -5  279.14   16.17
   4   1  -5  285.57   17.78
  -4  -1   4   23.79    6.52
  -4  -1   4   17.36    5.76
  -4  -1   4   14.14    6.10
  -4  -1   4   14.82    5.08
  -4  -1   4    8.55    5.59
  -4  -1   4    7.79    3.98
  -4  -1   4   17.36    6.27
  -4  -1   4   23.37    7.28
  -4  -1   4   17.61    6.94
   4   1  -4   22.18    6.10
   4   1  -4   15.32    6.52
   4   1  -4   16.93    5.76
   4   1  -4   18.03    6.52
   4   1  -4   12.70    6.35
  -4  -1   3 1365.30   32.34
  -4  -1   3 1256.93   34.46
  -4  -1   3    0.17    1.61
  -4  -1   3 1307.06   35.22
  -4  -1   3 1362.68   35.90
  -4  -1   3 1263.79   34.54
  -4  -1   3 1252.28   33.10
  -4  -1   3 1248.04   34.46
   4   1  -3 1411.02   31.33
   4   1  -3 1223.07   34.12
   4   1  -3 1336.18   27.52
   4   1  -3 1307.65   33.70
   4   1  -3 1288.01   35.05
  -4  -1   2  375.91   16.17
  -4  -1   2  345.01   18.12
  -4  -1   2  353.98   16.42
  -4  -1   2  393.18   19.81
  -4  -1   2  378.88   18.96
  -4  -1   2  313.09   17.78
  -4  -1   2  340.78   17.78
  -4  -1   2  353.98   10.50
  -4  -1   2  330.62   10.08
  -4  -1   2  433.40   20.57
   4   1  -2  363.47   16.68
   4   1  -2  308.26   17.27
   4   1  -2  419.85   12.95
   4   1  -2  360.93   18.54
   4   1  -2  334.09   18.12
   4   1  -2  423.49   20.66
  -4  -1   1 1991.06   34.20
  -4  -1   1 1748.41   39.54
  -4  -1   1 1894.46   37.93
  -4  -1   1 1887.69   41.15
  -4  -1   1 1944.84   41.74
  -4  -1   1 1753.32   39.54
  -4  -1   1 1996.90   30.23
  -4  -1   1 1788.38   28.53
  -4  -1   1 1845.95   40.64
   4   1  -1 1844.85   37.42
   4   1  -1 1972.10   42.16
   4   1  -1 1810.05   40.39
   4   1  -1 1871.69   41.06
  -4  -1   0   68.49    7.70
  -4  -1   0   66.97   10.41
  -4  -1   0   65.62   10.33
  -4  -1   0   73.32    9.06
  -4  -1   0   68.49   10.67
  -4  -1   0   72.98    8.47
  -4  -1   0   53.85    9.57
   4   1   0   58.00    9.91
   4   1   0   74.34   11.01
   4   1   0   56.56   10.24
   4   1   0   69.68   10.75
  -4  -1  -1  494.02   18.12
  -4  -1  -1  455.67   20.40
  -4  -1  -1  469.81   21.84
  -4  -1  -1  500.03   21.25
  -4  -1  -1  405.71   19.90
  -4  -1  -1  519.76   20.23
  -4  -1  -1  444.74   20.15
   4   1   1  412.99   20.57
   4   1   1  425.61   20.83
   4   1   1  447.88   21.50
   4   1   1  518.74   18.12
   4   1   1  457.19   20.49
  -4  -1  -2   92.54    9.99
  -4  -1  -2   70.19   10.24
  -4  -1  -2   94.74   13.80
  -4  -1  -2   82.97    9.74
  -4  -1  -2   87.20    5.50
  -4  -1  -2   85.85   12.36
  -4  -1  -2   86.70   10.50
  -4  -1  -2   82.04    9.65
   4   1   2   75.18   12.28
   4   1   2   59.10   10.41
   4   1   2   86.27   12.62
   4   1   2   82.38   10.24
   4   1   2   79.92   11.26
  -4  -1  -3   68.32   10.58
  -4  -1  -3   65.19    9.91
  -4  -1  -3   72.73   12.78
  -4  -1  -3   77.72   10.92
  -4  -1  -3   72.05    7.11
  -4  -1  -3   54.69   10.58
  -4  -1  -3   80.85   12.36
  -4  -1  -3   70.95   10.24
   4   1   3   60.79   12.19
   4   1   3   19.13    5.67
   4   1   3   49.70    6.86
   4   1   3   64.18   11.51
   4   1   3   59.27   11.26
   4   1   3   40.72    9.23
   4   1   3   59.18    9.82
  -4  -1  -4   88.56   13.12
  -4  -1  -4   80.01    9.48
  -4  -1  -4   87.80   15.49
  -4  -1  -4   90.34   11.68
  -4  -1  -4   79.25    8.89
  -4  -1  -4   69.51   12.19
  -4  -1  -4   91.86   14.05
  -4  -1  -4   86.27    9.82
   4   1   4   65.62   13.72
   4   1   4   65.87    9.99
   4   1   4   86.53    9.31
   4   1   4   74.67   12.95
   4   1   4   66.12   11.94
   4   1   4   90.51   14.48
   4   1   4   72.90   10.41
  -4  -1  -5   90.17   14.31
  -4  -1  -5  120.82   11.18
  -4  -1  -5  100.16   17.69
  -4  -1  -5  103.21   11.60
  -4  -1  -5  108.96   16.00
  -4  -1  -5  102.87   10.67
   4   1   5   69.85   14.14
   4   1   5   88.22   10.50
   4   1   5   85.68    9.82
   4   1   5   92.20   12.53
   4   1   5   97.79   15.07
   4   1   5   94.74   14.65
   4   1   5   93.55   15.75
   4   1   5   90.93   10.75
  -4  -1  -6   29.21   10.92
  -4  -1  -6   34.29   12.87
  -4  -1  -6   29.21    8.72
  -4  -1  -6   26.33    9.91
   4   1   6   15.75    9.91
   4   1   6   19.73    7.87
   4   1   6   22.94    9.57
   4   1   6   25.15    8.97
   4   1   6   21.84   10.67
  -4  -1  -7  129.20   19.64
  -4  -1  -7  133.35   22.35
  -4  -1  -7  151.47   16.34
  -4  -1  -7  139.53   20.07
   4   1   7  122.76   21.50
   4   1   7  129.88   15.58
   4   1   7  117.68   18.37
   4   1   7  116.75   19.13
  -4  -1  -8   46.90   14.99
  -4  -1  -8   37.17   14.99
  -4  -1  -8   40.39   13.29
   4   1   8   37.76   14.73
   4   1   8   35.81   12.78
  -4  -1  -9   68.49   18.80
  -4  -1  -9   55.54   17.95
   4   1   9   31.07   14.99
  -4  -1 -10   10.84   13.12
  -4  -1 -10   23.54   15.92
   4   1  10   14.99   13.21
  -4  -1 -11   87.20   23.37
  -4  -1 -11   71.20   20.15
   4   1  11   77.64   21.93
  -4  -2  13   62.23   22.27
  -4  -2  13   27.26   10.92
   4   2 -13   63.24   22.44
   4   2 -13   64.43   21.42
  -4  -2  12  103.21   23.79
  -4  -2  12  107.19   20.91
  -4  -2  12   80.94   14.05
   4   2 -12   86.87   22.61
   4   2 -12  112.18   24.72
   4   2 -12   96.01   21.17
  -4  -2  11  171.87   27.85
  -4  -2  11  186.52   22.35
  -4  -2  11  133.77   14.22
   4   2 -11  199.72   30.56
   4   2 -11  164.76   27.26
   4   2 -11  185.42   26.50
  -4  -2  10   82.21   19.22
  -4  -2  10  107.78   19.13
  -4  -2  10   67.99   10.41
   4   2 -10  101.85   21.25
   4   2 -10   73.83   17.95
   4   2 -10   83.48   18.37
  -4  -2   9   69.93   16.85
  -4  -2   9   75.44   13.38
  -4  -2   9   78.15   16.34
  -4  -2   9   66.63    9.06
   4   2  -9   69.43   12.78
   4   2  -9   87.71   18.37
   4   2  -9   69.93   15.32
   4   2  -9   89.58   19.22
  -4  -2   8    3.39    6.43
  -4  -2   8    0.00    3.47
  -4  -2   8    6.86    7.70
  -4  -2   8    3.81    3.73
   4   2  -8    7.03    6.77
   4   2  -8    0.93    7.28
   4   2  -8    7.70    6.94
   4   2  -8    9.91    7.37
  -4  -2   7   81.02   15.58
  -4  -2   7   95.93   10.41
  -4  -2   7   98.04   14.31
  -4  -2   7   93.98   15.32
  -4  -2   7   95.67   15.83
  -4  -2   7   86.53    6.43
  -4  -2   7   99.31    6.69
   4   2  -7   94.74   14.39
   4   2  -7   76.88    9.48
   4   2  -7  111.93   17.19
   4   2  -7   90.08   15.41
   4   2  -7   96.43   11.01
   4   2  -7  112.94   15.58
  -4  -2   6  451.35   25.48
  -4  -2   6  390.73   16.93
  -4  -2   6  453.38   18.03
  -4  -2   6  446.35   23.37
  -4  -2   6  440.09   24.89
  -4  -2   6  446.18   25.06
  -4  -2   6  397.76    9.65
  -4  -2   6  461.85   10.33
   4   2  -6  530.59   19.39
   4   2  -6  398.52   22.27
   4   2  -6  370.58   16.26
   4   2  -6  541.43   25.99
   4   2  -6  444.49   25.23
   4   2  -6  418.50   19.47
   4   2  -6  394.37   22.18
  -4  -2   5  142.91   14.39
  -4  -2   5  113.96    9.48
  -4  -2   5  144.69   10.33
  -4  -2   5  131.82   13.46
  -4  -2   5  110.74   12.45
  -4  -2   5  132.16   13.38
  -4  -2   5  115.99    5.16
  -4  -2   5  130.30    5.42
   4   2  -5  145.20   10.41
   4   2  -5  130.98   13.55
   4   2  -5  161.03   14.14
   4   2  -5  133.69   13.63
   4   2  -5  162.73   13.04
   4   2  -5  125.05   13.46
  -4  -2   4  457.78   22.10
  -4  -2   4  457.36   22.69
  -4  -2   4  519.93   18.03
  -4  -2   4  478.44   23.28
  -4  -2   4  507.82   24.55
  -4  -2   4  499.78   23.79
  -4  -2   4  435.52   10.92
  -4  -2   4  479.80   11.43
   4   2  -4  520.52   18.12
   4   2  -4  422.31   22.01
   4   2  -4  591.47   21.84
   4   2  -4  483.10   21.42
   4   2  -4  470.40   23.28
  -4  -2   3  210.05   14.73
  -4  -2   3  222.33   16.17
  -4  -2   3  220.04   12.45
  -4  -2   3  193.21   15.32
  -4  -2   3  218.52   16.42
  -4  -2   3  195.83   14.82
  -4  -2   3  198.37    9.23
  -4  -2   3  188.72    8.89
   4   2  -3  213.61   12.45
   4   2  -3  209.46   16.09
   4   2  -3  248.75   12.87
   4   2  -3  214.96   15.41
   4   2  -3  224.79   16.51
  -4  -2   2  130.38   11.60
  -4  -2   2  125.73   12.62
  -4  -2   2  130.64   13.04
  -4  -2   2  142.58   12.78
  -4  -2   2  121.07   11.77
  -4  -2   2  138.34    9.23
  -4  -2   2  142.83    9.14
   4   2  -2  124.88   10.24
   4   2  -2  112.35   12.36
   4   2  -2  152.74    8.81
   4   2  -2  135.72   12.45
   4   2  -2  106.34   11.09
   4   2  -2  111.50   12.62
  -4  -2   1    4.32    4.40
  -4  -2   1    3.47    4.91
  -4  -2   1    3.30    4.23
  -4  -2   1    1.19    4.91
  -4  -2   1    8.30    5.16
  -4  -2   1    8.21    5.67
  -4  -2   1    3.64    3.98
   4   2  -1    7.37    4.74
   4   2  -1    6.35    5.59
   4   2  -1    6.69    2.71
   4   2  -1    3.89    4.15
   4   2  -1    3.89    5.76
   4   2  -1    6.27    5.67
  -4  -2   0   18.88    6.52
  -4  -2   0   16.68    6.43
  -4  -2   0   22.61    7.20
  -4  -2   0   13.29    5.42
  -4  -2   0   11.94    6.52
  -4  -2   0   14.22    6.43
  -4  -2   0   18.88    6.10
   4   2   0   18.80    6.10
   4   2   0   16.00    6.60
   4   2   0   21.59    2.88
   4   2   0   12.95    6.27
   4   2   0   14.65    7.11
   4   2   0    7.96    5.93
  -4  -2  -1  138.26   12.11
  -4  -2  -1  119.04   11.68
  -4  -2  -1  133.77   12.45
  -4  -2  -1  132.59   12.28
  -4  -2  -1  107.69   11.01
  -4  -2  -1  146.47   12.53
   4   2   1  112.01   12.28
   4   2   1  118.87   11.85
   4   2   1  148.84    6.52
   4   2   1  122.26   12.36
   4   2   1  115.65   12.19
   4   2   1  127.08   11.18
   4   2   1  104.31   11.43
  -4  -2  -2  253.91   16.51
  -4  -2  -2  230.03   15.07
  -4  -2  -2  220.89   17.44
  -4  -2  -2  296.67   17.27
  -4  -2  -2  230.88   16.42
  -4  -2  -2  279.56   17.53
   4   2   2  238.92   17.27
   4   2   2  230.12   15.24
   4   2   2  274.31   10.92
   4   2   2  251.79   17.10
   4   2   2  227.07   17.44
   4   2   2  216.74   14.82
   4   2   2  235.20   15.58
  -4  -2  -3  202.01   16.17
  -4  -2  -3  194.14   13.80
  -4  -2  -3  186.26   17.69
  -4  -2  -3  214.63   14.90
  -4  -2  -3  198.88   16.00
  -4  -2  -3  243.92   17.78
   4   2   3  154.43   16.17
   4   2   3  179.91   13.80
   4   2   3  190.16   11.43
   4   2   3  199.64   16.09
   4   2   3  159.76   15.75
   4   2   3  189.56   15.66
   4   2   3  172.63   13.80
  -4  -2  -4   73.66   13.38
  -4  -2  -4   95.59   10.50
  -4  -2  -4   70.95   14.73
  -4  -2  -4   86.95   10.58
  -4  -2  -4   83.14    9.91
  -4  -2  -4   77.38   12.87
  -4  -2  -4  111.08   16.09
   4   2   4   73.57   14.31
   4   2   4   73.66   10.84
   4   2   4   89.83   10.08
   4   2   4   67.31   12.62
   4   2   4   83.23   14.48
   4   2   4   84.41   14.48
   4   2   4   71.54   10.75
  -4  -2  -5  123.95   18.20
  -4  -2  -5   90.00   16.59
  -4  -2  -5  109.47   12.53
  -4  -2  -5   88.22   14.65
   4   2   5   97.03   17.27
   4   2   5  114.64   12.70
   4   2   5  119.80   16.85
   4   2   5  104.39   16.93
  -4  -2  -6  176.19   20.32
  -4  -2  -6  152.74   23.20
  -4  -2  -6  182.79   17.27
  -4  -2  -6  178.30   17.78
   4   2   6  141.73   21.84
   4   2   6  167.47   15.75
   4   2   6  153.50   16.51
   4   2   6  214.37   21.84
  -4  -2  -7   91.18   18.37
  -4  -2  -7  112.52   21.84
  -4  -2  -7  104.48   17.44
   4   2   7   94.40   19.47
   4   2   7   -0.85    3.81
   4   2   7  111.42   24.55
  -4  -2  -8   59.01   17.10
  -4  -2  -8   53.42   16.09
   4   2   8   40.72   15.32
  -4  -2  -9   22.77   15.92
  -4  -2  -9   20.91   14.65
   4   2   9    8.13   12.78
  -4  -2 -10   35.14   17.36
  -4  -2 -10   42.25   18.37
   4   2  10   31.83   17.02
  -4  -3  13  125.90   26.67
  -4  -3  13   94.99   21.67
  -4  -3  13   77.55   15.83
   4   3 -13  165.18   31.24
   4   3 -13  148.33   28.70
   4   3 -13  139.53   27.01
  -4  -3  12   21.76   13.55
  -4  -3  12   24.47   13.04
  -4  -3  12   14.56    8.47
   4   3 -12   28.62   14.14
   4   3 -12    3.13   12.70
   4   3 -12   13.12   12.78
  -4  -3  11    9.40   10.50
  -4  -3  11   14.56   10.50
  -4  -3  11   18.80    8.13
   4   3 -11   23.96   13.04
   4   3 -11   23.28   13.72
   4   3 -11    7.03   11.51
  -4  -3  10   48.77   15.66
  -4  -3  10   59.86   15.66
  -4  -3  10   30.39    8.04
   4   3 -10   62.31   15.92
   4   3 -10   50.04   15.41
  -4  -3   9   25.06   12.53
  -4  -3   9    2.71    3.89
  -4  -3   9   13.97    9.57
  -4  -3   9   16.85    6.35
   4   3  -9   15.24    8.97
   4   3  -9   11.77   10.16
   4   3  -9   11.85   10.41
   4   3  -9   13.72    8.72
  -4  -3   8   79.50   17.10
  -4  -3   8   65.70   13.38
  -4  -3   8   40.64   12.45
  -4  -3   8   63.67    8.81
   4   3  -8   74.67   13.80
   4   3  -8   69.43   15.41
   4   3  -8   82.38   16.17
   4   3  -8   78.99   15.16
  -4  -3   7  346.79   25.31
  -4  -3   7  346.96   22.86
  -4  -3   7  349.33   24.98
  -4  -3   7  357.03   24.30
  -4  -3   7  309.62   14.22
   4   3  -7  340.01   22.94
   4   3  -7  396.40   25.15
   4   3  -7  364.14   24.72
   4   3  -7  329.35   18.12
   4   3  -7  327.74   22.52
  -4  -3   6   19.13    9.06
  -4  -3   6   13.63    7.54
  -4  -3   6   14.90    8.38
  -4  -3   6   15.66    7.28
  -4  -3   6   20.23    5.33
   4   3  -6   19.13    7.70
   4   3  -6   20.49    8.97
   4   3  -6   13.89    5.33
   4   3  -6   19.47    8.30
   4   3  -6   14.65    7.28
   4   3  -6   10.58    5.84
   4   3  -6   20.32    8.64
  -4  -3   5  546.34   27.18
  -4  -3   5  580.29   17.10
  -4  -3   5  548.37   27.01
  -4  -3   5  532.20   27.52
  -4  -3   5  528.05   26.75
  -4  -3   5  484.03   16.42
   4   3  -5  555.91   16.85
   4   3  -5  553.96   27.35
   4   3  -5  650.48   26.16
   4   3  -5  507.57   26.42
   4   3  -5  494.36   22.27
   4   3  -5  581.90   27.94
  -4  -3   4   79.75   13.29
  -4  -3   4   73.83    7.11
  -4  -3   4   72.73   12.19
  -4  -3   4   69.26   12.62
  -4  -3   4   64.26   11.77
  -4  -3   4   69.93    7.45
  -4  -3   4   62.82    7.11
   4   3  -4   66.80    7.20
   4   3  -4   73.91   12.87
   4   3  -4   89.91   10.84
   4   3  -4   67.82   12.02
   4   3  -4   74.76   11.94
   4   3  -4   84.83   13.89
  -4  -3   3   32.77    8.72
  -4  -3   3   29.29    6.10
  -4  -3   3   37.00    9.57
  -4  -3   3   32.43    9.06
  -4  -3   3   35.98    9.14
  -4  -3   3   30.14    6.27
  -4  -3   3   36.07    6.52
   4   3  -3   33.44    6.35
   4   3  -3   23.28    8.13
   4   3  -3   44.70    7.62
   4   3  -3   28.53    8.21
   4   3  -3   33.61    9.14
  -4  -3   2  381.75   20.40
  -4  -3   2  368.97   16.76
  -4  -3   2  355.34   20.40
  -4  -3   2  382.01   20.91
  -4  -3   2  362.45   20.23
  -4  -3   2  384.80   17.10
   4   3  -2  346.45   16.00
   4   3  -2  329.52   20.40
   4   3  -2  420.28   15.58
   4   3  -2  343.15   19.73
   4   3  -2  340.35   20.74
  -4  -3   1  103.88   11.85
  -4  -3   1   94.06   11.09
  -4  -3   1   86.27    9.57
  -4  -3   1  103.46   11.51
  -4  -3   1   97.62   12.02
  -4  -3   1   97.87   11.77
  -4  -3   1  114.47   10.84
   4   3  -1  102.11   10.33
   4   3  -1   89.58   13.04
   4   3  -1  126.74    8.55
   4   3  -1   99.90   11.85
   4   3  -1  103.55   12.95
   4   3  -1   97.53   11.43
  -4  -3   0  339.17   19.39
  -4  -3   0  370.24   20.57
  -4  -3   0  328.41   18.63
  -4  -3   0  314.61   19.22
  -4  -3   0  366.34   20.49
  -4  -3   0  319.27   19.05
  -4  -3   0  334.09   18.29
   4   3   0  285.32   16.93
   4   3   0  282.61   17.86
   4   3   0  375.07   12.78
   4   3   0  306.57   18.80
   4   3   0  310.64   19.81
   4   3   0  263.56   14.39
   4   3   0  326.38   19.73
  -4  -3  -1   24.38    8.21
  -4  -3  -1   27.77    8.47
  -4  -3  -1   43.26    9.31
  -4  -3  -1   27.43    8.13
  -4  -3  -1   44.20    9.74
   4   3   1   30.48    8.97
   4   3   1   40.55    9.14
   4   3   1   51.31    6.69
   4   3   1   35.56    8.97
   4   3   1   28.02    9.40
   4   3   1   28.19    7.54
   4   3   1   25.48    7.87
  -4  -3  -2  563.02   26.67
  -4  -3  -2  540.84   27.35
  -4  -3  -2  610.26   25.40
  -4  -3  -2  543.72   24.81
  -4  -3  -2  622.54   27.18
   4   3   2  462.19   25.31
   4   3   2  561.92   24.55
   4   3   2  602.22   18.96
   4   3   2  562.26   25.23
   4   3   2  542.70   27.85
   4   3   2  600.36   25.57
   4   3   2  566.49   24.81
  -4  -3  -3    9.40    7.54
  -4  -3  -3    2.46    7.28
  -4  -3  -3    7.87    6.01
  -4  -3  -3    9.74    6.35
  -4  -3  -3    4.49    6.52
   4   3   3    9.99    7.70
   4   3   3    9.82    6.10
   4   3   3   11.60    5.33
   4   3   3    6.01    6.18
   4   3   3    8.97    6.52
   4   3   3   10.67    7.62
   4   3   3   12.87    6.94
  -4  -3  -4  274.23   22.10
  -4  -3  -4  255.01   22.61
  -4  -3  -4  289.81   17.44
  -4  -3  -4  209.04   17.27
  -4  -3  -4  322.57   22.35
   4   3   4  229.19   20.57
   4   3   4  249.34   16.34
   4   3   4  257.64   16.51
   4   3   4  247.98   21.34
   4   3   4  274.57   21.34
   4   3   4  261.19   17.27
  -4  -3  -5  177.03   20.07
  -4  -3  -5  169.92   20.83
  -4  -3  -5  161.63   16.26
   4   3   5  176.61   19.64
   4   3   5  282.78   27.60
   4   3   5  167.72   16.09
  -4  -3  -6   -0.17    8.64
  -4  -3  -6   -4.66    8.38
   4   3   6    3.81    8.97
   4   3   6   -0.68    7.79
  -4  -3  -7  169.58   25.40
  -4  -3  -7  134.28   24.13
   4   3   7  129.03   23.96
  -4  -3  -8   70.78   19.39
  -4  -3  -8   39.03   17.02
   4   3   8   60.20   18.03
  -4  -3  -9   36.66   16.85
  -4  -3  -9   35.31   17.61
   4   3   9   52.41   19.47
  -4  -4  13   14.31   16.51
  -4  -4  13   14.65   12.95
  -4  -4  13   12.95   10.16
   4   4 -13   19.90   16.51
   4   4 -13   26.42   17.02
   4   4 -13   13.12   14.48
  -4  -4  12   63.33   20.49
  -4  -4  12   51.14   16.85
  -4  -4  12   47.41   12.45
   4   4 -12   50.80   18.03
   4   4 -12   59.94   19.73
  -4  -4  11   26.67   15.49
  -4  -4  11   39.45   15.07
  -4  -4  11   29.46    9.74
   4   4 -11   39.03   16.09
   4   4 -11   53.42   17.78
  -4  -4  10    4.40    8.64
  -4  -4  10    4.83    6.60
  -4  -4  10    5.76    9.14
  -4  -4  10    4.23    6.10
   4   4 -10    6.18    8.30
   4   4 -10   -1.44    8.81
   4   4 -10    5.50    8.30
  -4  -4   9   19.47   12.11
  -4  -4   9   27.69   11.01
  -4  -4   9   30.31   11.43
  -4  -4   9   23.45    7.79
   4   4  -9   25.15   11.43
   4   4  -9   38.18   12.53
   4   4  -9   20.40   12.19
   4   4  -9   22.18   10.84
  -4  -4   8  128.86   21.17
  -4  -4   8  124.03   18.46
  -4  -4   8  113.79   19.56
  -4  -4   8  114.04   12.19
   4   4  -8  125.05   19.05
   4   4  -8  163.74   22.52
   4   4  -8  133.69   21.93
   4   4  -8  123.27   18.71
  -4  -4   7  145.54   21.08
  -4  -4   7  139.95   19.47
  -4  -4   7  120.90   19.05
  -4  -4   7  138.34   12.36
   4   4  -7  117.60   18.29
   4   4  -7  161.63   18.20
   4   4  -7  135.89   20.23
   4   4  -7  112.18   12.78
   4   4  -7   98.89   16.93
  -4  -4   6   16.76    8.55
  -4  -4   6   16.09    8.13
  -4  -4   6   10.16    8.38
  -4  -4   6   19.22    8.21
  -4  -4   6   12.45    5.76
   4   4  -6   21.25    9.74
   4   4  -6   21.84    9.74
   4   4  -6   18.80    8.72
   4   4  -6   22.61    7.62
   4   4  -6   22.52    9.23
  -4  -4   5  520.01   28.36
  -4  -4   5  481.07   27.18
  -4  -4   5  565.14   29.72
  -4  -4   5  532.88   28.87
  -4  -4   5  506.55   20.57
   4   4  -5  438.14   26.33
   4   4  -5  599.77   26.42
   4   4  -5  483.86   27.85
   4   4  -5  471.08   23.37
   4   4  -5  465.23   26.92
  -4  -4   4   37.17   10.41
  -4  -4   4   36.58    5.93
  -4  -4   4   28.53    9.31
  -4  -4   4   35.39   10.33
  -4  -4   4   32.93    9.91
  -4  -4   4   27.35    7.62
   4   4  -4   26.67    5.33
   4   4  -4   17.44    8.97
   4   4  -4   39.79    8.97
   4   4  -4   24.55    9.57
   4   4  -4   21.42    8.04
   4   4  -4   29.80    9.74
  -4  -4   3  748.44   31.24
  -4  -4   3  764.44   22.01
  -4  -4   3  681.81   30.73
  -4  -4   3  740.06   30.99
  -4  -4   3  738.95   31.24
  -4  -4   3  748.78   25.74
   4   4  -3  674.10   20.66
   4   4  -3  633.04   29.80
   4   4  -3  845.38   26.58
   4   4  -3  659.20   28.28
   4   4  -3  671.98   30.56
  -4  -4   2    3.81    5.84
  -4  -4   2   -2.20    3.47
  -4  -4   2   -1.10    4.66
  -4  -4   2    3.22    5.93
  -4  -4   2    3.73    4.66
  -4  -4   2    2.96    4.74
   4   4  -2    3.05    4.40
   4   4  -2    1.86    4.74
   4   4  -2   -0.17    3.64
   4   4  -2    0.59    5.42
   4   4  -2    4.91    5.25
  -4  -4   1  390.73   22.35
  -4  -4   1    1.52    2.46
  -4  -4   1  320.96   21.17
  -4  -4   1  405.29   22.77
  -4  -4   1  328.41   19.98
  -4  -4   1  393.01   21.00
   4   4  -1  325.37   17.78
   4   4  -1  331.80   21.59
   4   4  -1  408.76   16.85
   4   4  -1  344.50   21.00
   4   4  -1  309.11   20.83
   4   4  -1  331.38   21.59
  -4  -4   0   15.24    6.77
  -4  -4   0   11.77    6.35
  -4  -4   0   12.11    6.69
  -4  -4   0    9.57    6.77
  -4  -4   0   12.53    7.03
  -4  -4   0   13.80    7.28
   4   4   0   11.51    6.35
   4   4   0   12.53    7.03
   4   4   0   11.09    4.57
   4   4   0   14.48    7.03
   4   4   0    9.06    7.54
   4   4   0   12.70    7.20
  -4  -4  -1   37.34   10.75
  -4  -4  -1   36.91   10.16
  -4  -4  -1   38.18    9.65
  -4  -4  -1   46.31   10.24
  -4  -4  -1   40.05   10.24
   4   4   1   45.30   11.01
   4   4   1   48.77   10.92
   4   4   1   47.75    7.79
   4   4   1   40.39    9.74
   4   4   1   42.67   12.02
   4   4   1   40.47   10.33
  -4  -4  -2   18.71    9.57
  -4  -4  -2   19.39    9.23
  -4  -4  -2   21.84    8.47
  -4  -4  -2   23.28    8.13
  -4  -4  -2   26.33    9.40
   4   4   2   11.68    7.87
   4   4   2   11.01    6.86
   4   4   2   21.50    6.35
   4   4   2   26.08    7.96
   4   4   2   18.12    9.48
   4   4   2   18.46    7.79
  -4  -4  -3   77.98   15.58
  -4  -4  -3   66.97   14.22
  -4  -4  -3   67.05   12.11
  -4  -4  -3   77.30   12.87
  -4  -4  -3  104.65   16.93
   4   4   3   64.09   14.56
   4   4   3   73.15   12.53
   4   4   3   78.31   11.35
   4   4   3   48.60   10.41
   4   4   3   68.92   15.16
   4   4   3   64.85   12.02
  -4  -4  -4  413.16   28.70
  -4  -4  -4  344.42   27.01
  -4  -4  -4  390.90   22.52
   4   4   4  322.15   25.99
  -4  -4  -5   13.04   10.58
  -4  -4  -5    4.57    9.48
   4   4   5   10.84   10.24
   4   4   5   15.24   10.24
  -4  -4  -6  319.78   29.12
  -4  -4  -6  228.00   25.65
   4   4   6  227.41   24.13
  -4  -4  -7   34.80   15.75
  -4  -4  -7   27.77   12.87
   4   4   7   36.41   15.24
   4   4   7   22.94   13.21
  -4  -4  -8  105.75   24.21
  -4  -4  -8   55.54   19.98
   4   4   8   80.69   20.91
  -4  -4  -9   31.41   17.36
  -4  -4  -9   36.41   18.03
   4   4   9   43.77   18.37
  -4  -5  13  134.11   29.38
  -4  -5  13  134.19   26.33
  -4  -5  13   94.15   17.69
   4   5 -13  132.59   28.62
   4   5 -13  164.33   30.48
  -4  -5  12   -0.76   12.36
  -4  -5  12    3.56    8.55
  -4  -5  12   -4.32    7.20
   4   5 -12   -1.35   11.77
   4   5 -12   -9.82   10.84
  -4  -5  11   84.07   20.23
  -4  -5  11   59.77   17.95
  -4  -5  11   56.22   13.29
   4   5 -11   58.84   19.30
   4   5 -11   59.52   18.88
  -4  -5  10   25.57   13.97
  -4  -5  10   13.80    9.48
  -4  -5  10   23.20   12.62
  -4  -5  10   20.40    8.97
   4   5 -10   22.52   11.51
   4   5 -10   38.44   15.24
   4   5 -10   26.25   12.87
   4   5 -10   38.78   14.31
  -4  -5   9  213.44   25.06
  -4  -5   9  168.57   19.98
  -4  -5   9  189.40   22.94
  -4  -5   9  153.58   15.92
   4   5  -9  175.51   20.91
   4   5  -9  218.10   24.21
   4   5  -9  180.25   25.99
   4   5  -9  165.60   20.57
  -4  -5   8    6.77    8.04
  -4  -5   8    8.89    8.47
  -4  -5   8   13.63   10.16
  -4  -5   8    9.06    7.03
   4   5  -8   16.85   10.41
   4   5  -8    8.55    9.14
   4   5  -8    3.64    9.48
   4   5  -8   15.07   10.16
  -4  -5   7   26.92   12.02
  -4  -5   7   26.08   11.01
  -4  -5   7   26.75   11.51
  -4  -5   7   22.10    7.87
   4   5  -7   26.50   11.18
   4   5  -7   31.33   11.35
   4   5  -7   25.74   11.77
   4   5  -7   27.69    8.81
   4   5  -7   16.93   10.16
  -4  -5   6  162.56   19.81
  -4  -5   6  146.05   17.95
  -4  -5   6  152.74   18.71
  -4  -5   6  149.77   18.20
  -4  -5   6  141.81   14.05
   4   5  -6  122.68   19.13
   4   5  -6  163.40   18.63
   4   5  -6  119.55   19.22
   4   5  -6  130.05   14.39
   4   5  -6  128.61   19.56
  -4  -5   5  382.77   25.57
  -4  -5   5  347.80   24.38
  -4  -5   5  342.89   25.15
  -4  -5   5  343.74   24.13
  -4  -5   5  376.59   20.91
   4   5  -5  295.06   23.79
   4   5  -5  430.35   24.81
   4   5  -5  344.76   24.38
   4   5  -5  358.81   23.20
   4   5  -5  285.24   23.54
  -4  -5   4  800.17   35.39
  -4  -5   4  723.97   34.46
  -4  -5   4  756.31   34.46
  -4  -5   4  802.03   35.39
  -4  -5   4  769.52   29.12
   4   5  -4  621.61   32.34
   4   5  -4  826.84   30.99
   4   5  -4  690.53   33.19
   4   5  -4  713.64   31.41
   4   5  -4  686.97   33.70
  -4  -5   3  153.92   17.53
  -4  -5   3  152.14   11.09
  -4  -5   3  146.55   16.00
  -4  -5   3  159.93   17.19
  -4  -5   3  160.19   16.85
  -4  -5   3  178.47   16.00
   4   5  -3  117.51   10.08
   4   5  -3  120.48   17.78
   4   5  -3  154.85   14.31
   4   5  -3  109.47   16.68
   4   5  -3  114.47   16.68
   4   5  -3  134.45   15.58
  -4  -5   2 1523.88   47.67
  -4  -5   2 1440.57   35.14
  -4  -5   2 1278.52   43.77
  -4  -5   2 1508.90   45.30
  -4  -5   2 1446.33   44.11
  -4  -5   2 1518.63   42.16
   4   5  -2 1198.77   32.09
   4   5  -2 1330.42   44.87
   4   5  -2 1517.11   37.17
   4   5  -2 1196.74   41.74
   4   5  -2 1388.50   45.63
  -4  -5   1   48.43   12.45
  -4  -5   1   72.81   11.94
  -4  -5   1   63.33   13.38
  -4  -5   1   94.23   14.99
  -4  -5   1   65.11   12.62
  -4  -5   1   81.79   13.97
   4   5  -1   61.89   10.92
   4   5  -1   69.76   14.22
   4   5  -1   88.31   12.02
   4   5  -1   68.92   12.78
   4   5  -1   67.56   13.80
   4   5  -1   55.88   12.87
  -4  -5   0  200.74   19.81
  -4  -5   0  187.02   16.42
  -4  -5   0  162.30   16.85
  -4  -5   0  179.74   16.76
  -4  -5   0  175.68   16.34
  -4  -5   0  183.72   17.53
   4   5   0  145.79   14.82
   4   5   0  131.57   15.75
   4   5   0  218.77   14.99
   4   5   0  148.76   15.32
   4   5   0  158.83   17.36
   4   5   0  149.43   16.76
  -4  -5  -1   55.37   13.72
  -4  -5  -1   41.49   11.35
  -4  -5  -1   35.39   10.16
  -4  -5  -1   41.82   10.67
  -4  -5  -1   57.49   12.78
   4   5   1   38.95   10.84
   4   5   1   38.86   11.26
   4   5   1   43.86    9.23
   4   5   1   34.20    9.40
   4   5   1   35.14   12.36
   4   5   1   33.02   10.67
  -4  -5  -2   54.44   14.22
  -4  -5  -2   44.87   12.62
  -4  -5  -2   60.79   12.62
  -4  -5  -2   51.05   11.43
  -4  -5  -2   62.99   13.72
   4   5   2   38.78   10.84
   4   5   2   49.11   11.85
   4   5   2   50.97   10.24
   4   5   2   56.47   11.68
   4   5   2   44.45   13.46
   4   5   2   58.25   12.70
  -4  -5  -3  178.47   21.59
  -4  -5  -3  179.07   20.32
  -4  -5  -3  160.02   16.17
  -4  -5  -3  159.59   15.41
   4   5   3  153.58   17.69
   4   5   3  171.87   17.19
   4   5   3  140.20   15.75
   4   5   3  147.91   22.35
   4   5   3  167.38   20.07
  -4  -5  -4  130.47   22.18
  -4  -5  -4   96.26   18.63
   4   5   4   90.42   18.88
   4   5   4   96.86   18.63
  -4  -5  -5   82.29   19.30
  -4  -5  -5   61.30   15.75
   4   5   5   66.72   17.95
   4   5   5   53.51   15.58
  -4  -5  -6   55.46   17.95
  -4  -5  -6   52.83   16.93
   4   5   6   53.93   17.44
  -4  -5  -7    6.27   13.89
  -4  -5  -7    5.16   11.51
   4   5   7    3.56   10.92
   4   5   7    3.73   12.62
  -4  -5  -8   67.48   21.76
  -4  -5  -8   77.13   22.35
   4   5   8   51.65   17.61
  -4  -6  12   98.89   23.54
  -4  -6  12   96.35   23.28
  -4  -6  12   97.70   18.37
   4   6 -12  107.19   25.06
   4   6 -12   90.42   24.38
  -4  -6  11   29.12   13.55
  -4  -6  11   23.62   12.36
  -4  -6  11   50.21   16.51
  -4  -6  11   16.00   10.16
   4   6 -11   34.46   15.07
   4   6 -11   42.84   15.83
   4   6 -11   41.82   17.53
  -4  -6  10   73.57   19.90
  -4  -6  10   75.10   17.69
  -4  -6  10   86.27   20.49
  -4  -6  10   83.23   15.41
   4   6 -10   96.01   20.15
   4   6 -10  126.66   23.71
   4   6 -10   78.82   21.00
   4   6 -10   72.22   17.61
  -4  -6   9    8.04   11.60
  -4  -6   9   11.01    9.06
  -4  -6   9    7.20    9.99
  -4  -6   9    6.94    8.30
   4   6  -9    6.60   10.16
   4   6  -9   -0.51    9.65
   4   6  -9   19.47   13.12
   4   6  -9    0.17    9.31
  -4  -6   8   47.84   15.92
  -4  -6   8   45.30   14.14
  -4  -6   8   52.15   15.66
  -4  -6   8   28.87    9.57
   4   6  -8   36.07   14.14
   4   6  -8   67.65   16.76
   4   6  -8   39.20   15.16
   4   6  -8   28.96   12.95
  -4  -6   7  140.37   22.27
  -4  -6   7  164.33   23.79
  -4  -6   7  156.71   19.30
  -4  -6   7  151.80   16.51
   4   6  -7  168.99   24.13
   4   6  -7  201.59   21.17
   4   6  -7  141.22   21.93
   4   6  -7  156.63   22.86
  -4  -6   6  123.44   20.66
  -4  -6   6  136.90   21.17
  -4  -6   6  113.45   20.07
  -4  -6   6  120.05   16.59
   4   6  -6   99.23   18.80
   4   6  -6  146.22   17.86
   4   6  -6  102.02   18.88
   4   6  -6   96.52   15.49
   4   6  -6  122.68   20.32
  -4  -6   5   13.97   10.24
  -4  -6   5    8.97    8.64
  -4  -6   5    8.38    7.03
  -4  -6   5   24.64   11.01
  -4  -6   5   14.90    8.13
   4   6  -5   17.19    9.31
   4   6  -5   16.93    8.64
   4   6  -5   24.64   10.92
   4   6  -5   12.87    9.14
   4   6  -5   16.17    8.89
  -4  -6   4   54.95   14.22
  -4  -6   4   59.10   14.82
  -4  -6   4   75.86   15.58
  -4  -6   4   78.82   15.66
  -4  -6   4   56.22   12.36
   4   6  -4   49.61   14.22
   4   6  -4   90.00   14.22
   4   6  -4   68.58   14.90
   4   6  -4   71.20   14.56
   4   6  -4   60.70   14.99
  -4  -6   3   -2.20    7.70
  -4  -6   3   -3.30    4.49
  -4  -6   3   -1.44    6.69
  -4  -6   3   -1.27    6.43
  -4  -6   3   -3.05    6.10
   4   6  -3   -3.30    7.20
   4   6  -3    1.95    6.27
   4   6  -3   -5.84    5.76
   4   6  -3    2.46    7.54
   4   6  -3   -0.34    7.96
  -4  -6   2   69.51   14.90
  -4  -6   2   81.36   12.11
  -4  -6   2   58.33   14.31
  -4  -6   2   83.73   15.07
  -4  -6   2   71.12   14.22
  -4  -6   2   71.63   14.39
   4   6  -2   63.24   10.67
   4   6  -2   49.36   13.46
   4   6  -2   79.50   12.62
   4   6  -2   67.31   13.72
   4   6  -2   54.35   14.05
   4   6  -2   54.69   14.05
  -4  -6   1  110.06   19.05
  -4  -6   1  116.84   13.29
  -4  -6   1  102.70   17.36
  -4  -6   1  115.74   17.19
  -4  -6   1  122.85   15.07
  -4  -6   1  136.73   16.59
   4   6  -1  113.70   13.04
   4   6  -1   81.53   16.17
   4   6  -1  131.82   14.31
   4   6  -1  123.53   17.53
   4   6  -1  110.23   16.34
   4   6  -1   92.03   17.53
   4   6  -1   98.04   17.44
  -4  -6   0  153.50   22.35
  -4  -6   0  140.97   15.75
  -4  -6   0  143.25   17.27
  -4  -6   0  152.65   16.42
  -4  -6   0  146.13   16.42
  -4  -6   0  177.37   18.88
   4   6   0  129.96   14.90
   4   6   0  126.40   18.96
   4   6   0  151.55   14.31
   4   6   0  138.00   15.24
   4   6   0  112.86   19.98
   4   6   0  159.85   19.73
  -4  -6  -1   17.53   11.18
  -4  -6  -1   20.15    9.82
  -4  -6  -1   10.75    8.13
  -4  -6  -1   14.31    7.79
  -4  -6  -1   17.02    9.48
   4   6   1   23.28    9.40
   4   6   1   23.45   10.33
   4   6   1   18.46    7.96
   4   6   1   17.53   11.26
   4   6   1   19.64    9.91
  -4  -6  -2  154.01   22.86
  -4  -6  -2  175.43   20.07
  -4  -6  -2  179.57   18.20
   4   6   2  149.01   21.42
   4   6   2  162.81   18.63
   4   6   2  120.31   21.25
   4   6   2  135.29   19.30
  -4  -6  -3   19.39   10.67
  -4  -6  -3   16.51   10.84
   4   6   3    8.21    9.23
   4   6   3   10.08   10.33
  -4  -6  -4   22.18   14.22
  -4  -6  -4    4.74    9.74
   4   6   4   22.10   10.84
   4   6   4    5.16   10.67
  -4  -6  -5   50.97   18.54
  -4  -6  -5   60.28   16.85
   4   6   5   61.04   16.51
   4   6   5   40.13   15.07
  -4  -6  -6   27.26   16.76
  -4  -6  -6   52.83   18.71
   4   6   6   43.52   15.58
   4   6   6   40.39   15.32
  -4  -6  -7   64.01   22.27
  -4  -6  -7   51.14   19.05
   4   6   7   46.57   16.68
   4   6   7   31.33   16.09
  -4  -7  12   36.49   18.37
  -4  -7  12   25.40   15.83
  -4  -7  12   27.94   13.12
   4   7 -12   38.35   18.80
   4   7 -12   17.95   15.83
  -4  -7  11   49.19   18.63
  -4  -7  11   27.35   13.46
  -4  -7  11   44.03   18.20
  -4  -7  11   45.97   13.89
   4   7 -11   35.98   16.17
   4   7 -11   60.37   19.90
   4   7 -11   54.95   18.29
  -4  -7  10   17.36   13.89
  -4  -7  10   10.08    9.65
  -4  -7  10   12.11   12.36
  -4  -7  10   10.92    9.57
   4   7 -10    4.66   11.18
   4   7 -10   29.04   15.07
   4   7 -10   15.32   11.77
  -4  -7   9   18.29   11.43
  -4  -7   9   15.16   11.26
  -4  -7   9   10.08   11.85
  -4  -7   9   12.87    9.31
   4   7  -9   14.90   12.62
   4   7  -9   21.42   12.87
   4   7  -9   20.57   13.89
  -4  -7   8  271.18   28.96
  -4  -7   8  235.37   25.65
  -4  -7   8  239.43   25.31
  -4  -7   8  254.76   22.86
   4   7  -8  221.06   23.96
   4   7  -8  332.22   29.80
   4   7  -8  270.25   28.45
  -4  -7   7   25.57   13.55
  -4  -7   7   12.36   10.92
  -4  -7   7   14.22   11.26
  -4  -7   7   19.47   10.41
   4   7  -7   21.76   11.51
   4   7  -7   33.10   13.21
   4   7  -7   18.20   10.08
   4   7  -7   16.68   10.58
  -4  -7   6   30.23   13.38
  -4  -7   6   28.53   12.95
  -4  -7   6   25.91   12.36
  -4  -7   6   41.74   12.36
   4   7  -6   24.81   13.21
   4   7  -6   31.83   11.35
   4   7  -6   22.61   11.68
   4   7  -6   34.97   12.02
   4   7  -6   19.47   12.28
  -4  -7   5   23.45   12.45
  -4  -7   5   12.62    8.97
  -4  -7   5   32.60   12.53
  -4  -7   5   18.88    9.40
   4   7  -5   25.15   12.62
   4   7  -5   32.26   11.35
   4   7  -5   28.45   11.94
   4   7  -5   17.78    9.48
   4   7  -5   16.59   11.18
  -4  -7   4  323.76   26.84
  -4  -7   4  267.79   25.48
  -4  -7   4  326.72   26.08
  -4  -7   4  324.10   25.82
  -4  -7   4  294.04   23.96
   4   7  -4  256.37   25.40
   4   7  -4  354.91   24.47
   4   7  -4  259.58   23.62
   4   7  -4  247.98   23.11
   4   7  -4  213.78   23.88
  -4  -7   3   70.02   15.92
  -4  -7   3   61.97   16.00
  -4  -7   3   47.67   13.55
  -4  -7   3   65.28   14.73
  -4  -7   3   64.09   14.65
   4   7  -3   46.31   13.72
   4   7  -3   81.02   14.31
   4   7  -3   58.42   14.31
   4   7  -3   57.74   15.16
   4   7  -3   60.87   16.00
  -4  -7   2  309.20   26.08
  -4  -7   2  273.04   24.89
  -4  -7   2  281.00   23.28
  -4  -7   2  272.71   22.69
  -4  -7   2  295.82   23.96
   4   7  -2  220.04   23.28
   4   7  -2  358.13   23.79
   4   7  -2  259.16   22.10
   4   7  -2  238.25   24.21
   4   7  -2  243.16   24.30
  -4  -7   1  259.16   25.99
  -4  -7   1  234.52   22.01
  -4  -7   1  299.63   22.94
  -4  -7   1  262.46   21.42
  -4  -7   1  286.76   23.96
   4   7  -1  197.02   19.64
   4   7  -1  209.38   22.61
   4   7  -1  282.27   21.25
   4   7  -1  273.13   21.76
   4   7  -1  254.08   21.34
   4   7  -1  207.68   23.71
   4   7  -1  213.61   22.77
  -4  -7   0  143.08   23.20
  -4  -7   0  113.54   17.95
  -4  -7   0  153.50   22.44
  -4  -7   0  166.28   17.61
  -4  -7   0  144.69   17.19
  -4  -7   0  157.82   22.18
   4   7   0  121.83   17.86
   4   7   0  100.07   18.03
   4   7   0  128.78   15.32
   4   7   0  134.28   18.71
   4   7   0  121.58   21.17
   4   7   0  100.24   18.88
  -4  -7  -1  172.80   25.99
  -4  -7  -1  196.76   20.57
  -4  -7  -1  176.44   19.81
   4   7   1  146.72   18.12
   4   7   1  152.90   21.76
   4   7   1  151.63   23.79
   4   7   1  144.35   21.25
  -4  -7  -2   65.28   18.63
  -4  -7  -2   60.45   15.32
  -4  -7  -2   43.52   13.38
   4   7   2   43.26   13.46
   4   7   2   39.20   13.04
   4   7   2   49.78   15.16
  -4  -7  -3    5.16   12.53
  -4  -7  -3    7.11   10.08
   4   7   3   -0.51    7.96
   4   7   3    0.00   11.01
  -4  -7  -4   70.95   20.15
  -4  -7  -4   62.23   17.53
   4   7   4   59.43   17.53
   4   7   4   67.90   18.88
  -4  -7  -5   99.99   24.47
  -4  -7  -5   87.46   20.74
   4   7   5   92.45   21.93
  -4  -7  -6   77.47   24.04
  -4  -7  -6   38.01   17.36
   4   7   6   54.44   19.05
   4   7   6   41.66   16.51
  -4  -8  11   -4.66   11.94
  -4  -8  11    1.19   10.67
  -4  -8  11   -6.69   11.18
  -4  -8  11    5.67   10.75
   4   8 -11   -0.42   12.87
   4   8 -11    1.69   12.95
   4   8 -11    1.78   13.97
  -4  -8  10   10.41   13.04
  -4  -8  10   15.49   12.28
  -4  -8  10   21.08   15.07
  -4  -8  10    4.32    9.65
   4   8 -10   15.24   14.65
   4   8 -10   17.27   14.31
   4   8 -10   11.35   11.77
  -4  -8   9   86.27   21.59
  -4  -8   9   61.04   18.03
  -4  -8   9  121.16   24.13
  -4  -8   9  100.84   18.71
   4   8  -9   93.81   22.01
   4   8  -9  130.38   24.81
   4   8  -9   80.85   21.76
  -4  -8   8   35.47   14.22
  -4  -8   8   32.43   14.31
  -4  -8   8   25.31   14.31
  -4  -8   8   29.55   12.78
   4   8  -8   17.53   13.21
   4   8  -8   13.72   12.36
   4   8  -8   34.97   15.07
  -4  -8   7   15.16   12.45
  -4  -8   7   27.01   13.12
  -4  -8   7   31.07   14.48
  -4  -8   7   18.80   10.84
   4   8  -7   24.30   12.70
   4   8  -7   30.31   12.95
   4   8  -7   25.99   13.29
  -4  -8   6   19.39   13.21
  -4  -8   6   29.72   13.38
  -4  -8   6   29.55   12.45
  -4  -8   6   29.97   12.70
   4   8  -6   24.13   13.89
   4   8  -6   41.57   13.80
   4   8  -6   35.05   13.89
   4   8  -6   23.03   12.02
  -4  -8   5   30.06   14.39
  -4  -8   5   22.10   12.53
  -4  -8   5   32.60   13.04
  -4  -8   5   32.43   12.11
   4   8  -5   15.41   10.84
   4   8  -5   35.47   12.95
   4   8  -5   24.81   11.77
   4   8  -5   19.98   10.33
  -4  -8   4   27.77   14.05
  -4  -8   4   29.80   12.19
  -4  -8   4   42.76   13.97
  -4  -8   4   27.35   11.77
   4   8  -4   20.83   12.62
   4   8  -4   21.25   10.16
   4   8  -4   35.22   12.19
   4   8  -4   20.91   11.26
   4   8  -4   22.18   12.45
  -4  -8   3    5.00    8.30
  -4  -8   3    2.54   10.08
  -4  -8   3    0.68    8.30
  -4  -8   3    3.56    8.13
  -4  -8   3   10.67   10.33
   4   8  -3    3.30    9.99
   4   8  -3    9.31    8.21
   4   8  -3    8.30    8.81
   4   8  -3   -0.34    9.14
   4   8  -3    5.67   10.08
  -4  -8   2    7.03   10.84
  -4  -8   2    2.79    9.14
  -4  -8   2    3.89    8.47
  -4  -8   2    3.98    7.70
  -4  -8   2    5.67    9.31
   4   8  -2   -6.60    5.59
   4   8  -2   -6.01    6.18
   4   8  -2    0.42    6.43
   4   8  -2    1.19    7.11
   4   8  -2   11.68   11.18
   4   8  -2    0.25    6.86
  -4  -8   1  133.86   24.04
  -4  -8   1   84.07   18.46
   4   8  -1   68.24   17.27
   4   8  -1   80.43   18.54
  -4  -8   0   20.32   13.80
  -4  -8   0   29.38   12.02
   4   8   0   16.76   11.43
   4   8   0   11.35   12.36
   4   8   0   10.50   10.58
  -4  -8  -1  274.99   30.23
  -4  -8  -1  288.11   26.33
  -4  -8  -1  248.32   24.55
   4   8   1  219.71   22.44
   4   8   1  221.31   31.50
  -4  -8  -2    1.27   11.94
  -4  -8  -2    4.74    9.74
   4   8   2    9.06    9.82
   4   8   2   -1.35   11.18
  -4  -8  -3  178.05   30.14
  -4  -8  -3  203.79   29.12
   4   8   3  182.11   22.35
   4   8   3  164.76   28.79
  -4  -8  -4   13.04   12.87
  -4  -8  -4   19.22   13.72
   4   8   4    6.77   11.43
   4   8   4    2.29   12.53
  -4  -9  10   12.19   14.73
  -4  -9  10   11.51   12.87
  -4  -9  10   14.65   15.66
  -4  -9  10   23.45   14.05
   4   9 -10    8.30   15.32
   4   9 -10    9.48   14.22
   4   9 -10   11.77   11.26
  -4  -9   9    8.72   14.56
  -4  -9   9   23.62   13.97
  -4  -9   9   23.11   14.22
  -4  -9   9   10.33   11.35
   4   9  -9   19.98   15.92
   4   9  -9   13.29   14.05
   4   9  -9    9.82   13.89
  -4  -9   8    8.13   13.38
  -4  -9   8    5.84   11.43
  -4  -9   8   21.42   13.97
  -4  -9   8    7.03   11.01
   4   9  -8    9.14   13.38
   4   9  -8   20.74   13.38
   4   9  -8   10.92   12.78
  -4  -9   7   41.40   17.27
  -4  -9   7   37.51   14.56
  -4  -9   7   44.53   14.73
  -4  -9   7   34.54   13.97
   4   9  -7   32.26   14.39
   4   9  -7   60.96   18.12
   4   9  -7   34.97   15.07
  -4  -9   6   13.97   12.28
  -4  -9   6    9.40   11.77
  -4  -9   6   -0.42    9.23
  -4  -9   6   12.53   11.43
   4   9  -6    1.52   12.28
   4   9  -6    2.37    9.82
   4   9  -6    2.46    9.74
   4   9  -6    3.39    9.14
  -4  -9   5   60.28   19.13
  -4  -9   5   62.23   19.13
  -4  -9   5   76.71   18.96
  -4  -9   5   76.03   18.29
   4   9  -5   48.77   17.27
   4   9  -5   75.52   17.69
   4   9  -5   65.95   16.93
   4   9  -5   56.39   16.85
  -4  -9   4   28.79   15.49
  -4  -9   4   18.96   11.35
  -4  -9   4   33.78   13.72
  -4  -9   4   24.30   13.55
   4   9  -4   28.45   14.73
   4   9  -4   37.85   13.29
   4   9  -4   20.23   11.60
   4   9  -4   27.01   13.38
  -4  -9   3   66.72   19.64
  -4  -9   3   91.61   21.93
  -4  -9   3   66.80   17.53
  -4  -9   3  100.33   22.69
   4   9  -3   50.04   17.19
   4   9  -3   68.58   16.34
   4   9  -3   82.38   19.81
  -4  -9   2   26.25   14.99
  -4  -9   2   13.46   11.77
   4   9  -2   15.83   13.04
   4   9  -2   13.29    9.99
  -4  -9   1   21.25   14.48
  -4  -9   1    6.60   11.68
   4   9  -1   11.94   12.11
   4   9  -1    8.64   13.12
  -4  -9   0   31.66   16.68
  -4  -9   0   45.13   15.75
   4   9   0   32.00   14.65
   4   9   0   26.33   13.55
  -4  -9  -1   12.36   15.16
   4   9   1    4.57   12.53
  -4  -9  -2  116.33   25.74
   4   9   2  103.63   24.30
  -4  -9  -3   91.78   25.15
  -4  -9  -3   71.97   20.32
   4   9   3   59.94   17.78
   4   9   3   54.78   20.07
  -4 -10   8   46.90   18.54
  -4 -10   8   66.38   20.83
  -4 -10   8   74.59   21.42
  -4 -10   8   69.17   19.64
   4  10  -8   32.09   18.29
   4  10  -8   70.02   21.50
   4  10  -8   47.58   18.12
  -4 -10   7   26.67   17.02
  -4 -10   7   21.67   14.65
  -4 -10   7   29.04   16.00
  -4 -10   7   20.23   13.55
   4  10  -7    7.87   12.53
   4  10  -7   16.59   15.07
   4  10  -7   14.05   13.55
  -4 -10   6   34.12   16.68
  -4 -10   6   31.92   14.82
  -4 -10   6   28.96   15.41
  -4 -10   6   28.11   14.90
   4  10  -6   23.96   16.93
   4  10  -6   25.65   13.97
   4  10  -6   25.23   14.14
  -4 -10   5    6.86   13.89
  -4 -10   5   21.08   14.39
  -4 -10   5   13.29   12.53
   4  10  -5    1.78   13.21
   4  10  -5   11.77   11.94
   4  10  -5   24.30   13.80
  -4 -10   4   52.41   18.96
  -4 -10   4   43.26   18.20
   4  10  -4   26.84   16.26
   4  10  -4   41.06   16.59
  -4 -10   3   39.96   17.69
  -4 -10   3   46.82   18.29
   4  10  -3   26.50   16.00
   4  10  -3   33.70   16.00
  -4 -10   2    3.05   13.29
  -4 -10   2    0.59   11.43
   4  10  -2    5.00   12.95
   4  10  -2   -0.08   11.51
  -4 -10   1   17.78   16.00
  -4 -10   1    2.88   11.60
   4  10  -1    3.22   12.53
   4  10  -1   -1.61   11.68
  -4 -10   0   10.84   14.90
  -4 -10   0   10.08   12.53
   4  10   0    4.83   12.78
   4  10   0   -1.44   13.46
  -5  11   0   18.03   13.55
  -5  11   0   13.63   13.97
  -5  11   0   28.45   17.02
  -5  11   0    6.35   14.05
  -5  11   0   25.99   25.65
   5 -11   0   16.00   15.41
   5 -11   0   16.93   14.22
  -5  11  -1   -1.95   11.01
  -5  11  -1    7.79   14.73
  -5  11  -1    1.86   13.12
   5 -11   1    9.31   13.12
  -5  11  -2    6.01   12.78
  -5  11  -2   14.65   14.90
  -5  11  -2   11.26   13.63
   5 -11   2   24.21   15.92
  -5  11  -3    5.76   13.12
  -5  11  -3   -4.91   11.94
  -5  11  -3   -2.29   12.45
   5 -11   3    2.20    9.99
  -5  11  -4   25.99   16.76
  -5  11  -4   31.33   17.95
  -5  11  -4   24.04   15.24
   5 -11   4   25.65   16.09
  -5  10   3   21.00   11.77
  -5  10   3   26.08   16.17
  -5  10   3   23.03   17.61
  -5  10   3   29.21   14.99
   5 -10  -3   17.19   13.21
  -5  10   2   62.06   17.95
  -5  10   2   55.20   17.44
  -5  10   2  100.75   24.13
  -5  10   2   79.50   23.28
  -5  10   2   73.15   19.39
   5 -10  -2   49.36   16.93
   5 -10  -2   59.86   18.54
  -5  10   1  145.54   25.31
  -5  10   1  127.25   23.71
  -5  10   1  170.94   27.77
  -5  10   1  207.43   32.77
  -5  10   1  160.27   30.14
  -5  10   1  226.48   26.42
   5 -10  -1  179.57   28.36
   5 -10  -1  127.08   23.37
   5 -10  -1  147.40   25.57
  -5  10   0   33.53   13.97
  -5  10   0   49.27   17.44
  -5  10   0   39.79   14.82
  -5  10   0   48.17   16.59
  -5  10   0   51.90   18.37
  -5  10   0   45.13   16.17
   5 -10   0   52.41   17.19
   5 -10   0   30.82   13.55
   5 -10   0   30.06   15.75
  -5  10  -1   26.16   12.02
  -5  10  -1   19.81   13.21
  -5  10  -1   24.98   12.95
  -5  10  -1   11.85   13.21
  -5  10  -1   17.61   13.63
  -5  10  -1   22.52   13.63
   5 -10   1   27.35   14.31
   5 -10   1   16.17   11.09
   5 -10   1   23.20   14.56
  -5  10  -2    3.64    8.47
  -5  10  -2    5.08   12.36
  -5  10  -2    9.74   11.94
  -5  10  -2   28.36   14.31
   5 -10   2   17.27   13.29
  -5  10  -3   30.99   15.32
  -5  10  -3   52.66   16.85
  -5  10  -3   31.75   15.49
   5 -10   3   27.01   15.58
  -5  10  -4   11.94   13.55
  -5  10  -4    9.57   12.28
  -5  10  -4   24.47   13.04
   5 -10   4    6.94   11.60
  -5  10  -5   20.74   14.82
  -5  10  -5   12.11   13.29
  -5  10  -5   33.70   24.13
   5 -10   5   14.82   13.63
   5 -10   5   28.19   14.31
  -5  10  -6    1.95   11.85
  -5  10  -6    4.57   12.62
  -5  10  -6    0.85   10.50
   5 -10   6    6.94   12.70
   5 -10   6    8.04   11.26
  -5  10  -7   31.92   17.19
  -5  10  -7   40.22   18.46
  -5  10  -7   28.70   16.00
   5 -10   7   23.54   15.24
   5 -10   7   53.17   18.20
  -5   9   5   71.71   20.15
  -5   9   5   97.28   24.55
  -5   9   5   94.15   23.37
  -5   9   5  100.16   20.15
   5  -9  -5   53.76   18.03
  -5   9   4   44.28   16.09
  -5   9   4   80.69   21.93
  -5   9   4   69.59   21.50
  -5   9   4   51.73   15.66
   5  -9  -4   36.32   15.49
  -5   9   3  142.91   25.31
  -5   9   3  162.90   25.31
  -5   9   3  223.09   32.60
  -5   9   3  138.51   27.52
  -5   9   3  191.00   22.69
   5  -9  -3   99.99   19.98
   5  -9  -3  166.11   25.91
  -5   9   2  107.78   21.67
  -5   9   2   95.67   20.32
  -5   9   2  123.10   22.52
  -5   9   2  143.68   26.25
  -5   9   2  104.48   23.20
  -5   9   2  100.92   19.73
   5  -9  -2  105.32   20.91
   5  -9  -2  131.48   23.62
  -5   9   1   68.66   17.53
  -5   9   1   53.00   16.09
  -5   9   1   85.68   18.63
  -5   9   1   80.94   20.32
  -5   9   1   56.81   18.71
  -5   9   1   83.65   18.54
   5  -9  -1   49.44   15.49
   5  -9  -1   75.86   19.30
  -5   9   0   46.31   14.31
  -5   9   0   39.79   15.16
  -5   9   0   56.98   16.42
  -5   9   0   77.30   18.96
  -5   9   0   32.77   14.82
  -5   9   0   64.85   16.09
   5  -9   0   56.13   16.51
   5  -9   0   51.73   14.56
   5  -9   0   46.65   14.22
  -5   9  -1    4.06    8.21
  -5   9  -1    7.70   11.18
  -5   9  -1    1.10    9.23
  -5   9  -1    9.99   11.60
  -5   9  -1    0.17    9.91
  -5   9  -1   15.92   11.60
   5  -9   1    6.69   10.75
   5  -9   1    6.27    8.47
   5  -9   1    4.40   10.92
  -5   9  -2    6.77    8.38
  -5   9  -2   10.50    9.06
  -5   9  -2   19.05   10.92
  -5   9  -2   19.05   13.12
  -5   9  -2   18.88   12.28
  -5   9  -2   17.61   12.45
   5  -9   2   17.69   11.26
   5  -9   2   10.33    8.81
   5  -9   2   17.02   10.75
  -5   9  -3   -1.52    9.48
  -5   9  -3    2.88    8.38
  -5   9  -3    1.61    9.40
  -5   9  -3   20.40   11.18
  -5   9  -3    7.54    9.99
   5  -9   3    2.20    8.64
   5  -9   3    6.94   10.67
  -5   9  -4    5.16   10.58
  -5   9  -4   13.21   10.08
  -5   9  -4    9.82    9.65
  -5   9  -4   13.12   10.33
   5  -9   4    1.86    7.79
   5  -9   4    4.74    9.65
  -5   9  -5   34.20   15.58
  -5   9  -5   66.12   18.54
  -5   9  -5   32.00   13.55
   5  -9   5   44.53   16.51
   5  -9   5   37.59   14.82
  -5   9  -6    4.57   11.18
  -5   9  -6   -2.88   10.84
  -5   9  -6   -0.59    9.06
   5  -9   6    6.27   11.35
   5  -9   6   -1.02   10.24
  -5   9  -7   33.87   16.42
  -5   9  -7   56.13   18.46
  -5   9  -7   47.75   17.02
   5  -9   7   46.06   16.85
   5  -9   7   50.63   18.12
  -5   9  -8   25.91   15.32
  -5   9  -8   29.04   15.75
  -5   9  -8   16.00   14.22
   5  -9   8   -2.20   10.75
   5  -9   8   16.85   12.78
  -5   8   7    5.67   12.28
  -5   8   7   10.41   13.97
  -5   8   7   -0.17   12.02
  -5   8   7   11.18   11.51
   5  -8  -7    4.83   11.77
  -5   8   6   13.21    9.91
  -5   8   6   20.40   15.07
  -5   8   6    7.45   13.21
  -5   8   6   24.30   11.60
   5  -8  -6   15.24   12.78
  -5   8   5    6.10    9.91
  -5   8   5   16.09   13.63
  -5   8   5    8.21   11.35
  -5   8   5   11.18    9.99
   5  -8  -5   14.56   12.45
  -5   8   4   33.02   14.14
  -5   8   4   74.25   19.73
  -5   8   4   45.04   17.69
  -5   8   4   54.69   14.31
   5  -8  -4   39.79   14.82
  -5   8   3  107.44   21.00
  -5   8   3   93.55   18.29
  -5   8   3  149.43   25.31
  -5   8   3  164.42   27.09
  -5   8   3  129.62   25.23
  -5   8   3  129.11   20.32
  -5   8   3   82.55   17.61
   5  -8  -3   70.02   17.27
   5  -8  -3   93.64   19.64
  -5   8   2   27.43   12.62
  -5   8   2   21.59   11.43
  -5   8   2   34.71   14.22
  -5   8   2   34.37   14.56
  -5   8   2   27.43   13.80
  -5   8   2   29.89   11.18
  -5   8   2   19.13   11.26
   5  -8  -2   20.91   11.43
   5  -8  -2   19.30   11.77
  -5   8   1  150.96   22.94
  -5   8   1  189.73   22.44
  -5   8   1  208.02   23.71
  -5   8   1  247.73   24.81
  -5   8   1  231.73   26.33
  -5   8   1  230.88   21.84
  -5   8   1  172.04   24.64
   5  -8  -1  199.13   23.71
  -5   8   0   22.27   10.92
  -5   8   0   24.13   11.77
  -5   8   0   19.64   11.43
  -5   8   0   24.38   12.36
  -5   8   0   32.77   13.89
  -5   8   0   34.97   12.28
  -5   8   0   24.30   11.77
   5  -8   0   39.12   13.12
   5  -8   0   13.21    9.06
   5  -8   0   33.36   12.53
  -5   8  -1  184.82   20.23
  -5   8  -1  161.37   19.98
  -5   8  -1  253.74   22.69
  -5   8  -1  251.54   25.82
  -5   8  -1  185.33   26.50
  -5   8  -1  235.96   22.44
  -5   8  -1  167.98   20.23
   5  -8   1  247.81   24.04
   5  -8   1  154.60   19.30
   5  -8   1  181.27   25.74
  -5   8  -2   11.60    8.81
  -5   8  -2   10.24   10.33
  -5   8  -2   16.51    9.74
  -5   8  -2   15.83   11.01
  -5   8  -2   15.07    8.72
  -5   8  -2   17.02   10.92
  -5   8  -2   33.10   12.11
  -5   8  -2   14.65   10.24
   5  -8   2   14.48   10.50
   5  -8   2   11.60   11.09
   5  -8   2   15.66    9.40
  -5   8  -3   15.66    9.57
  -5   8  -3   43.77   12.70
  -5   8  -3   28.11   12.53
  -5   8  -3   29.04   11.26
  -5   8  -3   29.29   12.53
  -5   8  -3   43.94   13.38
  -5   8  -3   29.72   11.85
   5  -8   3   26.75   11.18
   5  -8   3   16.42    9.74
   5  -8   3   37.08   12.78
  -5   8  -4  147.40   24.55
  -5   8  -4  159.09   18.63
  -5   8  -4  199.72   23.79
  -5   8  -4  109.05   19.56
  -5   8  -4  146.39   22.35
  -5   8  -4  151.63   22.77
  -5   8  -4   94.06   19.05
   5  -8   4  132.59   19.56
   5  -8   4  111.84   22.10
   5  -8   4  125.22   20.91
  -5   8  -5    1.44    7.20
  -5   8  -5    1.61   11.01
  -5   8  -5   -3.56    8.89
  -5   8  -5   -4.49    7.54
  -5   8  -5   -0.08    6.77
   5  -8   5   -6.69    8.21
   5  -8   5   -1.44    8.97
  -5   8  -6   -5.50    8.72
  -5   8  -6   -2.12    9.06
  -5   8  -6    0.76    9.23
   5  -8   6   -5.93    7.03
   5  -8   6    4.32   10.16
  -5   8  -7   55.37   16.93
  -5   8  -7   50.88   16.76
  -5   8  -7   46.23   15.83
   5  -8   7   49.02   16.00
   5  -8   7   59.52   17.10
  -5   8  -8   23.54   13.97
  -5   8  -8   44.53   16.51
  -5   8  -8   40.72   16.85
   5  -8   8   27.69   13.21
   5  -8   8   30.06   15.75
  -5   8  -9   84.83   20.49
  -5   8  -9   87.54   21.76
  -5   8  -9   76.88   22.35
   5  -8   9   79.84   19.56
   5  -8   9   77.55   22.27
  -5   7   8    2.54   12.78
  -5   7   8    4.40   11.26
  -5   7   8   -4.15   10.92
  -5   7   8    3.89    8.55
   5  -7  -8   -7.70   12.70
   5  -7  -8    0.08    9.31
  -5   7   7   31.07   15.32
  -5   7   7   27.01   15.16
  -5   7   7   27.77   14.65
  -5   7   7   43.09   13.12
   5  -7  -7   42.84   17.44
   5  -7  -7   23.28   13.04
  -5   7   6   56.39   17.86
  -5   7   6   90.85   22.18
  -5   7   6   65.87   18.46
  -5   7   6   70.02   14.65
   5  -7  -6   62.48   17.53
   5  -7  -6   44.28   15.07
  -5   7   5    8.89    8.30
  -5   7   5   18.37   11.01
  -5   7   5    3.89   10.92
  -5   7   5   10.24    9.14
   5  -7  -5    3.30    9.74
   5  -7  -5   -1.95    8.81
  -5   7   4   10.41    9.40
  -5   7   4   11.35    8.72
  -5   7   4   -4.15    8.64
  -5   7   4   -0.25    8.30
  -5   7   4    1.19    7.28
  -5   7   4    9.14    7.96
  -5   7   4   -3.13    6.77
   5  -7  -4    6.35    9.06
   5  -7  -4    8.81    9.31
   5  -7  -4    2.12    9.31
  -5   7   3   14.56   10.16
  -5   7   3    9.57    9.48
  -5   7   3   13.21    9.82
  -5   7   3   31.58   13.38
  -5   7   3   29.46   12.62
  -5   7   3   18.20    8.72
  -5   7   3   18.20   10.24
   5  -7  -3   16.85   11.09
   5  -7  -3   22.10   10.50
  -5   7   2   52.15   14.56
  -5   7   2   49.27   13.97
  -5   7   2   64.51   16.00
  -5   7   2   55.96   15.49
  -5   7   2   45.47   15.49
  -5   7   2   64.43   13.55
  -5   7   2   55.62   14.39
   5  -7  -2   51.56   13.46
   5  -7  -2   42.93   13.89
  -5   7   1   59.94   15.07
  -5   7   1   52.92   14.22
  -5   7   1   73.91   16.59
  -5   7   1   77.98   17.27
  -5   7   1   61.55   15.75
  -5   7   1   75.18   14.31
  -5   7   1   66.63   15.24
   5  -7  -1   33.02   11.68
   5  -7  -1   67.14   15.92
  -5   7   0   10.24    8.64
  -5   7   0    3.05    8.13
  -5   7   0    9.14    7.37
  -5   7   0    4.23    8.64
  -5   7   0    2.46    8.55
  -5   7   0    3.05    7.37
  -5   7   0    3.81    8.64
   5  -7   0   14.22    9.99
   5  -7   0    3.22    7.20
  -5   7  -1   26.84   10.58
  -5   7  -1   27.35   11.77
  -5   7  -1   15.66    9.65
  -5   7  -1   20.83   10.50
  -5   7  -1   27.94    9.14
  -5   7  -1   25.31   11.35
  -5   7  -1   28.53   10.33
  -5   7  -1   19.47   10.08
   5  -7   1   25.99   11.18
   5  -7   1   19.39   11.01
   5  -7   1   17.27    8.89
  -5   7  -2  192.27   19.22
  -5   7  -2  174.66   19.64
  -5   7  -2  258.65   22.18
  -5   7  -2  266.52   23.71
  -5   7  -2  187.28   18.29
  -5   7  -2  231.30   22.52
  -5   7  -2  233.17   21.08
  -5   7  -2  180.25   20.91
   5  -7   2  238.92   21.84
   5  -7   2  157.39   23.20
   5  -7   2  223.77   20.49
  -5   7  -3  146.13   22.52
  -5   7  -3  177.37   18.88
  -5   7  -3  186.52   20.74
  -5   7  -3  112.01   18.03
  -5   7  -3  124.80   19.73
  -5   7  -3  155.28   18.46
  -5   7  -3  135.89   21.50
   5  -7   3  169.58   18.96
   5  -7   3  138.26   22.44
   5  -7   3  162.47   18.80
  -5   7  -4   -2.37    7.62
  -5   7  -4    6.60    7.96
  -5   7  -4    2.54    8.30
  -5   7  -4   -1.86    7.03
  -5   7  -4    5.93    8.38
  -5   7  -4    1.61    7.87
  -5   7  -4    3.73    7.96
   5  -7   4    2.12    7.54
   5  -7   4    3.22    8.47
   5  -7   4    1.52    7.62
  -5   7  -5   30.73   12.11
  -5   7  -5   35.73   11.51
  -5   7  -5   29.46   12.11
  -5   7  -5   24.38   11.94
  -5   7  -5   23.28    9.57
  -5   7  -5   41.82   13.38
  -5   7  -5   27.60   10.92
   5  -7   5   34.63   11.77
   5  -7   5   24.55   11.77
   5  -7   5   27.60   12.36
  -5   7  -6   44.53   14.82
  -5   7  -6   38.44   11.77
  -5   7  -6   41.40   14.05
  -5   7  -6   26.92   12.62
  -5   7  -6   39.79   13.63
   5  -7   6   33.70   12.19
   5  -7   6   20.83   11.51
   5  -7   6   36.07   14.14
  -5   7  -7    6.52   10.08
  -5   7  -7   12.62   11.01
  -5   7  -7   13.80   11.60
  -5   7  -7   16.09   11.01
   5  -7   7    5.42    8.64
   5  -7   7    4.40   11.01
  -5   7  -8   41.74   15.58
  -5   7  -8   60.20   18.20
  -5   7  -8   31.58   14.99
   5  -7   8   43.35   14.73
   5  -7   8   60.54   19.13
  -5   7  -9   -2.79    9.91
  -5   7  -9   -3.22   11.18
  -5   7  -9    0.68   12.11
   5  -7   9    5.00    9.65
   5  -7   9    3.05    9.31
  -5   7 -10   50.63   18.03
  -5   7 -10   41.49   16.85
   5  -7  10   22.52   15.92
  -5   6   9   -3.47    8.47
  -5   6   9    5.08   10.50
  -5   6   9    6.69    9.23
   5  -6  -9    7.45   14.90
   5  -6  -9   -4.15    7.87
  -5   6   8   39.79   15.07
  -5   6   8   57.49   19.05
  -5   6   8   44.87   15.83
  -5   6   8   44.79   12.02
   5  -6  -8   41.15   17.69
   5  -6  -8   43.94   16.68
  -5   6   7   72.90   19.90
  -5   6   7   65.95   18.88
  -5   6   7   66.55   18.29
  -5   6   7   61.21   13.04
   5  -6  -7   77.13   20.23
   5  -6  -7   56.39   17.78
  -5   6   6   72.64   18.03
  -5   6   6  116.16   22.18
  -5   6   6  101.68   21.00
  -5   6   6   98.72   15.41
   5  -6  -6   99.48   19.81
   5  -6  -6   70.27   18.29
  -5   6   5   17.53    9.57
  -5   6   5   17.02    9.57
  -5   6   5   10.58   10.67
  -5   6   5    3.89    9.23
  -5   6   5   11.85    7.20
   5  -6  -5    1.02   10.41
   5  -6  -5    6.60    7.87
   5  -6  -5    8.30    9.23
  -5   6   4   22.10   11.26
  -5   6   4   29.21   10.41
  -5   6   4   32.09   13.12
  -5   6   4   31.41   12.28
  -5   6   4   30.14   12.11
  -5   6   4   23.62    8.38
  -5   6   4   19.98    8.89
   5  -6  -4   24.04   11.01
   5  -6  -4   22.01   11.35
   5  -6  -4   36.91   11.85
  -5   6   3    1.61    5.59
  -5   6   3   -0.08    6.35
  -5   6   3    5.33    8.97
  -5   6   3    0.25    7.87
  -5   6   3   -3.56    5.50
  -5   6   3    5.25    6.77
  -5   6   3    2.54    6.60
   5  -6  -3    8.97    7.28
   5  -6  -3    2.03    5.93
   5  -6  -3    5.33    7.37
  -5   6   2  327.91   24.89
  -5   6   2  350.43   25.06
  -5   6   2  447.79   29.12
  -5   6   2  434.84   28.70
  -5   6   2  340.61   27.26
  -5   6   2  443.73   23.79
  -5   6   2  365.58   25.48
   5  -6  -2  436.87   23.71
   5  -6  -2  318.09   25.31
   5  -6  -2  314.45   24.21
  -5   6   1    6.52    7.79
  -5   6   1   14.65    8.64
  -5   6   1    4.49    8.64
  -5   6   1    7.28    8.38
  -5   6   1   10.67    6.27
  -5   6   1    4.83    6.10
  -5   6   1   11.68    7.28
  -5   6   1   11.68    8.21
   5  -6  -1    7.79    8.64
   5  -6  -1    1.95    7.62
   5  -6  -1    4.91    5.76
  -5   6   0  415.70   26.25
  -5   6   0  453.72   28.62
  -5   6   0  521.96   30.06
  -5   6   0  546.00   30.06
  -5   6   0  481.15   23.96
  -5   6   0  467.77   29.80
  -5   6   0  540.08   26.92
  -5   6   0  461.85   28.87
   5  -6   0  509.60   29.97
   5  -6   0  384.63   26.92
   5  -6   0  425.02   22.52
  -5   6  -1   84.66   15.83
  -5   6  -1  105.07   17.78
  -5   6  -1  135.97   19.47
  -5   6  -1  121.41   18.12
  -5   6  -1   97.96   14.65
  -5   6  -1   85.68   16.59
  -5   6  -1   94.15   15.16
  -5   6  -1   71.46   14.65
   5  -6   1   95.16   17.02
   5  -6   1   96.86   16.93
   5  -6   1  109.73   15.83
  -5   6  -2  176.27   19.64
  -5   6  -2  236.55   19.81
  -5   6  -2  237.23   20.57
  -5   6  -2  206.24   18.88
  -5   6  -2  220.89   20.49
  -5   6  -2  263.56   21.00
  -5   6  -2  165.01   19.30
   5  -6   2  253.83   21.50
   5  -6   2  171.87   19.81
   5  -6   2  187.45   19.22
  -5   6  -3   29.12   10.58
  -5   6  -3   31.58   10.75
  -5   6  -3   35.73   11.01
  -5   6  -3   23.11    9.57
  -5   6  -3   33.78   10.67
  -5   6  -3   29.29   10.24
  -5   6  -3   30.39   10.41
   5  -6   3   33.61   11.09
   5  -6   3   22.27   10.41
   5  -6   3   27.01   11.01
  -5   6  -4   82.63   16.09
  -5   6  -4  102.11   16.85
  -5   6  -4  118.78   18.46
  -5   6  -4   84.33   16.51
  -5   6  -4   81.36   14.73
  -5   6  -4  111.08   17.53
  -5   6  -4   68.75   15.32
   5  -6   4   92.28   16.42
   5  -6   4   67.90   15.49
   5  -6   4   71.20   14.99
  -5   6  -5  152.40   22.52
  -5   6  -5  233.51   20.74
  -5   6  -5  211.83   21.17
  -5   6  -5  198.12   21.93
  -5   6  -5  181.78   18.03
  -5   6  -5  253.99   22.77
  -5   6  -5  149.26   21.93
   5  -6   5  187.53   19.47
   5  -6   5  192.53   21.34
   5  -6   5  177.88   21.08
  -5   6  -6    8.64    8.55
  -5   6  -6   16.51    8.89
  -5   6  -6   24.13   10.16
  -5   6  -6   10.16    9.99
  -5   6  -6    9.57    9.14
   5  -6   6   19.73    9.91
   5  -6   6    6.86    8.97
   5  -6   6   16.26   11.09
  -5   6  -7   44.53   13.55
  -5   6  -7   49.87   14.05
  -5   6  -7   55.20   14.90
  -5   6  -7   38.61   13.55
  -5   6  -7   30.23   11.77
   5  -6   7   33.27   11.51
   5  -6   7   24.81   11.26
   5  -6   7   24.55   12.87
  -5   6  -8   18.63   10.92
  -5   6  -8   17.61   11.77
  -5   6  -8   32.34   13.21
  -5   6  -8   14.14   10.24
   5  -6   8   16.42   10.24
   5  -6   8   23.96   11.77
  -5   6  -9   56.56   17.27
  -5   6  -9   40.72   17.10
   5  -6   9   37.93   16.26
  -5   6 -10   -2.79   10.24
  -5   6 -10   12.62   13.97
   5  -6  10    3.81   11.26
  -5   5  10   84.07   23.37
  -5   5  10   83.39   21.93
  -5   5  10   95.59   16.59
   5  -5 -10  107.78   25.82
   5  -5 -10   84.50   22.27
  -5   5   9   25.65   15.32
  -5   5   9   33.27   14.99
  -5   5   9   27.69    9.82
   5  -5  -9   32.09   16.76
   5  -5  -9   19.13   12.19
  -5   5   8   88.64   21.25
  -5   5   8  132.75   25.15
  -5   5   8  125.64   22.27
  -5   5   8  153.33   16.42
   5  -5  -8  141.14   25.15
   5  -5  -8  112.35   23.28
  -5   5   7   11.60   10.50
  -5   5   7   12.28   11.26
  -5   5   7   11.26   11.09
  -5   5   7    7.54    6.69
   5  -5  -7    7.70   10.84
   5  -5  -7   14.39    9.48
  -5   5   6   20.15    9.91
  -5   5   6   24.72   12.62
  -5   5   6   41.15   14.05
  -5   5   6   46.57   14.82
  -5   5   6   36.15    8.97
   5  -5  -6   23.37   12.78
   5  -5  -6   30.56   13.12
  -5   5   5  116.24   20.57
  -5   5   5  135.29   15.32
  -5   5   5  159.76   23.11
  -5   5   5  146.13   22.61
  -5   5   5  124.20   20.83
  -5   5   5  142.83   13.38
  -5   5   5  139.70   15.41
   5  -5  -5  151.21   20.66
   5  -5  -5  125.90   20.91
   5  -5  -5  143.08   16.42
  -5   5   4  194.90   21.17
  -5   5   4  197.86   18.12
  -5   5   4  197.18   20.32
  -5   5   4  235.62   22.44
  -5   5   4  203.03   21.76
  -5   5   4  267.96   16.85
  -5   5   4  231.22   19.47
   5  -5  -4  240.36   19.56
   5  -5  -4  182.03   19.39
   5  -5  -4  174.07   17.27
  -5   5   3  224.36   21.34
  -5   5   3  225.89   19.39
  -5   5   3  235.96   21.17
  -5   5   3  287.61   23.20
  -5   5   3  291.50   24.38
  -5   5   3  283.71   17.02
  -5   5   3  205.14   18.80
   5  -5  -3  309.20   19.81
   5  -5  -3  180.51   19.81
   5  -5  -3  214.46   18.96
  -5   5   2   59.60   13.72
  -5   5   2   64.60   13.63
  -5   5   2   67.90   14.82
  -5   5   2   85.68   15.41
  -5   5   2   75.44   15.49
  -5   5   2   93.05   12.70
  -5   5   2   53.34   12.53
   5  -5  -2   80.77   11.85
   5  -5  -2   54.35   12.87
   5  -5  -2   85.34   11.77
  -5   5   1  113.20   17.53
  -5   5   1  110.23   16.85
  -5   5   1  144.10   15.92
  -5   5   1  149.60   16.26
  -5   5   1  108.29   11.60
  -5   5   1  120.82   18.54
  -5   5   1  129.20   13.04
  -5   5   1  132.25   15.92
   5  -5  -1  138.09   12.02
   5  -5  -1  139.53   17.27
   5  -5  -1   98.38   16.51
   5  -5  -1  120.90   12.78
  -5   5   0   17.44    8.64
  -5   5   0   15.83    8.47
  -5   5   0   26.50    8.89
  -5   5   0   22.10    8.72
  -5   5   0   32.43    8.72
  -5   5   0   17.10    7.79
  -5   5   0   40.05    9.40
  -5   5   0   22.69    9.40
   5  -5   0   24.13    9.99
   5  -5   0   20.07    9.48
   5  -5   0   28.79    8.55
  -5   5  -1   70.61   13.38
  -5   5  -1   97.36   16.26
  -5   5  -1  112.77   13.89
  -5   5  -1  107.86   15.32
  -5   5  -1   87.29   13.89
  -5   5  -1   83.99   15.41
  -5   5  -1  128.52   13.80
  -5   5  -1   92.62   16.00
   5  -5   1  113.37   16.76
   5  -5   1   78.65   14.99
   5  -5   1   89.32   14.14
  -5   5  -2  155.28   16.42
  -5   5  -2  208.44   18.63
  -5   5  -2  208.02   17.53
  -5   5  -2  173.22   17.02
  -5   5  -2  178.22   17.69
  -5   5  -2  250.27   19.05
  -5   5  -2  172.80   18.12
   5  -5   2  196.17   17.53
   5  -5   2  160.36   18.03
   5  -5   2  165.10   16.85
  -5   5  -3  535.51   29.97
  -5   5  -3  638.54   30.31
  -5   5  -3  633.55   29.21
  -5   5  -3  548.20   29.46
  -5   5  -3  530.85   27.77
  -5   5  -3  710.68   31.24
  -5   5  -3  541.35   30.14
   5  -5   3  571.32   29.38
   5  -5   3  458.12   28.28
   5  -5   3  474.29   27.77
  -5   5  -4  170.01   17.61
  -5   5  -4  244.85   20.49
  -5   5  -4  255.18   20.91
  -5   5  -4  178.98   19.56
  -5   5  -4  222.75   18.88
  -5   5  -4  252.13   20.57
  -5   5  -4  169.67   17.69
   5  -5   4  223.18   20.07
   5  -5   4  176.19   19.13
   5  -5   4  204.47   19.56
  -5   5  -5  293.70   23.45
  -5   5  -5  406.14   25.31
  -5   5  -5  402.16   26.16
  -5   5  -5  345.09   26.67
  -5   5  -5  350.68   22.01
  -5   5  -5  429.50   27.09
  -5   5  -5  281.85   23.03
   5  -5   5  355.08   24.55
   5  -5   5  272.71   23.28
   5  -5   5  316.31   26.08
  -5   5  -6   46.40   12.62
  -5   5  -6   64.94   15.32
  -5   5  -6   63.33   14.14
  -5   5  -6   33.27   11.60
  -5   5  -6   51.56   13.55
   5  -5   6   50.71   13.04
   5  -5   6   42.50   12.45
   5  -5   6   36.41   11.94
  -5   5  -7    4.32    7.45
  -5   5  -7    8.64    8.13
  -5   5  -7    3.22    8.04
  -5   5  -7    7.45    9.74
  -5   5  -7    5.25    8.55
   5  -5   7   -1.69    7.45
   5  -5   7    2.88    7.20
   5  -5   7    2.20    9.06
  -5   5  -8   15.16   10.08
  -5   5  -8    8.21    9.31
  -5   5  -8    6.43    9.23
  -5   5  -8   20.15   12.62
  -5   5  -8    0.08   12.53
   5  -5   8    1.86    7.87
   5  -5   8    6.27    7.96
   5  -5   8    6.35   10.16
  -5   5  -9    4.91    9.65
  -5   5  -9   10.84    9.99
   5  -5   9   13.46   11.68
  -5   5 -10    8.72   12.53
  -5   5 -10    5.25   12.02
   5  -5  10   10.84   12.11
  -5   5 -11   59.01   18.71
   5  -5  11   41.99   17.02
  -5   4  10   17.36   13.89
  -5   4  10   19.64   13.80
  -5   4  10   18.63    9.14
   5  -4 -10   32.93   17.44
   5  -4 -10   10.50   12.95
  -5   4   9  136.14   25.65
  -5   4   9  209.12   30.56
  -5   4   9  177.71   16.59
   5  -4  -9  226.48   28.02
   5  -4  -9  141.81   24.98
  -5   4   8   35.14   14.48
  -5   4   8   26.58   13.38
  -5   4   8   26.84   12.53
  -5   4   8   31.33    8.72
   5  -4  -8   31.24   14.56
   5  -4  -8   26.84   12.95
  -5   4   7  113.45   21.76
  -5   4   7  166.79   20.40
  -5   4   7  155.19   22.69
   5  -4  -7  195.49   22.35
   5  -4  -7  148.08   23.54
  -5   4   6   62.99   16.09
  -5   4   6   79.92   13.29
  -5   4   6   81.70   16.68
  -5   4   6   99.48   18.80
  -5   4   6   89.58   17.61
  -5   4   6   88.31    9.99
   5  -4  -6   87.88   16.93
   5  -4  -6   57.91   14.73
   5  -4  -6   95.93   14.73
  -5   4   5  271.60   23.79
  -5   4   5  318.76   21.34
  -5   4   5  292.09   23.62
  -5   4   5  342.13   24.81
  -5   4   5  308.77   24.72
  -5   4   5  330.11   15.49
  -5   4   5  331.38   21.76
   5  -4  -5  379.38   24.04
   5  -4  -5  228.68   21.08
   5  -4  -5  229.61   18.29
  -5   4   4  166.20   17.61
  -5   4   4  230.37   18.80
  -5   4   4  202.18   19.22
  -5   4   4  212.34   19.81
  -5   4   4  205.40   20.40
  -5   4   4  217.93   12.62
  -5   4   4  202.77   17.95
   5  -4  -4  259.07   19.22
   5  -4  -4  149.09   16.76
   5  -4  -4  140.80   15.07
  -5   4   3   29.04   10.58
  -5   4   3   33.36    9.40
  -5   4   3   30.56   11.01
  -5   4   3   60.54   12.70
  -5   4   3   39.12    8.04
  -5   4   3   42.50   12.02
  -5   4   3   61.13    8.55
  -5   4   3   38.86    9.91
   5  -4  -3   48.94    9.91
   5  -4  -3   30.65    9.40
   5  -4  -3   34.80    8.04
  -5   4   2  183.55   16.93
  -5   4   2  215.30   18.03
  -5   4   2  221.99   18.54
  -5   4   2  266.69   19.13
  -5   4   2  230.88   15.16
  -5   4   2  247.90   20.49
  -5   4   2  261.61   14.31
  -5   4   2  214.29   18.03
   5  -4  -2  267.46   14.73
   5  -4  -2  245.61   19.47
   5  -4  -2  177.88   15.92
   5  -4  -2  206.41   14.82
  -5   4   1   18.12    7.79
  -5   4   1   16.76    6.94
  -5   4   1   17.86    8.13
  -5   4   1   23.71    8.04
  -5   4   1   16.00    6.27
  -5   4   1   23.45    9.23
  -5   4   1   28.87    6.86
  -5   4   1   17.78    7.79
   5  -4  -1   33.53    6.01
   5  -4  -1   27.09    8.97
   5  -4  -1   18.37    7.87
   5  -4  -1   24.21    7.37
  -5   4   0  100.58   15.24
  -5   4   0  108.12   15.92
  -5   4   0  150.45   14.90
  -5   4   0  163.15   14.14
  -5   4   0  106.51   12.02
  -5   4   0  121.32   17.19
  -5   4   0  155.61   12.62
  -5   4   0  113.96   13.38
   5  -4   0  127.42   15.07
   5  -4   0   94.91   15.07
   5  -4   0  109.22   12.45
  -5   4  -1  357.03   22.44
  -5   4  -1  466.00   25.40
  -5   4  -1  499.27   23.03
  -5   4  -1  366.43   21.50
  -5   4  -1  431.03   24.47
  -5   4  -1  510.44   22.61
  -5   4  -1  330.28   21.59
   5  -4   1  436.70   24.89
   5  -4   1  318.76   22.10
   5  -4   1  374.30   21.84
  -5   4  -2  117.60   14.65
  -5   4  -2  190.50   17.44
  -5   4  -2   18.71    6.35
  -5   4  -2  156.04   15.83
  -5   4  -2  137.83   14.90
  -5   4  -2  181.61   15.32
  -5   4  -2  137.16   15.58
   5  -4   2  158.07   16.26
   5  -4   2  110.66   16.34
   5  -4   2  128.27   14.90
  -5   4  -3   31.58   10.41
  -5   4  -3   72.22   13.72
  -5   4  -3   -1.02    2.12
  -5   4  -3   39.03   10.24
  -5   4  -3   37.42   10.41
  -5   4  -3   64.43   12.28
  -5   4  -3   55.37   12.53
   5  -4   3   63.75   13.29
   5  -4   3   34.46    9.57
   5  -4   3   52.49   12.62
  -5   4  -4   46.90   11.85
  -5   4  -4   81.45   14.73
  -5   4  -4   -1.10    2.29
  -5   4  -4   49.61   12.87
  -5   4  -4   58.33   11.60
  -5   4  -4   83.48   14.65
  -5   4  -4   36.91   10.75
   5  -4   4   49.02   11.43
   5  -4   4   45.47   11.85
   5  -4   4   55.12   13.29
  -5   4  -5  107.10   17.19
  -5   4  -5  138.85   19.47
  -5   4  -5   44.79   10.58
  -5   4  -5  116.24   18.96
  -5   4  -5  129.71   13.80
  -5   4  -5  161.37   17.69
  -5   4  -5  125.64   18.03
   5  -4   5  134.70   15.58
   5  -4   5   94.57   16.09
   5  -4   5  123.27   19.39
   5  -4   5  136.90   14.39
  -5   4  -6   85.34   15.66
  -5   4  -6  106.25   17.95
  -5   4  -6  108.62   16.42
  -5   4  -6   64.09   14.90
  -5   4  -6  127.93   21.59
  -5   4  -6   75.10   14.39
   5  -4   6   81.45   15.24
   5  -4   6   78.82   15.41
   5  -4   6   80.77   16.68
  -5   4  -7   77.38   15.41
  -5   4  -7   82.63   17.02
  -5   4  -7  105.24   17.19
  -5   4  -7   63.33   16.09
  -5   4  -7   67.65   14.22
   5  -4   7   76.45   16.00
   5  -4   7   52.24   12.87
   5  -4   7   56.89   14.65
  -5   4  -8   96.77   18.54
  -5   4  -8  115.31   19.22
  -5   4  -8   94.99   19.56
   5  -4   8  109.22   19.47
   5  -4   8   86.10   19.13
  -5   4  -9   14.14   11.09
  -5   4  -9    6.43    9.74
  -5   4  -9   -3.30   10.24
   5  -4   9   -1.69    8.04
   5  -4   9   -1.02    8.55
  -5   4 -10   13.21   17.78
  -5   4 -10   10.33   13.29
   5  -4  10   13.21   12.02
  -5   4 -11    8.97   14.14
   5  -4  11    8.97   11.01
  -5   3  11    3.89   10.92
  -5   3  11    0.00   12.19
  -5   3  11   16.59    8.72
   5  -3 -11   -0.93   14.22
   5  -3 -11   12.19   12.45
   5  -3 -11    3.13   13.97
  -5   3  10  106.09   22.86
  -5   3  10  147.23   26.92
  -5   3  10  140.54   14.82
   5  -3 -10  171.19   28.79
   5  -3 -10  112.77   22.86
  -5   3   9   41.40   14.99
  -5   3   9   84.66   19.56
  -5   3   9   66.89   10.58
   5  -3  -9   91.35   20.83
   5  -3  -9   46.40   15.66
  -5   3   8   52.58   15.75
  -5   3   8   57.83   14.82
  -5   3   8   66.12   15.24
  -5   3   8   55.46    8.97
   5  -3  -8   61.13   16.17
   5  -3  -8   44.03   14.65
  -5   3   7   77.30   16.42
  -5   3   7  119.04   20.23
  -5   3   7  111.25   19.13
  -5   3   7  115.82   19.05
  -5   3   7  114.89    9.23
   5  -3  -7  144.10   21.17
   5  -3  -7   96.86   18.71
  -5   3   6   84.66   16.42
  -5   3   6  115.91   12.95
  -5   3   6   97.36   18.03
  -5   3   6  129.20   19.64
  -5   3   6   96.52   17.02
  -5   3   6  115.31    7.96
  -5   3   6  104.22   12.62
   5  -3  -6  144.52   19.90
   5  -3  -6   85.09   16.85
   5  -3  -6  107.02   14.90
  -5   3   5  181.10   19.05
  -5   3   5  246.04   18.37
  -5   3   5  216.23   19.39
  -5   3   5  242.73   20.83
  -5   3   5  235.11   14.90
  -5   3   5  196.76   19.30
  -5   3   5  264.58   10.08
  -5   3   5  255.01    9.82
  -5   3   5  238.25   18.20
   5  -3  -5  279.65   19.98
   5  -3  -5  167.72   17.19
   5  -3  -5  211.15   17.27
   5  -3  -5  218.52   14.65
  -5   3   4   72.22   14.65
  -5   3   4   62.99   11.85
  -5   3   4   77.38   14.48
  -5   3   4   69.34   12.95
  -5   3   4   82.89   10.16
  -5   3   4   70.95   14.48
  -5   3   4   97.03    6.69
  -5   3   4   94.06    6.52
  -5   3   4   74.25   12.62
   5  -3  -4  114.89   13.29
   5  -3  -4   66.55   12.02
   5  -3  -4   89.91   10.50
  -5   3   3  140.29   14.73
  -5   3   3  186.26   16.00
  -5   3   3  189.73   17.53
  -5   3   3  191.43   16.00
  -5   3   3  201.08   13.89
  -5   3   3  183.38   17.44
  -5   3   3  194.05    9.31
  -5   3   3  214.63    9.74
  -5   3   3  191.43   16.26
   5  -3  -3  210.90   14.05
   5  -3  -3  122.17   13.63
   5  -3  -3  173.48   13.21
  -5   3   2   53.85   11.26
  -5   3   2   74.08   12.53
  -5   3   2   58.08   11.43
  -5   3   2   52.24    9.82
  -5   3   2   60.28   10.24
  -5   3   2   71.46   13.21
  -5   3   2   58.93    6.86
  -5   3   2   72.39    7.20
  -5   3   2   53.51   10.75
   5  -3  -2   70.78    8.89
   5  -3  -2   57.23   11.60
   5  -3  -2   46.57    9.91
   5  -3  -2   59.77   10.08
  -5   3   1  179.66   16.17
  -5   3   1  141.47   14.48
  -5   3   1  208.02   16.68
  -5   3   1  209.04   15.07
  -5   3   1  143.68   14.22
  -5   3   1  184.74   11.35
  -5   3   1  226.65   12.45
  -5   3   1  155.87   14.99
   5  -3  -1  217.84    8.97
   5  -3  -1  191.00   16.85
   5  -3  -1  170.68   15.75
   5  -3  -1  183.81   14.90
  -5   3   0  390.98   22.10
  -5   3   0  360.84   21.34
  -5   3   0  458.46   23.88
  -5   3   0  533.98   21.08
  -5   3   0  397.42   20.91
  -5   3   0  464.30   24.38
  -5   3   0  500.54   19.56
  -5   3   0  370.15   21.59
   5  -3   0  451.35   23.79
   5  -3   0  432.21   23.54
   5  -3   0  376.08   20.66
  -5   3  -1   39.03   10.16
  -5   3  -1   62.31   12.11
  -5   3  -1   58.93    9.23
  -5   3  -1   46.48   10.24
  -5   3  -1   38.61    9.48
  -5   3  -1   52.07    9.06
  -5   3  -1   32.26    9.23
   5  -3   1   51.65   11.51
   5  -3   1   35.64    9.57
   5  -3   1   30.99    8.97
  -5   3  -2  123.36   14.05
  -5   3  -2  146.89   14.48
  -5   3  -2  152.90   12.19
  -5   3  -2  121.16   14.05
  -5   3  -2  152.99   14.73
  -5   3  -2  164.00   13.97
  -5   3  -2  144.18   14.90
   5  -3   2  132.75   14.82
   5  -3   2   93.55   14.48
   5  -3   2  117.85   13.12
  -5   3  -3  193.37   17.10
  -5   3  -3  235.28   18.20
  -5   3  -3  264.58   16.09
  -5   3  -3  185.84   17.86
  -5   3  -3  193.88   16.17
  -5   3  -3  233.67   17.53
  -5   3  -3  189.73   17.10
   5  -3   3  180.51   17.02
   5  -3   3  178.05   16.85
   5  -3   3  170.09   17.27
   5  -3   3  240.11   17.86
  -5   3  -4   62.06   12.36
  -5   3  -4   66.04   13.97
  -5   3  -4   75.18   11.35
  -5   3  -4   59.10   13.21
  -5   3  -4   70.44   12.19
  -5   3  -4   46.23   10.84
  -5   3  -4   59.69   12.45
   5  -3   4   50.71   11.60
   5  -3   4   46.90   11.01
   5  -3   4   55.54   12.78
   5  -3   4   86.02   13.46
  -5   3  -5   20.57    8.72
  -5   3  -5   21.76    9.82
  -5   3  -5   21.50    7.87
  -5   3  -5   21.84   10.50
  -5   3  -5   20.15    8.21
  -5   3  -5   28.62   10.24
  -5   3  -5   19.98    8.38
   5  -3   5   15.07    8.97
   5  -3   5   13.46    7.62
   5  -3   5   17.19    8.89
   5  -3   5   12.53    7.70
  -5   3  -6   76.54   13.80
  -5   3  -6  117.26   19.13
  -5   3  -6  118.70   16.51
  -5   3  -6   87.20   17.19
  -5   3  -6  108.62   17.27
  -5   3  -6   69.26   13.04
   5  -3   6  103.97   18.20
   5  -3   6   89.91   15.16
   5  -3   6   79.42   15.83
   5  -3   6  107.52   18.63
  -5   3  -7  129.45   17.95
  -5   3  -7  114.81   19.81
  -5   3  -7   38.27   10.41
  -5   3  -7  107.69   19.90
  -5   3  -7  128.01   15.66
   5  -3   7  152.14   22.18
   5  -3   7   93.55   15.24
   5  -3   7  147.91   23.03
  -5   3  -8   13.04   10.67
  -5   3  -8   -1.19    5.00
  -5   3  -8   10.75   11.51
   5  -3   8   14.73    8.81
   5  -3   8    9.23   10.16
  -5   3  -9   82.55   19.22
  -5   3  -9   63.92   18.03
   5  -3   9   59.01   15.32
   5  -3   9   51.22   16.42
  -5   3 -10   -0.59   11.60
  -5   3 -10   -6.35    9.65
   5  -3  10    3.64   10.16
   5  -3  10    6.77   10.08
  -5   3 -11    3.98   16.68
  -5   3 -11    6.69   13.21
   5  -3  11   14.73   12.28
  -5   2  12    0.17    9.31
  -5   2  12    5.16    7.37
   5  -2 -12   -1.02   14.14
   5  -2 -12   -3.98   15.32
   5  -2 -12    3.89   13.55
  -5   2  11   79.42   19.98
  -5   2  11  105.75   24.30
  -5   2  11  119.38   14.22
   5  -2 -11  140.20   27.18
   5  -2 -11  106.93   22.18
   5  -2 -11  129.62   25.40
  -5   2  10   31.50   14.05
  -5   2  10   64.85   18.54
  -5   2  10   51.90    9.91
   5  -2 -10   60.20   18.03
   5  -2 -10   41.15   14.82
   5  -2 -10   70.95   19.47
  -5   2   9   26.58   12.28
  -5   2   9    9.57   10.92
  -5   2   9   18.80    5.84
   5  -2  -9   19.30   12.62
   5  -2  -9   15.49   10.67
  -5   2   8   50.54   13.89
  -5   2   8   74.84   17.27
  -5   2   8   58.67   13.97
  -5   2   8   62.14    6.77
   5  -2  -8   77.64   17.44
   5  -2  -8   63.08   15.49
  -5   2   7   18.03    8.55
  -5   2   7   21.59    7.96
  -5   2   7   11.77    8.97
  -5   2   7   16.34    9.48
  -5   2   7   20.74   10.67
  -5   2   7   19.90    2.79
  -5   2   7   20.23    8.30
   5  -2  -7   26.16   11.68
   5  -2  -7   19.98   10.16
   5  -2  -7   19.64    7.20
   5  -2  -7   15.49    7.70
  -5   2   6  191.43   17.95
  -5   2   6  199.47   19.30
  -5   2   6  281.09   19.13
  -5   2   6  233.42   20.49
  -5   2   6  273.21   22.10
  -5   2   6  285.24   18.03
  -5   2   6  242.99   16.76
  -5   2   6  248.07   20.49
  -5   2   6  264.92   18.80
   5  -2  -6  274.99   21.08
   5  -2  -6  179.57   18.37
   5  -2  -6  258.23   18.37
   5  -2  -6  242.82   16.76
   5  -2  -6  275.50   19.22
  -5   2   5   62.74   11.51
  -5   2   5   46.65   11.09
  -5   2   5   72.22   12.02
  -5   2   5   75.61   13.63
  -5   2   5   87.63   13.89
  -5   2   5   81.19   13.89
  -5   2   5   50.04    9.74
  -5   2   5   72.98   11.77
  -5   2   5   61.64   13.21
  -5   2   5   67.65   11.94
   5  -2  -5   76.37   12.70
   5  -2  -5   50.04   11.43
   5  -2  -5   71.88   12.02
   5  -2  -5   58.67   10.08
  -5   2   4   82.63   11.68
  -5   2   4   74.93   13.63
  -5   2   4   77.72   12.53
  -5   2   4   85.93   13.55
  -5   2   4  109.73   12.95
  -5   2   4  107.69   12.53
  -5   2   4   92.12   11.01
  -5   2   4   67.90   13.46
  -5   2   4   70.78   12.11
   5  -2  -4  105.66   11.94
   5  -2  -4   77.64   12.45
   5  -2  -4   73.66   11.26
  -5   2   3  138.00   10.75
  -5   2   3  127.00   13.97
  -5   2   3  176.70   15.16
  -5   2   3  178.05   16.00
  -5   2   3  178.81   15.58
  -5   2   3  177.97   14.39
  -5   2   3  154.94   12.95
  -5   2   3  148.93   15.24
  -5   2   3  159.93   14.56
   5  -2  -3  197.10   12.78
   5  -2  -3  168.14   15.66
   5  -2  -3  154.09   14.39
   5  -2  -3  161.63   13.80
  -5   2   2   63.67   11.94
  -5   2   2   86.10   12.95
  -5   2   2   92.54   13.97
  -5   2   2   81.02   13.04
  -5   2   2   75.78    8.81
  -5   2   2   71.97   11.09
  -5   2   2   74.00   12.70
  -5   2   2   85.93    5.93
  -5   2   2   72.56    5.67
  -5   2   2   80.26   12.45
   5  -2  -2   82.55    7.62
   5  -2  -2   59.86   11.85
   5  -2  -2   54.78   10.75
   5  -2  -2   69.17   10.92
  -5   2   1  723.46   29.04
  -5   2   1  724.31   28.96
  -5   2   1  950.02   32.85
  -5   2   1 1078.04   35.14
  -5   2   1  997.94   25.65
  -5   2   1  880.85   29.72
  -5   2   1  866.97   31.83
  -5   2   1 1008.87   22.35
  -5   2   1  798.22   19.81
  -5   2   1  750.47   29.46
   5  -2  -1 1012.51   16.34
   5  -2  -1  925.05   32.77
   5  -2  -1  867.73   31.58
   5  -2  -1  858.33   29.63
  -5   2   0   92.45   13.38
  -5   2   0  108.62   12.87
  -5   2   0  115.57    9.31
  -5   2   0  105.58   12.02
  -5   2   0  100.58   12.45
  -5   2   0  130.21   10.24
  -5   2   0   96.26    8.97
  -5   2   0   86.19   12.87
   5  -2   0  113.45   13.38
   5  -2   0   90.51   13.46
   5  -2   0  100.50   12.02
  -5   2  -1  137.07   13.89
  -5   2  -1  192.61   15.66
  -5   2  -1  194.81   11.09
  -5   2  -1  150.28   14.39
  -5   2  -1  138.77   13.21
  -5   2  -1  129.03   13.46
   5  -2   1  164.42   14.65
   5  -2   1  128.78   13.72
   5  -2   1  138.26   14.05
   5  -2   1  182.79   15.83
  -5   2  -2 1011.32   34.20
  -5   2  -2 1306.89   40.22
  -5   2  -2 1354.98   27.77
  -5   2  -2 1118.08   37.34
  -5   2  -2 1193.69   35.98
  -5   2  -2 1094.80   35.56
   5  -2   2 1251.52   39.03
   5  -2   2 1016.99   34.63
   5  -2   2 1130.28   37.59
   5  -2   2 1279.45   37.59
  -5   2  -3   20.83    4.23
  -5   2  -3   19.81    6.86
  -5   2  -3   15.83    7.96
  -5   2  -3   30.23    6.69
  -5   2  -3   23.62    9.06
  -5   2  -3   18.80    7.62
  -5   2  -3   27.94    8.47
  -5   2  -3   18.96    7.87
   5  -2   3   26.25    8.38
   5  -2   3   20.32    7.54
   5  -2   3   24.38    8.81
   5  -2   3   20.07    8.13
  -5   2  -4  536.86   20.15
  -5   2  -4  430.77   23.37
  -5   2  -4  508.33   27.85
  -5   2  -4  516.20   20.74
  -5   2  -4  439.58   26.58
  -5   2  -4  559.80   26.67
  -5   2  -4  445.25   23.71
   5  -2   4  449.57   25.65
   5  -2   4  395.64   22.44
   5  -2   4  466.67   27.35
   5  -2   4  508.75   24.81
  -5   2  -5   86.27   13.63
  -5   2  -5   72.47   14.99
  -5   2  -5   96.60   11.94
  -5   2  -5   71.37   15.07
  -5   2  -5  104.22   16.09
  -5   2  -5   75.27   12.70
   5  -2   5   80.35   15.58
   5  -2   5   57.83   11.26
   5  -2   5   66.55   14.48
   5  -2   5   88.47   14.14
  -5   2  -6  366.85   22.01
  -5   2  -6  431.96   28.62
  -5   2  -6  465.57   24.13
  -5   2  -6  429.50   29.21
  -5   2  -6  488.35   41.40
  -5   2  -6  388.27   22.52
   5  -2   6  404.44   26.84
   5  -2   6  343.82   21.67
   5  -2   6  361.01   27.01
  -5   2  -7   89.58   18.29
  -5   2  -7   75.69   17.10
   5  -2   7   74.25   16.17
   5  -2   7   61.04   15.32
  -5   2  -8  118.02   21.59
  -5   2  -8   71.03   17.44
   5  -2   8   82.89   17.61
   5  -2   8   83.31   18.80
  -5   2  -9   35.98   15.07
  -5   2  -9   28.87   14.05
   5  -2   9    5.67   10.08
   5  -2   9   18.46   11.43
  -5   2 -10   16.93   13.55
  -5   2 -10    8.64   12.62
   5  -2  10   18.63   13.38
   5  -2  10    6.52   10.50
  -5   2 -11   46.48   18.12
  -5   2 -11   40.13   17.61
   5  -2  11   35.39   16.51
   5  -2  11   32.51   14.82
  -5   1  12   13.12   14.65
  -5   1  12   23.71    8.97
   5  -1 -12   31.92   19.05
   5  -1 -12   28.36   15.66
  -5   1  11   28.79   15.41
  -5   1  11   23.79    7.70
   5  -1 -11   33.53   16.68
   5  -1 -11   25.57   15.07
   5  -1 -11   14.82   13.38
  -5   1  10   14.56   10.67
  -5   1  10    7.20    9.65
  -5   1  10    9.06   11.18
  -5   1  10   11.85    5.42
   5  -1 -10   15.58   11.43
   5  -1 -10   13.21   10.41
   5  -1 -10   30.14   12.45
  -5   1   9  268.90   26.16
  -5   1   9  236.72   22.61
  -5   1   9  338.15   29.04
  -5   1   9  319.10   12.87
   5  -1  -9  316.48   28.19
   5  -1  -9  294.13   24.55
   5  -1  -9  297.85   27.35
  -5   1   8   44.03   13.55
  -5   1   8   32.60   11.68
  -5   1   8   65.70   15.75
  -5   1   8   54.10   11.60
  -5   1   8   65.28   14.39
  -5   1   8   64.01    2.79
  -5   1   8   61.47    3.30
   5  -1  -8   71.80   16.34
   5  -1  -8   55.12   13.80
   5  -1  -8   65.78   15.75
   5  -1  -8   60.28   12.78
  -5   1   7   70.78   14.65
  -5   1   7   71.12   14.65
  -5   1   7   84.92   13.29
  -5   1   7   79.92   14.99
  -5   1   7  108.88   15.16
  -5   1   7  104.98   17.53
  -5   1   7   63.50   12.02
  -5   1   7   75.94   12.87
  -5   1   7   73.57   14.39
  -5   1   7   84.33   12.95
   5  -1  -7   94.23   16.26
   5  -1  -7   81.45   13.04
   5  -1  -7   52.75   12.62
   5  -1  -7   74.51   12.70
   5  -1  -7   74.76   12.70
   5  -1  -7   88.39   13.72
  -5   1   6   70.53   13.38
  -5   1   6   69.09   13.80
  -5   1   6   87.71   13.21
  -5   1   6   68.41   13.38
  -5   1   6   55.37   10.84
  -5   1   6  106.68   16.17
  -5   1   6   13.97    5.50
  -5   1   6   68.49   12.53
  -5   1   6   81.45   14.73
  -5   1   6   75.86   12.45
   5  -1  -6   69.51   13.21
   5  -1  -6   61.38   12.70
   5  -1  -6   72.90   12.45
   5  -1  -6   66.29   12.45
   5  -1  -6   84.50   13.55
  -5   1   5  145.37   14.65
  -5   1   5  111.08   13.72
  -5   1   5  165.18   14.73
  -5   1   5  156.80   14.73
  -5   1   5  171.36   15.92
  -5   1   5  169.67   15.49
  -5   1   5  189.99   15.41
  -5   1   5  153.16   13.97
  -5   1   5  123.36   14.39
  -5   1   5  181.52   15.83
   5  -1  -5  176.70   15.32
   5  -1  -5  171.11   15.41
   5  -1  -5  148.76   13.80
   5  -1  -5  156.12   15.32
  -5   1   4  399.53   19.22
  -5   1   4  361.10   21.17
  -5   1   4  388.95   21.34
  -5   1   4  443.39   23.11
  -5   1   4  499.95   24.30
  -5   1   4  504.86   22.44
  -5   1   4  473.61   22.52
  -5   1   4  454.06   22.01
  -5   1   4  487.84   24.72
  -5   1   4  416.30   22.18
   5  -1  -4  454.90   20.57
   5  -1  -4  506.21   24.72
   5  -1  -4  372.27   21.08
   5  -1  -4  424.51   21.34
   5  -1  -4  424.59   22.44
  -5   1   3   45.13    7.62
  -5   1   3   34.20    8.97
  -5   1   3   46.23    9.91
  -5   1   3   44.45    9.65
  -5   1   3   55.62   10.84
  -5   1   3   47.16    8.13
  -5   1   3   56.05   10.50
  -5   1   3   43.52    8.89
  -5   1   3   35.22    9.57
  -5   1   3   53.68   10.41
   5  -1  -3   46.65   10.16
   5  -1  -3   38.35    9.14
   5  -1  -3   29.97    8.30
  -5   1   2  154.17    9.40
  -5   1   2  135.04   13.38
  -5   1   2  135.89   13.38
  -5   1   2  183.47   14.99
  -5   1   2  184.91   14.90
  -5   1   2  181.94   11.18
  -5   1   2  175.09   14.22
  -5   1   2  128.86   12.78
  -5   1   2  181.86    6.86
  -5   1   2  157.14    6.52
  -5   1   2  168.06   14.73
   5  -1  -2  176.70   14.99
   5  -1  -2  189.56   15.58
   5  -1  -2  168.91   13.63
  -5   1   1  170.09    8.21
  -5   1   1  159.51   13.72
  -5   1   1  171.11   14.65
  -5   1   1  177.63   14.56
  -5   1   1  203.03   10.16
  -5   1   1  165.94   13.63
  -5   1   1  146.72   13.46
  -5   1   1  204.89   10.33
  -5   1   1  170.77    9.48
  -5   1   1  148.67   13.46
   5  -1  -1  148.50   14.14
   5  -1  -1  139.78   13.04
   5  -1  -1  146.13   13.63
   5  -1  -1  166.03   14.22
  -5   1   0   86.53    5.08
  -5   1   0   73.83   11.68
  -5   1   0   78.57   12.53
  -5   1   0   96.09   11.18
  -5   1   0   88.56    6.18
  -5   1   0   82.12   12.62
  -5   1   0   82.80   12.78
  -5   1   0  103.04    9.23
  -5   1   0   78.65    8.30
  -5   1   0   81.02   12.11
   5  -1   0   92.20   13.63
   5  -1   0   76.20   12.19
   5  -1   0   64.60   11.01
   5  -1   0   88.81   13.29
  -5   1  -1 1219.00   16.85
  -5   1  -1  968.65   32.77
  -5   1  -1 1203.85   37.34
  -5   1  -1 1323.40   38.18
  -5   1  -1 1350.57   19.73
  -5   1  -1 1076.85   34.97
  -5   1  -1 1138.74   35.39
  -5   1  -1 1321.36   32.34
  -5   1  -1 1018.69   33.53
   5  -1   1 1149.32   36.15
   5  -1   1  908.71   31.75
   5  -1   1 1083.03   35.47
   5  -1   1 1270.57   37.42
  -5   1  -2  423.75   12.53
  -5   1  -2  326.55   19.30
  -5   1  -2  399.53   22.52
  -5   1  -2  426.20   22.35
  -5   1  -2  441.02   12.95
  -5   1  -2  364.06   21.93
  -5   1  -2  408.34   22.01
  -5   1  -2  444.41   21.00
  -5   1  -2  365.41   20.74
   5  -1   2  363.47   21.50
   5  -1   2  322.49   19.56
   5  -1   2  315.29   20.15
   5  -1   2  404.02   22.01
  -5   1  -3  633.46   26.92
  -5   1  -3  743.19   32.09
  -5   1  -3  844.19   20.66
  -5   1  -3  580.38   28.45
  -5   1  -3  660.30   27.43
   5  -1   3  716.86   31.07
   5  -1   3  598.58   26.16
   5  -1   3  659.62   29.89
   5  -1   3  788.82   30.06
   5  -1   3  710.17   34.63
  -5   1  -4   38.01    7.70
  -5   1  -4   30.31    8.72
  -5   1  -4   42.67   11.77
  -5   1  -4   45.13    7.70
  -5   1  -4   37.51   10.92
  -5   1  -4   40.64    9.65
   5  -1   4   37.51   11.35
   5  -1   4   26.50    8.55
   5  -1   4   25.40    9.48
   5  -1   4   38.18   10.08
  -5   1  -5  468.54   23.79
  -5   1  -5  566.58   30.65
  -5   1  -5  571.49   23.03
  -5   1  -5  485.98   29.04
  -5   1  -5  561.24   28.36
  -5   1  -5  505.70   24.47
   5  -1   5  452.87   28.36
   5  -1   5  357.62   20.91
   5  -1   5  431.28   27.43
   5  -1   5  502.15   24.98
  -5   1  -6   24.89    9.48
  -5   1  -6   21.50    8.13
  -5   1  -6   11.51    8.81
  -5   1  -6   15.92    8.72
  -5   1  -6   24.04    8.30
   5  -1   6    8.47    9.06
   5  -1   6   23.11    8.21
   5  -1   6   19.98    9.48
   5  -1   6   14.31    7.45
  -5   1  -7   -0.34    8.38
  -5   1  -7    7.03    9.82
  -5   1  -7    3.64    8.81
   5  -1   7    7.37    9.31
   5  -1   7   -4.15    6.77
  -5   1  -8   51.73   15.58
  -5   1  -8   42.42   14.82
   5  -1   8   57.23   15.24
   5  -1   8   28.96   12.11
  -5   1  -9    8.30    9.82
  -5   1  -9    3.13    7.79
   5  -1   9    6.01   11.09
   5  -1   9    8.38    9.99
  -5   1 -10   51.81   18.96
  -5   1 -10   33.78   15.66
   5  -1  10   30.99   13.55
   5  -1  10   33.61   14.22
  -5   1 -11   15.66   15.49
  -5   1 -11   30.48   15.49
   5  -1  11    5.16   12.45
   5  -1  11    9.14   11.94
  -5   0  12   39.28   17.69
  -5   0  12   33.53   15.32
  -5   0  12   42.59   10.33
   5   0 -12   53.25   20.57
   5   0 -12   58.25   17.95
  -5   0  11   -4.40   10.67
  -5   0  11   -3.13    9.57
  -5   0  11    4.74    5.67
   5   0 -11    7.54   12.70
   5   0 -11    4.32   11.09
  -5   0  10   57.83   17.02
  -5   0  10   41.74   15.32
  -5   0  10   61.30    8.64
   5   0 -10   68.75   18.80
   5   0 -10   50.12   16.51
   5   0 -10   69.68   17.02
  -5   0   9  107.78   20.49
  -5   0   9   83.65   16.26
  -5   0   9  109.39   20.23
  -5   0   9   95.59   16.85
  -5   0   9  103.71    7.03
   5   0  -9  111.67   21.08
   5   0  -9   96.09   16.59
   5   0  -9   99.23   19.05
   5   0  -9  115.82   18.29
  -5   0   8  198.20   21.50
  -5   0   8  180.42   17.86
  -5   0   8  231.64   18.29
  -5   0   8  235.11   18.12
  -5   0   8  226.82   22.35
  -5   0   8  211.92   19.05
  -5   0   8  231.30   19.22
   5   0  -8  239.09   23.20
   5   0  -8  230.12   18.71
   5   0  -8  168.65   17.19
   5   0  -8  208.44   16.93
   5   0  -8  229.86   22.35
   5   0  -8  198.45   18.96
   5   0  -8  235.45   19.22
   5   0  -8  210.31   18.20
  -5   0   7  542.62   29.89
  -5   0   7  447.11   25.31
  -5   0   7  626.52   27.85
  -5   0   7  553.79   27.26
  -5   0   7    0.85    3.39
  -5   0   7  647.18   32.09
  -5   0   7  570.89   28.28
  -5   0   7  577.84   28.45
  -5   0   7  612.30   28.11
   5   0  -7  627.96   31.92
   5   0  -7  574.45   26.92
   5   0  -7  476.49   25.40
   5   0  -7  603.66   31.16
   5   0  -7  551.59   28.02
   5   0  -7  619.32   27.77
   5   0  -7  570.73   26.92
  -5   0   6   35.31   10.41
  -5   0   6   18.71    7.54
  -5   0   6   35.56    9.48
  -5   0   6   26.25    8.64
  -5   0   6   28.79    9.48
  -5   0   6   35.39   10.16
  -5   0   6   22.61    8.55
  -5   0   6   28.53    9.14
  -5   0   6   28.02    9.40
  -5   0   6   23.62    8.13
   5   0  -6   34.97    9.48
   5   0  -6   26.25    8.55
   5   0  -6   33.02    9.57
   5   0  -6   22.69    8.81
   5   0  -6   24.21    9.06
   5   0  -6   24.81    8.72
  -5   0   5  497.32   23.88
  -5   0   5  435.01   22.35
  -5   0   5  525.51   25.15
  -5   0   5  572.33   25.15
  -5   0   5  603.91   27.01
  -5   0   5  607.72   26.16
  -5   0   5  609.50   27.26
  -5   0   5  516.88   25.15
  -5   0   5  590.20   26.67
  -5   0   5  581.14   26.42
   5   0  -5  601.37   25.91
   5   0  -5  519.67   25.15
   5   0  -5  622.63   26.50
   5   0  -5  641.08   27.60
   5   0  -5  529.16   25.48
  -5   0   4    6.27    5.33
  -5   0   4    5.50    5.16
  -5   0   4    9.06    5.76
  -5   0   4    7.45    5.42
  -5   0   4    6.27    5.16
  -5   0   4    6.10    4.32
  -5   0   4    8.38    6.18
  -5   0   4    2.79    4.91
  -5   0   4    7.37    6.10
  -5   0   4    7.70    5.84
   5   0  -4    9.40    5.76
   5   0  -4    8.30    4.74
   5   0  -4    6.86    5.76
   5   0  -4    9.23    6.43
   5   0  -4   10.16    6.35
  -5   0   3  125.64   10.50
  -5   0   3   91.69   13.04
  -5   0   3   94.06   11.09
  -5   0   3  116.92   11.26
  -5   0   3  133.35   13.72
  -5   0   3  113.03    9.65
  -5   0   3  129.11   13.21
  -5   0   3   97.70   11.68
  -5   0   3   97.28   14.05
  -5   0   3  124.12   13.04
   5   0  -3  125.30   11.77
   5   0  -3  108.88   12.45
   5   0  -3  123.53   13.55
   5   0  -3  109.05   12.02
  -5   0   2   60.28    7.28
  -5   0   2   39.88    9.57
  -5   0   2   58.16   10.33
  -5   0   2   56.89   10.92
  -5   0   2   55.12    6.18
  -5   0   2   54.02   10.50
  -5   0   2   49.19    9.65
  -5   0   2   57.32   11.26
  -5   0   2   54.61    5.00
  -5   0   2   48.94    4.83
  -5   0   2   33.36    8.72
   5   0  -2   50.97    9.48
   5   0  -2   57.57   10.75
   5   0  -2   54.52   10.58
   5   0  -2   54.78   10.75
  -5   0   1  142.91    9.23
  -5   0   1  121.07   12.19
  -5   0   1  134.87   12.95
  -5   0   1  133.35   13.55
  -5   0   1  129.45    6.01
  -5   0   1  130.64   13.12
  -5   0   1  125.64   13.55
  -5   0   1  143.68    9.40
  -5   0   1  120.22    8.72
  -5   0   1  133.52   13.21
   5   0  -1  119.63   12.62
   5   0  -1  137.58    6.18
   5   0  -1  114.13   12.78
   5   0  -1  134.02   13.89
   5   0  -1  130.64   13.55
  -5   0   0   25.82    5.25
  -5   0   0   20.83    7.20
  -5   0   0   21.34    6.94
  -5   0   0   17.36    6.43
  -5   0   0   10.33    5.42
  -5   0   0   25.31    7.70
  -5   0   0   17.02    5.50
  -5   0   0   17.27    6.94
   5   0   0   18.12    7.54
   5   0   0   20.57    7.37
   5   0   0   19.47    6.94
   5   0   0   12.45    6.10
   5   0   0   17.86    7.20
  -5   0  -1  248.83   11.77
  -5   0  -1  249.93   17.19
  -5   0  -1  238.92   17.78
  -5   0  -1  277.79   18.20
  -5   0  -1  203.96   15.92
  -5   0  -1  293.96   16.59
  -5   0  -1  248.83   17.36
   5   0   1  254.42   18.20
   5   0   1  204.21   15.32
   5   0   1  226.31   17.36
   5   0   1  221.91   17.02
  -5   0  -2   19.98    5.42
  -5   0  -2   22.52    7.45
  -5   0  -2   29.55    9.31
  -5   0  -2   23.45    7.70
  -5   0  -2   27.52    3.47
  -5   0  -2   21.08    8.30
  -5   0  -2   31.33    8.55
  -5   0  -2   26.08    7.87
   5   0   2   26.50    9.06
   5   0   2   15.41    6.77
   5   0   2   22.69    8.21
   5   0   2   19.47    8.13
   5   0   2   24.55    7.03
  -5   0  -3  197.02   13.12
  -5   0  -3  174.66   15.24
  -5   0  -3  183.98   16.85
  -5   0  -3  185.59   15.32
  -5   0  -3  183.38   14.05
  -5   0  -3  157.65   16.09
  -5   0  -3  208.78   16.85
  -5   0  -3  180.67   15.58
   5   0   3  144.95   16.17
   5   0   3  144.69   13.80
   5   0   3  142.41   14.65
   5   0   3  148.59   15.16
  -5   0  -4  301.75   17.69
  -5   0  -4  267.29   18.20
  -5   0  -4  251.37   21.50
  -5   0  -4  280.58   21.59
  -5   0  -4  306.99   21.17
  -5   0  -4  276.60   18.54
   5   0   4  237.23   20.91
   5   0   4    2.20    2.79
   5   0   4  238.08   20.15
   5   0   4  262.55   19.47
   5   0   4  264.49   18.54
  -5   0  -5  206.92   17.02
  -5   0  -5  202.01   16.17
  -5   0  -5  178.98   20.15
  -5   0  -5  189.65   19.39
  -5   0  -5  216.83   16.59
   5   0   5  191.09   20.57
   5   0   5  153.75   13.97
   5   0   5  185.75   18.96
   5   0   5  187.28   18.20
   5   0   5  224.95   17.19
  -5   0  -6   12.87    8.13
  -5   0  -6    6.94    9.31
  -5   0  -6    9.23    7.20
   5   0   6    4.49    8.64
   5   0   6    8.64    8.47
   5   0   6    4.83    6.69
  -5   0  -7  152.14   20.49
  -5   0  -7  174.16   20.83
  -5   0  -7  130.64   20.57
   5   0   7  153.16   24.21
   5   0   7  161.63   22.94
  -5   0  -8   18.37   10.84
  -5   0  -8   15.75   10.50
  -5   0  -8   12.62   10.92
   5   0   8   15.92   11.77
   5   0   8   16.68   10.50
  -5   0  -9    8.55   10.67
  -5   0  -9   11.09   11.01
   5   0   9    9.91   12.11
   5   0   9    7.54    9.74
  -5   0 -10    4.91   12.78
   5   0  10    0.68   11.85
  -5  -1  12   -1.78   11.85
  -5  -1  12    5.84    6.43
   5   1 -12   -8.13   12.36
   5   1 -12   10.41   13.80
  -5  -1  11    7.37   10.24
  -5  -1  11   -4.66    9.82
  -5  -1  11    4.40    8.47
  -5  -1  11    1.44    5.50
   5   1 -11    0.17    9.65
   5   1 -11    7.37   11.43
   5   1 -11    3.98   10.24
  -5  -1  10  111.42   22.35
  -5  -1  10  102.44   21.00
  -5  -1  10  100.41   18.29
  -5  -1  10  106.09    9.82
   5   1 -10  151.55   26.08
   5   1 -10   99.06   20.23
   5   1 -10  139.70   22.44
  -5  -1   9    4.15    9.65
  -5  -1   9   -0.25    8.81
  -5  -1   9   10.58    8.38
  -5  -1   9    6.10    3.30
   5   1  -9    7.45   10.41
   5   1  -9    8.72    8.21
   5   1  -9   -0.08    7.96
  -5  -1   8  328.92   26.16
  -5  -1   8  272.71   19.30
  -5  -1   8   18.46    6.86
  -5  -1   8  315.29   25.15
  -5  -1   8  334.51   24.38
  -5  -1   8  447.28   36.15
   5   1  -8  363.80   23.62
   5   1  -8  301.07   19.98
   5   1  -8  430.69   28.53
   5   1  -8  337.90   24.81
   5   1  -8  368.55   23.88
  -5  -1   7    3.05    7.70
  -5  -1   7    1.27    5.33
  -5  -1   7    7.62    7.11
  -5  -1   7   -2.29    5.59
  -5  -1   7    3.81    6.18
  -5  -1   7    0.51    7.20
  -5  -1   7    2.29    6.69
  -5  -1   7    4.15    6.77
  -5  -1   7   11.35    7.45
   5   1  -7    8.97    6.60
   5   1  -7    0.85    7.03
   5   1  -7    5.42    5.67
   5   1  -7    9.31    7.70
   5   1  -7    5.00    7.54
   5   1  -7    4.66    6.69
   5   1  -7    3.30    7.20
  -5  -1   6 1042.82   37.76
  -5  -1   6  890.25   30.23
  -5  -1   6 1070.59   36.83
  -5  -1   6 1056.19   32.34
  -5  -1   6 1105.98   37.59
  -5  -1   6 1101.40   37.25
  -5  -1   6 1097.51   38.95
  -5  -1   6 1054.16   37.85
  -5  -1   6 1202.75   37.17
   5   1  -6 1205.63   34.80
   5   1  -6 1031.22   36.41
   5   1  -6  890.42   29.89
   5   1  -6 1342.02   40.89
   5   1  -6  976.52   36.66
   5   1  -6 1230.77   37.42
   5   1  -6 1107.59   37.68
  -5  -1   5  265.09   18.63
  -5  -1   5  219.62   15.32
  -5  -1   5  265.59   19.05
  -5  -1   5  241.89   15.49
  -5  -1   5  308.77   20.49
  -5  -1   5  246.71   18.46
  -5  -1   5  249.00   18.29
  -5  -1   5  254.59   18.20
   5   1  -5  281.85   17.02
   5   1  -5  219.37   17.78
   5   1  -5  277.53   17.44
   5   1  -5  271.60   18.54
   5   1  -5  264.07   19.39
  -5  -1   4  187.79   14.56
  -5  -1   4  205.74   16.76
  -5  -1   4    0.34    2.20
  -5  -1   4  231.73   17.86
  -5  -1   4  208.70   13.80
  -5  -1   4  225.97   17.95
  -5  -1   4  191.60   15.75
  -5  -1   4  212.34   16.76
  -5  -1   4  182.79   15.92
   5   1  -4  203.79   14.48
   5   1  -4  183.72   16.34
   5   1  -4  255.86   15.07
   5   1  -4  216.83   16.68
   5   1  -4  238.84   18.20
  -5  -1   3   40.22    8.55
  -5  -1   3   40.89    9.82
  -5  -1   3   40.98    8.55
  -5  -1   3   35.56    9.40
  -5  -1   3   36.24    9.06
  -5  -1   3   31.24    8.30
  -5  -1   3   27.01    8.55
  -5  -1   3   36.83    3.98
  -5  -1   3   36.83    4.06
  -5  -1   3   28.62    8.64
   5   1  -3   44.28    8.81
   5   1  -3   53.51   11.35
   5   1  -3   59.43    8.13
   5   1  -3   40.72    9.31
   5   1  -3   45.55   10.33
   5   1  -3   57.57   11.43
  -5  -1   2  556.08   20.57
  -5  -1   2  466.33   23.71
  -5  -1   2  583.00   23.62
  -5  -1   2  561.92   25.57
  -5  -1   2  641.59   27.69
  -5  -1   2  548.88   25.48
  -5  -1   2  561.50   16.26
  -5  -1   2  529.24   15.75
  -5  -1   2  543.80   25.40
   5   1  -2  536.52   22.77
   5   1  -2  644.72   15.32
   5   1  -2  515.78   24.89
   5   1  -2  572.25   25.91
   5   1  -2  515.27   24.98
  -5  -1   1  164.25   11.68
  -5  -1   1  146.47   14.22
  -5  -1   1  163.91   13.89
  -5  -1   1  163.32   14.22
  -5  -1   1  189.14   15.32
  -5  -1   1  167.47   15.07
  -5  -1   1  182.11   11.43
  -5  -1   1  159.76   10.84
  -5  -1   1  154.43   14.56
   5   1  -1  173.73   13.72
   5   1  -1  145.54   13.63
   5   1  -1  166.45   15.41
   5   1  -1  172.80   15.49
  -5  -1   0  203.20   12.70
  -5  -1   0  198.96   16.09
  -5  -1   0  197.52   15.07
  -5  -1   0  201.67   16.26
  -5  -1   0  164.08   14.39
  -5  -1   0  216.40   13.97
  -5  -1   0  199.64   16.00
   5   1   0  190.67   15.49
   5   1   0  168.31   15.24
   5   1   0  199.81   16.68
   5   1   0  214.96   16.68
  -5  -1  -1   31.16    6.86
  -5  -1  -1   25.23    8.04
  -5  -1  -1   23.28    8.47
  -5  -1  -1   24.21    7.96
  -5  -1  -1   18.71    6.69
  -5  -1  -1   21.93    7.11
  -5  -1  -1   18.46    7.20
   5   1   1   18.37    7.79
   5   1   1   26.16    8.47
   5   1   1   23.88    7.87
   5   1   1   18.71    7.62
  -5  -1  -2   65.45   10.24
  -5  -1  -2   62.82   11.26
  -5  -1  -2   63.08   12.36
  -5  -1  -2   65.28   11.51
  -5  -1  -2   53.34   11.43
  -5  -1  -2   87.63   13.21
  -5  -1  -2   46.48    9.74
   5   1   2   56.13   12.53
   5   1   2   57.91   11.77
   5   1   2   54.44   11.85
   5   1   2   64.35   11.43
  -5  -1  -3  515.02   23.03
  -5  -1  -3  452.87   22.61
  -5  -1  -3  472.09   27.43
  -5  -1  -3  561.24   25.23
  -5  -1  -3  440.34   25.31
  -5  -1  -3  570.56   26.92
  -5  -1  -3  475.90   23.11
   5   1   3  461.85   27.01
   5   1   3  416.21   21.76
   5   1   3  472.09   26.16
   5   1   3  433.74   24.81
   5   1   3  482.50   23.37
  -5  -1  -4  197.86   16.93
  -5  -1  -4  189.40   15.24
  -5  -1  -4  205.31   19.39
  -5  -1  -4  240.87   17.36
  -5  -1  -4  179.32   17.10
  -5  -1  -4  225.29   19.30
  -5  -1  -4  178.05   14.90
   5   1   4  156.12   17.19
   5   1   4  178.39   17.02
   5   1   4  188.97   18.12
   5   1   4  189.56   15.58
  -5  -1  -5   10.41    7.54
  -5  -1  -5   30.73    8.72
  -5  -1  -5   19.13    9.48
  -5  -1  -5   23.96    9.14
  -5  -1  -5   33.27   11.26
  -5  -1  -5   19.56    7.54
   5   1   5   16.93    9.99
   5   1   5   21.17    8.13
   5   1   5   24.13    7.87
   5   1   5   17.10    8.89
   5   1   5   33.95   11.35
   5   1   5   18.29    8.30
  -5  -1  -6  187.79   19.22
  -5  -1  -6  180.51   25.40
  -5  -1  -6  186.43   20.07
   5   1   6  160.78   19.56
   5   1   6  158.15   18.54
   5   1   6  182.62   18.80
  -5  -1  -7   20.66   10.92
  -5  -1  -7   16.09   12.53
  -5  -1  -7   31.50   12.28
   5   1   7   19.90   12.36
   5   1   7   27.01   11.35
  -5  -1  -8   11.68   11.51
  -5  -1  -8   16.17   13.04
  -5  -1  -8   17.02   10.50
   5   1   8    5.25   10.41
   5   1   8    6.94    8.89
  -5  -1  -9   42.76   15.83
  -5  -1  -9   29.29   16.00
   5   1   9   34.29   15.75
  -5  -1 -10   21.76   13.55
   5   1  10   19.64   15.24
  -5  -2  13   34.80   18.80
  -5  -2  13   23.88    9.82
   5   2 -13   39.12   20.74
   5   2 -13   62.74   20.91
  -5  -2  12  110.83   23.62
  -5  -2  12  124.80   22.61
  -5  -2  12  114.38   14.22
   5   2 -12  180.84   30.65
   5   2 -12  168.23   29.29
   5   2 -12  145.71   25.06
  -5  -2  11  115.82   23.11
  -5  -2  11  119.72   21.59
  -5  -2  11  125.39   12.95
   5   2 -11  189.99   29.55
   5   2 -11  182.28   28.45
   5   2 -11  120.56   22.69
  -5  -2  10    9.91    9.74
  -5  -2  10   22.86   10.75
  -5  -2  10    8.55    5.25
   5   2 -10   24.30   11.94
   5   2 -10   15.24   10.16
   5   2 -10   20.23   11.35
  -5  -2   9    1.35    8.81
  -5  -2   9    1.86    4.66
  -5  -2   9   10.75    9.23
  -5  -2   9    4.74    3.98
   5   2  -9   14.31    8.89
   5   2  -9    3.13    8.81
   5   2  -9   10.75    7.96
   5   2  -9    7.70    7.96
  -5  -2   8  169.33   20.32
  -5  -2   8  175.93   17.78
  -5  -2   8  176.02   19.47
  -5  -2   8  175.26   18.37
  -5  -2   8  163.40    8.64
   5   2  -8  173.22   17.95
   5   2  -8  186.09   20.15
   5   2  -8  171.19   18.54
   5   2  -8  160.10   17.78
  -5  -2   7  173.73   19.30
  -5  -2   7  162.47   14.56
  -5  -2   7  192.27   16.76
  -5  -2   7  182.88   17.86
  -5  -2   7  186.52   19.30
  -5  -2   7  186.43   19.13
  -5  -2   7  171.53    6.94
  -5  -2   7  186.35    7.28
   5   2  -7  229.70   15.83
   5   2  -7  162.81   17.19
   5   2  -7  168.23   13.55
   5   2  -7  226.73   19.81
   5   2  -7  179.15   19.47
   5   2  -7  215.56   17.36
   5   2  -7  155.70   17.27
  -5  -2   6  478.61   27.09
  -5  -2   6  406.39   19.30
  -5  -2   6  576.48   28.79
  -5  -2   6  452.36   20.15
  -5  -2   6  490.97   26.84
  -5  -2   6  536.69   29.12
  -5  -2   6  523.74   28.79
  -5  -2   6  425.61    9.31
  -5  -2   6  498.08   10.08
   5   2  -6  483.18   20.83
   5   2  -6  501.55   27.26
   5   2  -6  602.39   27.43
   5   2  -6  537.20   29.46
   5   2  -6  493.17   24.30
   5   2  -6  551.42   29.21
  -5  -2   5   35.14    9.82
  -5  -2   5   34.12    9.74
  -5  -2   5   53.85    9.14
  -5  -2   5   32.00    9.48
  -5  -2   5   47.33   11.68
  -5  -2   5   63.16   12.45
  -5  -2   5   36.32    4.15
  -5  -2   5   46.48    4.40
   5   2  -5   50.38    9.06
   5   2  -5   38.18   10.58
   5   2  -5   52.75   10.24
   5   2  -5   48.68   11.01
   5   2  -5   46.82   10.50
   5   2  -5   49.61   11.77
  -5  -2   4  216.83   16.68
  -5  -2   4  235.20   18.46
  -5  -2   4  221.31   14.31
  -5  -2   4  213.86   17.19
  -5  -2   4  222.25   18.54
  -5  -2   4  209.46   18.03
  -5  -2   4  203.36    9.40
  -5  -2   4  198.12    9.14
   5   2  -4  212.42   13.97
   5   2  -4  198.20   17.69
   5   2  -4  249.68   14.90
   5   2  -4  199.89   16.68
   5   2  -4  208.95   18.12
  -5  -2   3  286.17   17.61
  -5  -2   3  267.29   19.39
  -5  -2   3  261.61   15.32
  -5  -2   3  290.91   20.23
  -5  -2   3  289.98   20.40
  -5  -2   3  306.49   20.07
  -5  -2   3  284.81   12.62
  -5  -2   3  270.59   12.19
   5   2  -3  296.67   16.51
   5   2  -3  266.78   19.47
   5   2  -3  345.43   14.65
   5   2  -3  267.37   19.56
   5   2  -3  292.01   19.64
   5   2  -3  258.23   19.39
  -5  -2   2   28.53    7.62
  -5  -2   2   22.94    7.96
  -5  -2   2   38.01    8.47
  -5  -2   2   27.85    8.04
  -5  -2   2   21.42    8.30
  -5  -2   2   21.25    8.13
  -5  -2   2   31.24    6.52
  -5  -2   2   21.08    5.50
   5   2  -2   28.19    7.54
   5   2  -2   27.09    8.81
   5   2  -2   27.35    4.74
   5   2  -2   21.08    8.04
   5   2  -2   31.66    9.40
   5   2  -2   21.25    8.30
  -5  -2   1   20.23    6.69
  -5  -2   1   19.73    7.79
  -5  -2   1   18.46    6.86
  -5  -2   1    8.04    5.50
  -5  -2   1   16.17    6.60
  -5  -2   1    7.28    5.93
  -5  -2   1   16.68    5.59
   5   2  -1   10.84    6.01
   5   2  -1    1.10    5.42
   5   2  -1   18.54    2.37
   5   2  -1   18.46    2.29
   5   2  -1   12.45    6.10
   5   2  -1    8.97    5.84
   5   2  -1    5.33    6.10
  -5  -2   0   88.98   10.41
  -5  -2   0   80.85   12.87
  -5  -2   0  100.07   14.14
  -5  -2   0  100.84   14.39
  -5  -2   0  100.24   14.48
  -5  -2   0  104.05   11.18
   5   2   0   95.08   11.18
   5   2   0   88.47   13.80
   5   2   0   90.85   13.89
   5   2   0   98.55   14.73
   5   2   0  100.58   14.56
  -5  -2  -1  220.98   15.58
  -5  -2  -1  218.52   17.02
  -5  -2  -1  206.58   17.44
  -5  -2  -1  260.68   18.46
  -5  -2  -1  235.71   18.37
  -5  -2  -1  259.58   17.44
   5   2   1  208.95   16.85
   5   2   1  213.78   17.02
   5   2   1  192.78   16.17
   5   2   1  211.32   17.53
   5   2   1  195.07   16.51
  -5  -2  -2  221.48   17.02
  -5  -2  -2  206.58   16.42
  -5  -2  -2  221.65   19.47
  -5  -2  -2  229.44   17.27
  -5  -2  -2  190.33   17.27
  -5  -2  -2  227.92   17.69
   5   2   2  182.88   17.78
   5   2   2  229.10   17.44
   5   2   2  185.33   16.26
   5   2   2  176.27   17.69
   5   2   2  197.35   16.59
  -5  -2  -3  105.49   14.99
  -5  -2  -3  105.07   12.36
  -5  -2  -3  108.88   17.36
  -5  -2  -3  120.65   13.38
  -5  -2  -3   98.30   15.32
  -5  -2  -3  125.73   15.24
   5   2   3  104.98   16.93
   5   2   3  106.25   14.65
   5   2   3  106.51   15.83
   5   2   3   86.70   15.75
   5   2   3  109.81   14.99
  -5  -2  -4  102.95   15.83
  -5  -2  -4  110.15   13.21
  -5  -2  -4   75.52   15.66
  -5  -2  -4  107.44   13.29
  -5  -2  -4   80.69   14.99
  -5  -2  -4  111.76   17.19
   5   2   4   78.06   16.00
   5   2   4  105.58   14.82
   5   2   4   77.55   12.78
   5   2   4   89.83   15.75
   5   2   4  100.24   17.36
   5   2   4  105.58   14.73
  -5  -2  -5  410.46   27.18
  -5  -2  -5  420.28   30.48
  -5  -2  -5  403.00   26.25
   5   2   5  387.43   29.21
   5   2   5  360.76   24.98
  -5  -2  -6  152.99   21.50
  -5  -2  -6  168.74   20.83
  -5  -2  -6  146.05   18.20
   5   2   6  144.27   23.88
   5   2   6  139.02   20.15
  -5  -2  -7   31.83   13.12
  -5  -2  -7   18.20   10.92
  -5  -2  -7   43.35   13.04
   5   2   7   34.20   14.82
   5   2   7   34.71   11.77
  -5  -2  -8   30.39   15.32
  -5  -2  -8   25.06   13.21
   5   2   8   20.83   14.22
  -5  -2  -9   41.66   17.19
  -5  -2  -9   38.01   18.54
   5   2   9   20.74   15.32
  -5  -3  13   33.70   18.96
  -5  -3  13   66.97   18.96
  -5  -3  13   57.74   13.38
   5   3 -13   90.51   25.48
   5   3 -13   86.87   25.15
   5   3 -13   64.51   20.07
  -5  -3  12   43.77   18.54
  -5  -3  12   85.68   20.66
  -5  -3  12   72.39   13.12
   5   3 -12   73.15   21.08
   5   3 -12   76.20   21.34
   5   3 -12   77.30   21.08
  -5  -3  11   -6.27    9.91
  -5  -3  11    8.04   10.58
  -5  -3  11    4.23    5.93
   5   3 -11    5.16   11.68
   5   3 -11    2.62   11.26
  -5  -3  10   39.71   13.97
  -5  -3  10   59.69   16.51
  -5  -3  10   48.43    9.23
   5   3 -10   49.78   16.00
   5   3 -10   45.55   15.32
  -5  -3   9    7.45   10.33
  -5  -3   9    2.37    7.70
  -5  -3   9    5.84    7.28
  -5  -3   9    1.44    4.32
   5   3  -9    5.67    7.96
   5   3  -9   15.58   10.41
   5   3  -9    2.20    6.60
   5   3  -9    8.97    8.64
  -5  -3   8   80.26   16.68
  -5  -3   8   62.99   14.05
  -5  -3   8   41.66   13.21
  -5  -3   8   56.13    8.21
   5   3  -8   66.38   14.99
   5   3  -8   69.34   15.41
   5   3  -8   55.54   15.07
   5   3  -8   64.01   14.48
  -5  -3   7    3.56    6.18
  -5  -3   7    6.86    7.45
  -5  -3   7   10.24    8.81
  -5  -3   7   17.86    9.57
  -5  -3   7    8.97    4.32
   5   3  -7   18.63    9.82
   5   3  -7   17.19    9.91
   5   3  -7    7.87    9.14
   5   3  -7   14.90    7.70
   5   3  -7   15.32    9.31
  -5  -3   6  240.96   21.08
  -5  -3   6  266.10   21.59
  -5  -3   6  248.75   20.91
  -5  -3   6  224.87   20.83
  -5  -3   6  221.31   11.94
   5   3  -6  233.34   20.74
   5   3  -6  308.77   20.66
   5   3  -6  230.54   21.59
   5   3  -6  278.89   20.15
   5   3  -6  230.37   20.66
  -5  -3   5  227.07   19.47
  -5  -3   5  249.08   13.97
  -5  -3   5  218.44   19.56
  -5  -3   5  209.80   19.64
  -5  -3   5  228.93   20.15
  -5  -3   5  198.79   11.77
   5   3  -5  243.92   13.97
   5   3  -5  223.60   19.90
   5   3  -5  286.00   18.54
   5   3  -5  230.63   20.57
   5   3  -5  216.15   17.78
   5   3  -5  252.13   21.25
  -5  -3   4  279.06   20.15
  -5  -3   4  270.08   14.99
  -5  -3   4  269.83   20.91
  -5  -3   4  248.83   19.73
  -5  -3   4  255.77   20.49
  -5  -3   4  262.04   13.97
   5   3  -4  270.00   14.99
   5   3  -4  230.71   19.90
   5   3  -4  307.25   16.93
   5   3  -4  262.04   19.47
   5   3  -4  229.02   19.98
  -5  -3   3  165.18   15.49
  -5  -3   3  193.63   17.69
  -5  -3   3  202.35   13.55
  -5  -3   3  189.14   16.93
  -5  -3   3  192.36   18.03
  -5  -3   3  184.57   17.44
  -5  -3   3  197.10   12.95
   5   3  -3  185.84   13.63
   5   3  -3  195.91   18.20
   5   3  -3  219.62   12.70
   5   3  -3  163.23   16.34
   5   3  -3  167.72   17.36
  -5  -3   2  118.95   13.38
  -5  -3   2  132.25   14.99
  -5  -3   2   97.28   15.41
  -5  -3   2  112.10   16.17
  -5  -3   2  103.63   15.49
  -5  -3   2  111.67   11.43
   5   3  -2  110.91   11.94
   5   3  -2  119.63   16.93
   5   3  -2   98.80   15.16
   5   3  -2  114.21   16.34
   5   3  -2  107.78   15.83
  -5  -3   1  597.31   26.42
  -5  -3   1  522.13   27.01
  -5  -3   1  547.02   24.72
  -5  -3   1  564.04   27.94
  -5  -3   1  608.06   28.36
  -5  -3   1  508.07   26.42
  -5  -3   1  630.33   25.23
   5   3  -1  528.22   23.96
   5   3  -1  490.80   26.33
   5   3  -1  709.66   19.64
   5   3  -1  514.00   26.16
   5   3  -1  533.05   27.43
   5   3  -1  527.46   27.18
  -5  -3   0   63.08   11.68
  -5  -3   0   55.12   11.43
  -5  -3   0   73.66   12.62
  -5  -3   0   58.93   11.94
  -5  -3   0   66.72   12.78
  -5  -3   0   54.02   11.43
  -5  -3   0   54.19   10.58
   5   3   0   53.85   11.18
   5   3   0   52.07   11.85
   5   3   0   63.41   12.53
   5   3   0   51.31   12.11
   5   3   0   73.91   13.29
  -5  -3  -1   36.74    9.82
  -5  -3  -1   30.23    9.40
  -5  -3  -1   37.25   10.08
  -5  -3  -1   36.58   10.41
  -5  -3  -1   22.86    8.89
  -5  -3  -1   34.12    9.82
   5   3   1   22.77    8.97
   5   3   1   34.54   10.08
   5   3   1   41.23   10.50
   5   3   1   27.26   10.24
   5   3   1   26.42    9.14
  -5  -3  -2   39.20   10.75
  -5  -3  -2   43.01   10.24
  -5  -3  -2   25.15   10.50
  -5  -3  -2   43.09   10.41
  -5  -3  -2   35.64   10.16
  -5  -3  -2   28.02   10.08
   5   3   2   25.31    9.99
   5   3   2   32.00    9.65
   5   3   2   30.06    9.82
   5   3   2   33.61   11.43
   5   3   2   26.16    9.23
  -5  -3  -3  138.85   16.68
  -5  -3  -3  134.62   16.51
  -5  -3  -3  165.27   16.26
  -5  -3  -3  122.17   15.16
  -5  -3  -3  155.87   17.78
   5   3   3  124.37   19.56
   5   3   3  116.67   13.72
   5   3   3  119.80   17.36
   5   3   3  104.14   17.95
   5   3   3  117.94   13.97
  -5  -3  -4  219.11   20.91
  -5  -3  -4  174.41   24.30
  -5  -3  -4  244.77   23.11
  -5  -3  -4  201.08   18.96
  -5  -3  -4  260.94   22.86
   5   3   4  192.61   21.50
   5   3   4  214.20   24.72
   5   3   4  170.77   17.95
  -5  -3  -5  199.47   21.42
  -5  -3  -5  175.76   20.83
  -5  -3  -5  176.78   18.71
   5   3   5  181.61   26.33
   5   3   5  153.07   17.78
   5   3   5  142.74   21.25
  -5  -3  -6   28.02   12.62
  -5  -3  -6    7.45   11.09
  -5  -3  -6   23.28   17.86
   5   3   6   15.58   11.85
   5   3   6   20.66   11.43
  -5  -3  -7  111.25   22.44
  -5  -3  -7   76.71   19.98
   5   3   7   91.69   20.57
   5   3   7  133.77   35.90
  -5  -3  -8   34.80   16.34
  -5  -3  -8   30.90   14.31
   5   3   8   20.57   14.65
  -5  -3  -9   91.44   24.21
  -5  -3  -9  110.40   26.33
   5   3   9   70.78   22.35
  -5  -4  12   -2.37    8.64
  -5  -4  12    8.81   11.77
  -5  -4  12    8.55    7.70
   5   4 -12   -0.59   11.01
   5   4 -12    4.57   12.53
  -5  -4  11   48.09   17.95
  -5  -4  11   45.47   15.66
  -5  -4  11   35.39    9.91
   5   4 -11   62.40   18.29
   5   4 -11   44.79   15.75
  -5  -4  10   55.54   17.36
  -5  -4  10   58.84   14.73
  -5  -4  10   51.90   16.00
  -5  -4  10   50.29   10.67
   5   4 -10   55.96   14.99
   5   4 -10   76.62   19.22
   5   4 -10   44.28   16.51
  -5  -4   9   25.82   13.04
  -5  -4   9   37.00   13.04
  -5  -4   9   43.69   14.73
  -5  -4   9   19.81    7.37
   5   4  -9   26.16   11.43
   5   4  -9   46.65   14.56
   5   4  -9   38.01   14.48
   5   4  -9   24.89   11.85
  -5  -4   8   53.34   14.65
  -5  -4   8   28.62   11.09
  -5  -4   8   51.48   14.82
  -5  -4   8   29.55    7.79
   5   4  -8   33.87   11.94
   5   4  -8   59.27   14.48
   5   4  -8   38.61   14.05
   5   4  -8   48.85   14.05
  -5  -4   7  226.06   21.59
  -5  -4   7  238.33   22.10
  -5  -4   7  219.20   22.52
  -5  -4   7  253.66   22.77
  -5  -4   7  190.24   14.05
   5   4  -7  257.55   23.37
   5   4  -7  281.93   22.94
   5   4  -7  196.25   20.66
   5   4  -7  218.18   18.37
   5   4  -7  243.58   22.77
  -5  -4   6  116.24   18.96
  -5  -4   6  104.14   17.86
  -5  -4   6  104.90   18.63
  -5  -4   6  125.64   19.73
  -5  -4   6   93.13   10.75
   5   4  -6   93.89   17.53
   5   4  -6  145.03   16.85
   5   4  -6  129.11   20.66
   5   4  -6  122.09   16.68
   5   4  -6   99.14   17.69
  -5  -4   5  173.39   18.80
  -5  -4   5  155.19   18.12
  -5  -4   5  182.96   19.73
  -5  -4   5  161.79   17.44
  -5  -4   5  155.78   12.95
   5   4  -5  122.17   18.71
   5   4  -5  196.34   16.76
   5   4  -5  152.06   17.27
   5   4  -5  136.99   15.83
   5   4  -5  156.55   18.63
  -5  -4   4    3.05    6.86
  -5  -4   4    1.86    4.40
  -5  -4   4    5.00    6.77
  -5  -4   4   -0.42    7.37
  -5  -4   4   -1.10    6.01
  -5  -4   4    1.69    4.91
   5   4  -4    1.35    4.06
   5   4  -4    2.46    6.10
   5   4  -4    5.33    5.42
   5   4  -4    2.03    7.20
   5   4  -4   -0.85    6.52
   5   4  -4   -0.08    7.28
  -5  -4   3  218.69   19.13
  -5  -4   3  213.02   14.48
  -5  -4   3  187.19   18.80
  -5  -4   3  208.28   18.63
  -5  -4   3  217.00   19.64
  -5  -4   3  184.48   14.65
   5   4  -3  194.14   13.89
   5   4  -3  187.96   19.30
   5   4  -3  253.83   14.90
   5   4  -3  177.54   18.12
   5   4  -3  175.43   18.71
  -5  -4   2   86.02   14.82
  -5  -4   2   74.25   11.35
  -5  -4   2   72.98   14.39
  -5  -4   2   92.71   15.41
  -5  -4   2   75.35   13.72
  -5  -4   2  104.82   14.05
   5   4  -2   73.49   11.35
   5   4  -2   77.30   14.48
   5   4  -2   94.23    9.65
   5   4  -2   78.82   14.22
   5   4  -2   58.08   13.63
   5   4  -2   75.44   14.22
  -5  -4   1  231.56   19.39
  -5  -4   1  226.73   17.02
  -5  -4   1  188.63   18.46
  -5  -4   1  224.87   19.64
  -5  -4   1  226.22   19.39
  -5  -4   1  241.72   18.54
   5   4  -1  184.06   15.58
   5   4  -1  207.51   19.47
   5   4  -1  171.19   17.44
   5   4  -1  190.16   19.30
   5   4  -1  208.02   19.56
  -5  -4   0    7.37    6.10
  -5  -4   0    8.04    6.77
  -5  -4   0    5.76    7.11
  -5  -4   0    9.57    7.45
  -5  -4   0   10.67    7.70
  -5  -4   0   12.36    7.62
   5   4   0   11.94    7.28
   5   4   0   12.78    8.13
   5   4   0   13.29    7.45
   5   4   0    8.47    8.81
   5   4   0   11.01    7.62
  -5  -4  -1  142.74   16.76
  -5  -4  -1  128.01   15.75
  -5  -4  -1  124.12   15.24
  -5  -4  -1  113.03   16.68
  -5  -4  -1  142.58   16.68
   5   4   1  117.26   17.44
   5   4   1  111.84   16.93
   5   4   1  134.70   15.58
   5   4   1  123.36   19.64
   5   4   1  120.73   17.10
  -5  -4  -2   44.45   12.53
  -5  -4  -2   63.16   14.48
  -5  -4  -2   52.92   11.85
  -5  -4  -2   49.78   11.85
  -5  -4  -2   65.87   14.14
   5   4   2   41.23   12.36
   5   4   2   37.68   10.67
   5   4   2   58.67   12.70
   5   4   2   31.92   12.28
   5   4   2   37.08   10.75
  -5  -4  -3   56.81   14.73
  -5  -4  -3   53.17   14.22
  -5  -4  -3   64.18   12.78
  -5  -4  -3   60.79   13.04
  -5  -4  -3   63.33   14.82
   5   4   3   45.38   12.78
   5   4   3   70.27   14.14
   5   4   3   55.12   12.62
   5   4   3   54.10   14.90
   5   4   3   67.14   13.29
  -5  -4  -4   61.89   15.41
  -5  -4  -4   93.05   19.05
  -5  -4  -4   66.04   14.31
   5   4   4   55.37   15.66
   5   4   4   -0.76    4.40
   5   4   4   57.74   15.66
  -5  -4  -5   44.62   14.99
  -5  -4  -5   43.35   13.63
   5   4   5   30.82   13.89
   5   4   5   33.19   13.46
  -5  -4  -6  123.70   22.61
  -5  -4  -6  106.85   21.59
   5   4   6  127.76   24.30
  -5  -4  -7    9.06   12.78
  -5  -4  -7   11.77   10.67
   5   4   7   21.76   13.72
   5   4   7    8.38   10.84
  -5  -4  -8   32.00   17.53
  -5  -4  -8   54.10   18.88
   5   4   8   25.48   16.00
  -5  -5  12   34.54   17.36
  -5  -5  12   24.81   13.38
  -5  -5  12   31.33   11.01
   5   5 -12   34.12   17.53
   5   5 -12   31.58   17.53
  -5  -5  11   54.19   18.88
  -5  -5  11   50.29   16.17
  -5  -5  11   59.77   12.62
   5   5 -11   87.97   21.50
   5   5 -11   55.88   18.03
  -5  -5  10    7.87    9.40
  -5  -5  10   13.72   10.84
  -5  -5  10    7.62   10.50
  -5  -5  10    9.31    7.70
   5   5 -10    2.46    9.57
   5   5 -10   -3.39   10.08
   5   5 -10   21.42   12.11
   5   5 -10    4.83   10.33
  -5  -5   9   76.71   18.29
  -5  -5   9   51.39   14.39
  -5  -5   9   54.10   16.34
  -5  -5   9   54.44   11.26
   5   5  -9   51.48   15.41
   5   5  -9   73.15   17.53
   5   5  -9   73.49   19.22
   5   5  -9   51.05   15.32
  -5  -5   8    1.44    8.55
  -5  -5   8    3.47    7.87
  -5  -5   8   -6.52    7.03
  -5  -5   8    0.59    5.59
   5   5  -8   -2.79    8.13
   5   5  -8   -3.47    6.86
   5   5  -8    3.81    9.40
   5   5  -8    3.89    9.14
  -5  -5   7  119.80   21.08
  -5  -5   7  103.80   18.80
  -5  -5   7  111.33   19.73
  -5  -5   7  124.20   20.66
  -5  -5   7   91.01   13.29
   5   5  -7   81.87   17.36
   5   5  -7  127.51   19.39
   5   5  -7   87.54   18.20
   5   5  -7   93.47   15.32
   5   5  -7  109.39   19.64
  -5  -5   6   34.46   12.53
  -5  -5   6   23.96   11.09
  -5  -5   6   31.50   12.02
  -5  -5   6   43.69   12.53
  -5  -5   6   22.69    7.96
   5   5  -6   34.37   12.78
   5   5  -6   39.37   11.26
   5   5  -6   29.12   10.92
   5   5  -6   25.91   10.84
   5   5  -6   36.83   12.95
  -5  -5   5   42.16   13.12
  -5  -5   5   46.90   13.55
  -5  -5   5   43.09   12.95
  -5  -5   5   36.66   12.28
  -5  -5   5   52.32   10.84
   5   5  -5   36.07   12.87
   5   5  -5   54.10   11.18
   5   5  -5   39.20   13.21
   5   5  -5   47.24   12.36
   5   5  -5   36.07   12.62
  -5  -5   4  283.80   23.71
  -5  -5   4  219.96   21.67
  -5  -5   4  229.10   22.18
  -5  -5   4  234.01   21.67
  -5  -5   4  219.45   17.78
   5   5  -4  229.02   22.61
   5   5  -4  252.47   18.12
   5   5  -4  226.48   21.93
   5   5  -4  231.90   21.00
   5   5  -4  212.68   21.84
  -5  -5   3   21.67   10.24
  -5  -5   3   29.46   10.58
  -5  -5   3   24.47    9.82
  -5  -5   3   24.38    9.40
  -5  -5   3   13.46    7.54
   5   5  -3    9.65    6.43
   5   5  -3   15.66    8.72
   5   5  -3   25.74    7.79
   5   5  -3   16.00    8.38
   5   5  -3   15.07    9.23
   5   5  -3   18.37    8.89
  -5  -5   2  586.47   31.92
  -5  -5   2  615.26   26.08
  -5  -5   2  538.30   31.16
  -5  -5   2  589.61   31.41
  -5  -5   2  545.16   30.14
  -5  -5   2  550.58   27.52
   5   5  -2  503.59   23.71
   5   5  -2  551.25   31.83
   5   5  -2  479.63   28.28
   5   5  -2  498.85   30.31
   5   5  -2  507.14   30.56
  -5  -5   1   42.76   12.78
  -5  -5   1   -1.10    2.71
  -5  -5   1   29.38   11.18
  -5  -5   1   38.78   11.77
  -5  -5   1   40.55   11.85
  -5  -5   1   36.49   10.58
   5   5  -1   35.98    9.82
   5   5  -1   18.63   10.24
   5   5  -1   35.31   11.01
   5   5  -1   26.58   10.08
   5   5  -1   33.95   11.51
  -5  -5   0  442.04   28.62
  -5  -5   0  393.01   24.55
  -5  -5   0  409.10   26.75
  -5  -5   0  433.74   26.58
  -5  -5   0  421.12   26.08
  -5  -5   0  422.14   26.25
   5   5   0  356.95   23.37
   5   5   0  345.94   25.15
   5   5   0  388.53   25.06
   5   5   0  323.67   26.50
   5   5   0  332.48   24.55
  -5  -5  -1    6.94    8.47
  -5  -5  -1   11.60    8.13
  -5  -5  -1   12.78    8.04
  -5  -5  -1    8.13    7.37
  -5  -5  -1   20.49    9.91
   5   5   1    7.11    6.27
   5   5   1    6.69    7.62
   5   5   1    9.48    8.21
   5   5   1   15.16   10.84
   5   5   1   10.75    8.55
  -5  -5  -2   82.72   17.36
  -5  -5  -2   62.23   15.24
  -5  -5  -2   81.45   14.82
  -5  -5  -2   79.67   14.82
  -5  -5  -2   87.20   16.34
   5   5   2   59.52   14.48
   5   5   2   61.72   14.05
   5   5   2   66.55   13.80
   5   5   2   60.79   15.32
   5   5   2   88.73   16.59
  -5  -5  -3   72.30   17.10
  -5  -5  -3   52.15   13.89
  -5  -5  -3   51.39   12.87
   5   5   3   34.29   12.36
   5   5   3   44.87   11.77
   5   5   3   27.60   13.46
  -5  -5  -4   60.11   17.27
  -5  -5  -4   54.61   16.17
   5   5   4   54.52   16.59
   5   5   4   38.78   14.65
  -5  -5  -5   18.96   14.05
  -5  -5  -5   14.56   12.28
   5   5   5    8.21    8.81
   5   5   5   10.33   11.60
  -5  -5  -6   68.92   20.07
  -5  -5  -6   68.16   19.56
   5   5   6   60.20   18.71
   5   5   6   44.45   16.17
  -5  -5  -7   11.35   15.07
  -5  -5  -7   14.99   13.97
   5   5   7    3.22   12.19
   5   5   7    6.60   11.94
  -5  -6  12  109.39   24.72
  -5  -6  12  113.03   25.06
  -5  -6  12  103.71   18.54
   5   6 -12  142.74   27.43
   5   6 -12  124.54   28.53
  -5  -6  11   -6.35   11.60
  -5  -6  11    0.59    9.23
  -5  -6  11   -2.37   10.24
  -5  -6  11   12.28    9.40
   5   6 -11   -0.42   10.08
   5   6 -11    1.27   11.77
   5   6 -11    1.69   13.21
  -5  -6  10   73.32   19.05
  -5  -6  10   76.62   18.37
  -5  -6  10   60.37   18.63
  -5  -6  10   57.40   13.29
   5   6 -10   58.08   17.78
   5   6 -10  108.71   23.11
   5   6 -10   71.20   21.25
  -5  -6   9   21.50   12.87
  -5  -6   9   20.91   11.35
  -5  -6   9    8.64    8.97
  -5  -6   9   15.24    9.06
   5   6  -9   24.81   13.46
   5   6  -9   29.04   13.46
   5   6  -9   26.50   14.31
  -5  -6   8   15.66   12.28
  -5  -6   8   16.51   11.18
  -5  -6   8    9.23   10.92
  -5  -6   8   12.87    8.38
   5   6  -8    8.89   10.92
   5   6  -8   14.39   11.51
   5   6  -8   23.03   12.87
   5   6  -8   15.07   11.01
  -5  -6   7  167.13   25.15
  -5  -6   7  149.69   23.54
  -5  -6   7  148.67   24.04
  -5  -6   7  130.55   17.95
   5   6  -7  144.61   23.88
   5   6  -7  182.79   21.25
   5   6  -7  129.45   22.86
   5   6  -7  133.09   18.80
   5   6  -7  164.25   24.64
  -5  -6   6   25.74   12.53
  -5  -6   6   29.55   12.53
  -5  -6   6   18.88    9.82
  -5  -6   6   32.34   12.78
  -5  -6   6   23.54    9.31
   5   6  -6   27.09   12.70
   5   6  -6   23.03   10.50
   5   6  -6   17.69   11.68
   5   6  -6   16.85   10.24
   5   6  -6   21.08   11.60
  -5  -6   5   61.81   15.92
  -5  -6   5   54.19   15.16
  -5  -6   5   60.28   16.00
  -5  -6   5   59.18   15.32
  -5  -6   5   61.89   12.70
   5   6  -5   56.98   14.82
   5   6  -5   73.83   14.39
   5   6  -5   73.40   16.85
   5   6  -5   70.02   15.24
   5   6  -5   58.50   15.07
  -5  -6   4  141.73   21.93
  -5  -6   4  130.98   21.08
  -5  -6   4  154.01   22.77
  -5  -6   4  159.42   19.81
  -5  -6   4  133.60   16.17
   5   6  -4  122.76   20.74
   5   6  -4  125.22   20.32
   5   6  -4  117.60   19.39
   5   6  -4  115.74   20.07
  -5  -6   3   46.06   13.72
  -5  -6   3   41.49   13.29
  -5  -6   3   46.57   13.72
  -5  -6   3   53.93   13.72
  -5  -6   3   46.06   11.94
   5   6  -3   31.75   12.62
   5   6  -3   38.35   12.53
   5   6  -3   35.73   12.70
   5   6  -3   41.40   13.63
  -5  -6   2   36.32   13.04
  -5  -6   2   21.42   11.18
  -5  -6   2   40.89   12.78
  -5  -6   2   35.90   11.94
  -5  -6   2   32.93   11.18
   5   6  -2   25.06   11.85
   5   6  -2   27.35   10.16
   5   6  -2   32.34   11.77
   5   6  -2   24.72   11.60
   5   6  -2   25.31   11.85
  -5  -6   1   40.89   13.46
  -5  -6   1   55.37   12.62
  -5  -6   1   55.96   14.73
  -5  -6   1   53.59   13.46
  -5  -6   1   66.80   14.82
  -5  -6   1   62.99   14.31
   5   6  -1   47.84   10.84
   5   6  -1   43.60   13.21
   5   6  -1   48.00   12.19
   5   6  -1   36.58   13.72
   5   6  -1   38.44   12.95
  -5  -6   0   27.77   12.36
  -5  -6   0   27.09   10.58
  -5  -6   0   35.81   12.28
  -5  -6   0   42.93   12.11
  -5  -6   0   27.43   10.84
  -5  -6   0   37.59   12.87
   5   6   0   28.79   10.16
   5   6   0   32.26   12.28
   5   6   0   39.62   11.43
   5   6   0   22.86   12.45
   5   6   0   33.19   11.94
  -5  -6  -1   35.47   12.36
  -5  -6  -1   42.59   12.78
  -5  -6  -1   28.96   11.43
  -5  -6  -1   22.27    9.74
  -5  -6  -1   43.69   13.55
   5   6   1   35.56   11.68
   5   6   1   39.88   12.62
   5   6   1   35.90   11.01
   5   6   1   31.92   14.05
   5   6   1   45.55   13.38
  -5  -6  -2   52.49   15.75
  -5  -6  -2   53.25   14.65
  -5  -6  -2   56.30   13.89
   5   6   2   50.88   14.31
   5   6   2   40.22   13.46
   5   6   2   49.36   15.83
  -5  -6  -3   38.86   13.29
  -5  -6  -3   48.60   15.16
   5   6   3   35.22   13.63
   5   6   3   31.50   14.65
  -5  -6  -4    8.89   12.70
  -5  -6  -4   10.41   11.01
   5   6   4    9.40   10.92
   5   6   4   15.83   12.36
  -5  -6  -5    1.78   12.53
  -5  -6  -5    7.79    9.57
   5   6   5    9.14   11.94
   5   6   5    2.20   11.18
  -5  -6  -6   10.67   16.17
  -5  -6  -6   16.26   14.39
   5   6   6    7.62   12.87
   5   6   6   10.92   13.29
  -5  -7  11   28.96   14.82
  -5  -7  11   29.80   15.75
  -5  -7  11   22.52   14.82
  -5  -7  11   24.30   11.85
   5   7 -11   35.14   17.86
   5   7 -11   24.72   15.92
   5   7 -11   23.54   14.14
  -5  -7  10    1.78   11.77
  -5  -7  10   -1.02    9.48
  -5  -7  10    9.06   12.45
  -5  -7  10    8.13    9.14
   5   7 -10    2.71   11.43
   5   7 -10   10.24   11.60
   5   7 -10    9.82   11.09
  -5  -7   9   57.23   17.86
  -5  -7   9   53.00   16.76
  -5  -7   9   55.54   18.29
  -5  -7   9   38.35   12.36
   5   7  -9   58.16   18.37
   5   7  -9   66.72   18.20
   5   7  -9   64.18   19.90
  -5  -7   8   67.31   19.13
  -5  -7   8   40.30   14.56
  -5  -7   8   67.56   18.63
  -5  -7   8   56.39   14.22
   5   7  -8   38.10   14.39
   5   7  -8   40.30   14.90
   5   7  -8   41.40   16.34
  -5  -7   7   14.56   12.19
  -5  -7   7   11.51   10.67
  -5  -7   7    5.93   10.58
  -5  -7   7    6.60    8.47
   5   7  -7    6.10    9.48
   5   7  -7   12.95   10.08
   5   7  -7   17.27   12.62
  -5  -7   6    1.02    9.40
  -5  -7   6   11.51   10.24
  -5  -7   6    6.86   10.08
  -5  -7   6    2.46    7.28
  -5  -7   6   -3.98    7.20
   5   7  -6   -2.37    9.48
   5   7  -6   -0.17    8.21
   5   7  -6    0.59    6.43
   5   7  -6    6.77    8.89
  -5  -7   5   -3.39    8.89
  -5  -7   5    5.16    8.89
  -5  -7   5    2.12    9.06
  -5  -7   5    6.18    9.23
  -5  -7   5    4.91    7.79
   5   7  -5    9.06   11.09
   5   7  -5   11.60    9.57
   5   7  -5    5.59    9.48
   5   7  -5   11.09    9.65
   5   7  -5   10.92   10.92
  -5  -7   4   48.43   15.41
  -5  -7   4   41.40   14.22
  -5  -7   4   63.08   16.26
  -5  -7   4   51.81   14.90
  -5  -7   4   53.51   13.97
   5   7  -4   27.85   13.46
   5   7  -4   45.89   14.39
   5   7  -4   39.37   13.63
   5   7  -4   42.76   14.99
  -5  -7   3  349.58   29.80
  -5  -7   3  299.29   26.33
  -5  -7   3  344.08   27.60
  -5  -7   3  351.02   26.75
  -5  -7   3  354.49   26.50
   5   7  -3  259.58   26.25
   5   7  -3  290.74   24.47
   5   7  -3  290.32   27.18
   5   7  -3  258.14   26.42
  -5  -7   2    2.88    9.31
  -5  -7   2    6.94    9.31
  -5  -7   2   14.65   10.75
  -5  -7   2    7.54    8.64
  -5  -7   2    8.97    9.14
   5   7  -2    4.23   10.08
   5   7  -2    9.57    8.64
   5   7  -2    0.08    7.87
   5   7  -2    3.56    9.31
   5   7  -2   13.63   11.35
  -5  -7   1   59.86   16.93
  -5  -7   1   77.55   17.69
  -5  -7   1  110.15   19.39
  -5  -7   1   84.07   17.02
  -5  -7   1   66.29   15.75
   5   7  -1   58.08   15.83
   5   7  -1   75.10   15.75
   5   7  -1   70.44   15.49
   5   7  -1   72.22   18.20
   5   7  -1   50.63   15.32
  -5  -7   0    0.68    7.62
  -5  -7   0   -0.68    7.87
  -5  -7   0    5.50   10.24
  -5  -7   0    6.69    8.89
  -5  -7   0   10.41    8.38
  -5  -7   0    6.10    9.74
   5   7   0    7.45    8.47
   5   7   0    2.88    9.14
   5   7   0    2.62    7.28
   5   7   0    5.67    7.79
   5   7   0    0.42    9.82
   5   7   0    6.18    9.74
  -5  -7  -1   25.40   12.11
  -5  -7  -1   20.74   10.75
  -5  -7  -1   23.37   11.94
   5   7   1   21.59   10.84
   5   7   1   21.34   11.94
   5   7   1   30.99   15.32
   5   7   1   21.50   12.19
  -5  -7  -2   31.41   13.46
  -5  -7  -2   18.96   11.77
   5   7   2   21.93   11.26
   5   7   2   25.48   15.16
  -5  -7  -3    2.03   12.70
  -5  -7  -3   -6.52    7.96
   5   7   3   -3.05    8.21
   5   7   3    1.69   10.75
  -5  -7  -4   56.05   19.90
  -5  -7  -4   70.44   19.98
   5   7   4   56.39   17.69
   5   7   4   38.86   17.27
  -5  -7  -5    0.93   11.26
  -5  -7  -5    6.18   12.45
   5   7   5   11.68   12.62
   5   7   5   -2.88   11.60
  -5  -8  10   -4.06   12.02
  -5  -8  10   10.58   11.77
  -5  -8  10   12.45   13.97
  -5  -8  10   19.39   12.02
   5   8 -10   -5.59   12.02
   5   8 -10    2.88   12.11
   5   8 -10   20.15   13.72
  -5  -8   9   31.41   16.42
  -5  -8   9   32.85   15.16
  -5  -8   9   34.88   16.00
  -5  -8   9   35.64   13.46
   5   8  -9   49.61   17.69
   5   8  -9   27.35   14.31
   5   8  -9   39.88   17.53
  -5  -8   8  -12.62    5.93
  -5  -8   8    2.29   10.08
  -5  -8   8    0.17    7.79
  -5  -8   8    1.27    8.55
   5   8  -8   -1.86    8.55
   5   8  -8   -6.10    9.14
   5   8  -8  -11.01    8.64
  -5  -8   7   17.10   13.72
  -5  -8   7   15.66   12.02
  -5  -8   7   21.50   11.60
  -5  -8   7   30.73   13.12
   5   8  -7   17.86   14.31
   5   8  -7   15.49   11.18
   5   8  -7   19.22   13.12
  -5  -8   6   42.67   15.66
  -5  -8   6   33.87   13.21
  -5  -8   6   43.60   15.92
  -5  -8   6   41.82   14.14
   5   8  -6   17.02   13.38
   5   8  -6   31.83   13.55
   5   8  -6   26.16   12.45
  -5  -8   5    1.02    7.79
  -5  -8   5   11.60    9.48
  -5  -8   5   12.62   11.01
  -5  -8   5    5.25   10.16
   5   8  -5    2.62   11.35
   5   8  -5    9.91   10.50
   5   8  -5    9.14   10.67
  -5  -8   4   43.01   16.59
  -5  -8   4   56.30   17.27
  -5  -8   4   64.94   17.36
  -5  -8   4   79.08   18.29
  -5  -8   4   62.82   16.34
   5   8  -4   40.30   14.48
   5   8  -4   59.94   16.00
   5   8  -4   44.45   15.66
  -5  -8   3    5.93   11.01
  -5  -8   3    0.34    9.40
  -5  -8   3   -2.20    9.31
  -5  -8   3   -4.23    7.54
  -5  -8   3    3.30   10.08
   5   8  -3    5.25   11.01
   5   8  -3    1.19    7.96
   5   8  -3   -3.05    7.96
   5   8  -3   -3.81    9.82
  -5  -8   2  146.05   24.81
  -5  -8   2  156.55   25.57
  -5  -8   2  125.30   21.00
  -5  -8   2  137.33   21.17
  -5  -8   2  123.19   21.17
   5   8  -2  114.13   22.27
   5   8  -2  137.16   21.08
   5   8  -2  117.26   20.15
   5   8  -2  101.34   22.01
  -5  -8   1  110.83   22.01
  -5  -8   1   86.53   19.39
   5   8  -1  100.07   21.08
   5   8  -1   73.74   20.32
  -5  -8   0   39.71   16.68
  -5  -8   0   34.29   14.31
   5   8   0   33.02   14.05
   5   8   0   42.42   15.83
  -5  -8  -1   46.99   15.75
  -5  -8  -1   71.71   17.95
   5   8   1   34.80   13.72
   5   8   1   32.85   15.92
  -5  -8  -2   34.04   17.44
  -5  -8  -2   26.75   13.55
   5   8   2   29.46   13.29
   5   8   2   53.76   17.86
  -5  -8  -3   40.64   18.80
  -5  -8  -3   51.39   17.86
   5   8   3   26.33   13.89
   5   8   3   26.84   16.34
  -5  -9   9   18.46   16.17
  -5  -9   9    6.60   11.85
  -5  -9   9   16.26   12.87
  -5  -9   9   13.80   12.11
   5   9  -9    7.54   14.31
   5   9  -9    8.30   13.72
  -5  -9   8   24.81   16.26
  -5  -9   8   41.99   16.42
  -5  -9   8   38.78   17.61
  -5  -9   8   18.37   12.28
   5   9  -8   32.77   16.00
   5   9  -8   36.24   16.59
  -5  -9   7   43.01   17.95
  -5  -9   7   35.14   14.65
  -5  -9   7   38.10   15.83
  -5  -9   7   20.66   12.78
   5   9  -7   21.42   14.73
   5   9  -7   13.55   11.01
  -5  -9   6   16.93   14.48
  -5  -9   6    1.44   11.35
  -5  -9   6   26.42   14.39
  -5  -9   6    8.72   11.01
   5   9  -6    3.89   12.62
   5   9  -6    2.20   10.58
   5   9  -6   10.33   11.35
  -5  -9   5   58.08   18.96
  -5  -9   5   48.17   17.95
  -5  -9   5   70.53   19.30
  -5  -9   5   67.99   18.46
   5   9  -5   50.80   18.20
   5   9  -5   43.43   15.32
   5   9  -5   39.62   15.16
  -5  -9   4   10.41   13.55
  -5  -9   4    8.64   12.02
  -5  -9   4   11.60   12.19
  -5  -9   4   18.71   13.04
   5   9  -4    7.03   12.28
   5   9  -4   13.12   11.01
   5   9  -4   12.70   11.68
  -5  -9   3   79.75   19.64
  -5  -9   3   81.70   21.25
  -5  -9   3  135.04   34.37
  -5  -9   3  121.41   23.37
   5   9  -3   59.01   18.46
   5   9  -3   76.20   21.08
   5   9  -3   82.04   22.01
   5   9  -3   79.50   20.32
  -5  -9   2   27.01   15.49
  -5  -9   2   32.17   14.82
   5   9  -2   31.41   15.07
   5   9  -2   29.12   15.83
  -5  -9   1   25.06   15.75
  -5  -9   1   23.96   13.63
   5   9  -1   18.46   13.46
   5   9  -1   14.14   13.55
  -5  -9   0   62.23   20.49
  -5  -9   0   51.90   16.93
   5   9   0   32.85   15.41
   5   9   0   41.06   18.80
  -5  -9  -1   26.08   17.69
   5   9   1   22.35   17.19
  -5 -10   6   63.67   21.08
  -5 -10   6   75.78   22.35
  -5 -10   6   64.26   19.90
  -5 -10   6   87.20   21.67
   5  10  -6   50.38   20.66
   5  10  -6   55.88   18.29
  -5 -10   5   11.09   13.80
  -5 -10   5   11.01   11.51
  -5 -10   5   14.22   14.05
  -5 -10   5   18.54   17.78
   5  10  -5   10.84   14.73
   5  10  -5    1.95   11.01
   5  10  -5    5.93   13.12
  -5 -10   4   39.45   19.05
  -5 -10   4   27.26   15.83
   5  10  -4   33.10   17.02
   5  10  -4   32.34   16.26
  -5 -10   3   -8.38   12.28
  -5 -10   3   13.04   13.72
   5  10  -3    6.01   13.29
   5  10  -3    9.99   13.63
  -5 -10   2    9.65   15.49
  -5 -10   2   13.80   14.05
   5  10  -2   10.92   13.89
   5  10  -2   11.68   13.63
  -6  10   2   49.02   16.51
  -6  10   2   53.25   17.95
  -6  10   2   78.48   21.50
  -6  10   2   62.65   19.90
  -6  10   2   43.52   17.19
  -6  10   2   74.93   19.13
   6 -10  -2   65.28   19.05
   6 -10  -2   47.75   17.10
   6 -10  -2   75.69   21.25
  -6  10   1   -0.08   10.75
  -6  10   1    6.01   11.26
  -6  10   1    8.47   13.12
  -6  10   1   -1.44   11.51
  -6  10   1    3.05   13.12
  -6  10   1   10.67   13.46
   6 -10  -1    3.39   12.62
   6 -10  -1    9.82   11.60
   6 -10  -1   -2.62   10.33
  -6  10   0   20.23   12.70
  -6  10   0    8.13   11.94
  -6  10   0   16.09   13.04
  -6  10   0    8.38   10.33
  -6  10   0    0.93   12.11
  -6  10   0    9.65   12.02
   6 -10   0   -1.10   12.02
   6 -10   0    6.18   10.50
   6 -10   0    7.79   13.38
  -6  10  -1   33.95   14.90
  -6  10  -1   45.97   18.20
  -6  10  -1   40.98   16.34
  -6  10  -1   36.49   17.27
  -6  10  -1   18.88   14.48
  -6  10  -1   57.83   17.36
   6 -10   1   31.50   14.90
   6 -10   1   49.61   18.20
  -6  10  -2   -4.40    7.87
  -6  10  -2   -1.19   10.67
  -6  10  -2    2.71    9.99
  -6  10  -2    0.93   11.51
  -6  10  -2    9.65   11.60
  -6  10  -2    5.67   11.85
   6 -10   2   -3.22   11.09
   6 -10   2    7.03    9.57
   6 -10   2   -1.52   11.68
  -6  10  -3   30.23   16.59
  -6  10  -3   35.39   17.02
  -6  10  -3   53.93   17.61
   6 -10   3   55.71   18.29
  -6  10  -4   16.85   15.24
  -6  10  -4   13.46   13.55
  -6  10  -4    9.91   11.94
   6 -10   4    0.25   12.19
  -6  10  -5   57.91   20.15
  -6  10  -5   77.38   21.17
   6 -10   5   67.99   20.32
  -6  10  -6    0.93   12.78
  -6  10  -6   25.23   15.75
  -6  10  -6   12.53   12.87
   6 -10   6   -1.86   11.43
   6 -10   6   12.62   13.97
  -6   9   4   -6.35    9.40
  -6   9   4    6.86    9.57
  -6   9   4   -8.21   11.85
  -6   9   4   -1.10    9.91
   6  -9  -4    0.59   10.84
  -6   9   3   63.92   17.78
  -6   9   3   66.38   17.53
  -6   9   3   81.28   21.08
  -6   9   3   73.57   20.40
  -6   9   3   61.30   20.15
  -6   9   3   75.44   17.19
   6  -9  -3   54.02   17.69
   6  -9  -3   62.40   18.29
  -6   9   2   20.40   13.12
  -6   9   2    0.51   11.43
  -6   9   2   17.10   13.29
  -6   9   2   14.73   12.87
  -6   9   2   -2.46   12.02
  -6   9   2   14.90   10.92
   6  -9  -2    4.40   12.11
   6  -9  -2    3.64    7.62
   6  -9  -2    8.64   12.36
  -6   9   1   31.75   13.89
  -6   9   1   33.36   14.39
  -6   9   1   31.92   13.04
  -6   9   1   42.59   16.51
  -6   9   1   34.46   16.85
  -6   9   1   42.25   13.97
   6  -9  -1   33.70   15.58
   6  -9  -1   25.65   12.28
   6  -9  -1   27.69   14.65
  -6   9   0   21.93   12.28
  -6   9   0   25.31   14.05
  -6   9   0   31.66   14.48
  -6   9   0   45.04   16.51
  -6   9   0   23.54   14.48
  -6   9   0   44.79   14.73
   6  -9   0   40.47   15.66
   6  -9   0   14.82   10.58
   6  -9   0    0.93   11.18
  -6   9  -1   28.79   13.21
  -6   9  -1   18.54   12.95
  -6   9  -1   33.19   14.56
  -6   9  -1   17.02   13.55
  -6   9  -1   26.33   13.97
  -6   9  -1   36.74   14.05
   6  -9   1   42.84   13.97
   6  -9   1   23.11   11.68
   6  -9   1   21.93   12.36
  -6   9  -2   18.63   11.35
  -6   9  -2   26.08   13.97
  -6   9  -2   21.50   12.19
  -6   9  -2   22.44   13.21
  -6   9  -2   29.63   13.80
  -6   9  -2   19.39   12.11
   6  -9   2   36.66   14.73
   6  -9   2   25.99   14.31
  -6   9  -3    8.64   11.94
  -6   9  -3    0.00    9.06
  -6   9  -3    5.84   11.51
  -6   9  -3   11.94   11.01
  -6   9  -3    5.33   11.60
   6  -9   3    0.85    9.91
   6  -9   3    3.30   11.26
  -6   9  -4   35.56   16.17
  -6   9  -4   45.04   16.09
  -6   9  -4   19.73   11.85
  -6   9  -4   30.31   13.46
   6  -9   4   13.72   12.28
   6  -9   4   26.33   12.87
  -6   9  -5   27.77   15.16
  -6   9  -5   54.61   17.86
  -6   9  -5   36.74   14.31
   6  -9   5   38.27   14.73
   6  -9   5   38.86   15.58
  -6   9  -6   17.36   13.72
  -6   9  -6   35.64   16.26
  -6   9  -6   29.38   13.89
   6  -9   6   27.69   14.82
   6  -9   6   23.28   14.99
  -6   9  -7   71.63   20.74
  -6   9  -7   83.56   22.01
  -6   9  -7   78.65   20.74
   6  -9   7   91.35   21.84
   6  -9   7   67.82   20.74
  -6   8   6   85.26   22.35
  -6   8   6  124.37   26.50
  -6   8   6   91.10   23.45
   6  -8  -6   43.77   17.44
  -6   8   5   12.70   12.11
  -6   8   5   14.39   13.29
  -6   8   5   12.78   12.87
  -6   8   5   10.75   10.16
   6  -8  -5    5.59   11.01
  -6   8   4   24.98   13.46
  -6   8   4   19.90   13.97
  -6   8   4   11.26   12.70
  -6   8   4   24.21   15.41
  -6   8   4   16.51   10.16
   6  -8  -4   18.88   12.28
   6  -8  -4    3.13   19.13
  -6   8   3   99.74   20.66
  -6   8   3  145.03   24.30
  -6   8   3  121.49   23.71
  -6   8   3  112.35   22.44
  -6   8   3  128.78   25.40
  -6   8   3  150.20   21.59
  -6   8   3   91.01   19.56
   6  -8  -3   72.47   18.88
   6  -8  -3  121.41   22.27
  -6   8   2   16.34   11.26
  -6   8   2    8.72    9.99
  -6   8   2    7.96   11.94
  -6   8   2   10.75   11.26
  -6   8   2   17.19   12.78
  -6   8   2   15.49    9.82
  -6   8   2   16.17   11.18
   6  -8  -2   27.69   13.97
   6  -8  -2    7.96    9.65
   6  -8  -2   22.52   13.04
  -6   8   1   96.26   19.73
  -6   8   1   94.15   20.15
  -6   8   1  145.54   24.38
  -6   8   1  156.55   25.40
  -6   8   1  125.13   24.72
  -6   8   1  154.77   19.05
  -6   8   1  107.95   21.59
   6  -8  -1  140.97   24.21
   6  -8  -1   88.31   18.88
   6  -8  -1  100.50   20.83
  -6   8   0   47.16   14.65
  -6   8   0   51.81   15.41
  -6   8   0   64.51   16.09
  -6   8   0   67.05   17.86
  -6   8   0   56.47   17.02
  -6   8   0   78.06   17.02
   6  -8   0   56.64   16.51
   6  -8   0   35.39   13.55
   6  -8   0   41.40   13.97
  -6   8  -1    3.47    8.55
  -6   8  -1    5.33   10.16
  -6   8  -1   10.92    8.72
  -6   8  -1    6.69    9.91
  -6   8  -1   13.63   10.75
  -6   8  -1    2.88    8.81
   6  -8   1    4.49   10.16
   6  -8   1   10.50   11.01
  -6   8  -2    9.31   10.50
  -6   8  -2   10.41    8.55
  -6   8  -2   18.29    9.82
  -6   8  -2    6.27    8.30
  -6   8  -2   11.60   10.08
  -6   8  -2   12.95   11.01
   6  -8   2   10.50   10.24
   6  -8   2   19.81   12.95
   6  -8   2    6.77    8.89
  -6   8  -3   18.12   12.36
  -6   8  -3   25.48   11.43
  -6   8  -3   28.45   12.95
  -6   8  -3   25.23   11.26
  -6   8  -3   28.02   12.28
  -6   8  -3   25.91   12.28
   6  -8   3   29.63   12.70
   6  -8   3   20.15   11.35
   6  -8   3   23.28   11.26
  -6   8  -4   57.74   17.69
  -6   8  -4   86.61   17.86
  -6   8  -4  100.58   20.07
  -6   8  -4   52.83   15.16
  -6   8  -4   53.59   15.49
  -6   8  -4   90.34   19.22
   6  -8   4   62.91   15.58
   6  -8   4   49.36   16.51
   6  -8   4   85.09   18.96
  -6   8  -5   32.51   13.97
  -6   8  -5   38.27   12.87
  -6   8  -5   36.07   13.80
  -6   8  -5   29.04   12.95
   6  -8   5   30.06   12.87
   6  -8   5   32.09   14.56
   6  -8   5   60.79   17.19
  -6   8  -6   61.30   18.54
  -6   8  -6   58.25   17.44
  -6   8  -6   43.69   15.92
   6  -8   6   62.06   18.37
   6  -8   6   61.47   17.95
  -6   8  -7   18.20   13.72
  -6   8  -7   12.11   12.53
  -6   8  -7    0.68   10.50
   6  -8   7   12.19   11.51
   6  -8   7    6.60   11.94
  -6   8  -8   61.81   19.73
  -6   8  -8  127.08   25.06
  -6   8  -8   93.39   22.94
   6  -8   8   44.03   17.02
   6  -8   8   99.82   24.38
  -6   7   7   29.72   15.75
  -6   7   7   73.91   21.00
  -6   7   7   48.17   17.10
  -6   7   7   43.86   12.87
   6  -7  -7   37.93   15.16
  -6   7   6   45.80   16.85
  -6   7   6   82.29   21.50
  -6   7   6   60.70   18.03
  -6   7   6   53.93   13.38
   6  -7  -6   50.97   16.76
  -6   7   5   41.23   15.49
  -6   7   5   34.04   14.82
  -6   7   5   31.33   14.73
  -6   7   5   39.03   16.17
  -6   7   5   30.99   10.92
   6  -7  -5   21.34   12.70
  -6   7   4  254.67   27.35
  -6   7   4  343.49   28.45
  -6   7   4  332.22   31.16
  -6   7   4  433.65   33.87
  -6   7   4  381.67   33.19
  -6   7   4  345.94   28.36
   6  -7  -4  236.89   26.58
   6  -7  -4  312.07   26.92
  -6   7   3   18.29    9.91
  -6   7   3   33.10   13.12
  -6   7   3   18.20   10.58
  -6   7   3   16.00   11.18
  -6   7   3   23.28   13.46
  -6   7   3   22.44    9.82
  -6   7   3   34.12   13.12
   6  -7  -3   12.19    8.55
   6  -7  -3   21.00   11.77
  -6   7   2   83.65   18.29
  -6   7   2   98.21   19.22
  -6   7   2  112.43   21.84
  -6   7   2  131.40   22.10
  -6   7   2  118.53   22.18
  -6   7   2  121.07   17.95
  -6   7   2   75.52   17.10
   6  -7  -2  103.88   21.42
   6  -7  -2   75.35   17.19
   6  -7  -2   88.31   18.46
  -6   7   1  141.47   22.77
  -6   7   1  147.74   22.18
  -6   7   1  180.25   25.57
  -6   7   1  231.81   23.96
  -6   7   1  161.12   25.40
  -6   7   1  221.65   20.57
  -6   7   1  160.02   19.47
   6  -7  -1  224.19   23.03
   6  -7  -1  178.39   25.31
  -6   7   0   66.38   16.09
  -6   7   0   83.14   18.37
  -6   7   0   91.78   17.86
  -6   7   0   77.72   16.93
  -6   7   0   66.80   16.42
  -6   7   0   88.22   16.26
  -6   7   0   68.58   15.83
   6  -7   0   65.62   17.19
   6  -7   0   66.46   16.85
  -6   7  -1   42.67   12.45
  -6   7  -1   40.64   13.29
  -6   7  -1   68.16   16.09
  -6   7  -1   55.03   14.56
  -6   7  -1   53.42   12.70
  -6   7  -1   39.20   14.22
  -6   7  -1   57.32   13.89
  -6   7  -1   37.00   13.04
   6  -7   1   73.57   16.76
   6  -7   1   42.76   13.38
   6  -7   1   49.02   12.95
  -6   7  -2   11.09   10.24
  -6   7  -2   10.75    9.40
  -6   7  -2    3.30    8.30
  -6   7  -2    2.03    6.86
  -6   7  -2   13.46   10.08
  -6   7  -2    6.86    8.64
  -6   7  -2    6.77    9.57
   6  -7   2    6.43    9.74
   6  -7   2    7.28    9.91
   6  -7   2    2.79    8.04
  -6   7  -3   62.57   16.59
  -6   7  -3   74.42   16.51
  -6   7  -3   79.08   16.93
  -6   7  -3   44.36   13.55
  -6   7  -3   60.79   15.32
  -6   7  -3   60.79   14.99
  -6   7  -3   39.79   13.55
   6  -7   3   50.29   13.97
   6  -7   3   58.50   16.42
   6  -7   3   49.19   14.05
  -6   7  -4   33.36   13.63
  -6   7  -4   46.40   13.63
  -6   7  -4   39.45   13.04
  -6   7  -4   36.74   13.29
  -6   7  -4   30.99   11.60
  -6   7  -4   38.86   12.78
  -6   7  -4   30.06   12.95
   6  -7   4   33.87   12.62
   6  -7   4   25.06   12.78
   6  -7   4   29.46   13.29
  -6   7  -5    6.43   10.33
  -6   7  -5    4.83    8.13
  -6   7  -5    5.50    9.31
  -6   7  -5   11.43   10.50
  -6   7  -5    9.14    8.55
  -6   7  -5   -3.47    8.89
  -6   7  -5    6.43    9.99
   6  -7   5   10.75   10.41
   6  -7   5    0.17    8.97
   6  -7   5    6.69   10.16
  -6   7  -6   18.37   12.62
  -6   7  -6   26.67   11.77
  -6   7  -6   21.25   11.60
  -6   7  -6   17.02   10.58
   6  -7   6   12.02   10.24
   6  -7   6    8.81   10.58
   6  -7   6   22.61   11.60
  -6   7  -7   23.62   13.97
  -6   7  -7   25.82   13.21
  -6   7  -7   19.56   13.12
   6  -7   7   14.39   10.67
   6  -7   7   22.35   11.77
  -6   7  -8   51.98   16.51
  -6   7  -8   88.81   19.81
  -6   7  -8   39.20   17.10
   6  -7   8   65.95   17.69
   6  -7   8   93.30   22.94
  -6   7  -9   -0.17   12.53
   6  -7   9    6.35   12.95
  -6   6   8   40.47   15.92
  -6   6   8   57.15   18.96
  -6   6   8   30.39   14.82
  -6   6   8   30.23   10.75
   6  -6  -8   33.78   16.42
  -6   6   7   56.30   18.20
  -6   6   7   52.49   17.61
  -6   6   7   49.78   16.59
  -6   6   7   29.55   10.16
   6  -6  -7   25.82   14.56
  -6   6   6    4.91    9.74
  -6   6   6    2.88    7.87
  -6   6   6    6.52   10.58
  -6   6   6    3.64    9.31
  -6   6   6    7.37    7.37
   6  -6  -6    8.72    9.40
  -6   6   5   16.17   11.68
  -6   6   5   19.81    9.57
  -6   6   5   32.60   13.80
  -6   6   5   35.64   14.14
  -6   6   5   27.43   13.72
  -6   6   5   36.07   10.08
   6  -6  -5   21.08   12.11
   6  -6  -5   24.64   10.58
  -6   6   4   51.22   15.49
  -6   6   4   63.50   14.99
  -6   6   4   60.37   15.83
  -6   6   4   56.05   15.58
  -6   6   4   51.14   15.24
  -6   6   4   56.64   11.60
  -6   6   4   55.71   13.80
   6  -6  -4   42.59   14.31
   6  -6  -4   64.77   15.58
  -6   6   3  104.05   19.64
  -6   6   3  116.41   19.64
  -6   6   3  127.76   22.01
  -6   6   3  171.53   20.91
  -6   6   3  125.56   22.01
  -6   6   3  142.15   15.32
  -6   6   3  114.47   19.30
   6  -6  -3   76.11   17.27
   6  -6  -3  114.89   19.39
  -6   6   2  692.98   37.93
  -6   6   2  795.85   38.95
  -6   6   2  897.70   42.42
  -6   6   2  940.12   41.49
  -6   6   2  690.02   37.85
  -6   6   2  888.73   33.44
  -6   6   2  851.81   40.13
   6  -6  -2  908.45   43.52
   6  -6  -2  684.26   36.58
  -6   6   1   64.94   15.32
  -6   6   1   75.44   16.51
  -6   6   1   89.32   17.78
  -6   6   1   97.79   17.61
  -6   6   1   85.93   13.89
  -6   6   1   82.55   17.95
  -6   6   1  106.00   15.66
  -6   6   1   83.99   16.85
   6  -6  -1   89.15   18.20
   6  -6  -1   61.04   15.32
   6  -6  -1   69.85   12.95
  -6   6   0  174.32   19.90
  -6   6   0  151.47   22.27
  -6   6   0  179.40   20.49
  -6   6   0  189.14   19.73
  -6   6   0  187.45   17.86
  -6   6   0  185.75   21.34
  -6   6   0  203.87   18.54
  -6   6   0  138.85   21.25
   6  -6   0  199.72   21.76
   6  -6   0  133.52   21.25
   6  -6   0  155.61   16.42
  -6   6  -1   25.57   10.75
  -6   6  -1   17.36   10.58
  -6   6  -1   27.18   11.51
  -6   6  -1   23.62    9.91
  -6   6  -1   20.91    8.97
  -6   6  -1   22.35   10.08
  -6   6  -1   27.69   10.58
  -6   6  -1   19.64   10.41
   6  -6   1   15.41   10.08
   6  -6   1   24.21   10.16
   6  -6   1   19.30    9.48
  -6   6  -2  298.36   24.81
  -6   6  -2  417.99   28.36
  -6   6  -2  440.60   27.18
  -6   6  -2  339.59   24.81
  -6   6  -2  374.30   27.18
  -6   6  -2  429.34   26.50
  -6   6  -2  295.56   24.64
   6  -6   2  393.86   27.94
   6  -6   2  270.67   25.15
   6  -6   2  328.92   24.72
  -6   6  -3   95.76   18.96
  -6   6  -3   78.40   16.17
  -6   6  -3   74.17   14.31
  -6   6  -3   76.71   15.92
  -6   6  -3   87.97   16.93
  -6   6  -3  152.57   20.66
  -6   6  -3   78.74   16.76
   6  -6   3   86.78   16.68
   6  -6   3   84.24   17.86
   6  -6   3   93.30   17.86
  -6   6  -4   -1.78    7.54
  -6   6  -4    2.29    7.20
  -6   6  -4    0.08    6.94
  -6   6  -4    0.51    7.62
  -6   6  -4   -4.66    6.69
  -6   6  -4   -5.59    6.86
  -6   6  -4   -0.93    7.20
   6  -6   4    4.32    8.81
   6  -6   4    2.37    8.21
   6  -6   4    8.72    7.87
  -6   6  -5   43.94   13.63
  -6   6  -5   61.38   15.24
  -6   6  -5   45.38   13.29
  -6   6  -5   44.11   14.31
  -6   6  -5   52.32   12.70
  -6   6  -5   65.02   15.58
  -6   6  -5   44.11   13.89
   6  -6   5   42.42   13.72
   6  -6   5   36.74   12.28
   6  -6   5   58.84   16.85
  -6   6  -6    2.88    8.72
  -6   6  -6    7.11    9.14
  -6   6  -6    1.19    7.96
  -6   6  -6   -1.69    8.38
  -6   6  -6   -4.49    7.20
   6  -6   6    1.44    8.38
   6  -6   6   -1.95    7.87
   6  -6   6   -2.29    9.23
  -6   6  -7  107.61   20.66
  -6   6  -7  167.47   24.38
  -6   6  -7  148.93   22.27
  -6   6  -7  126.24   23.96
  -6   6  -7  128.01   21.93
   6  -6   7   97.11   18.71
   6  -6   7   94.66   19.30
   6  -6   7  113.87   22.35
  -6   6  -8   30.99   13.29
  -6   6  -8   12.78   12.45
  -6   6  -8   19.73   12.02
   6  -6   8   23.45   12.11
   6  -6   8   23.54   14.31
  -6   6  -9   60.62   19.73
   6  -6   9   80.01   20.23
  -6   6 -10   34.54   17.86
   6  -6  10   25.48   16.09
  -6   5   9   55.20   19.05
  -6   5   9  101.43   23.88
  -6   5   9   76.54   14.14
   6  -5  -9  100.07   24.21
   6  -5  -9   73.24   20.83
  -6   5   8   95.25   21.67
  -6   5   8  155.70   26.75
  -6   5   8  101.34   21.17
   6  -5  -8  166.03   27.09
   6  -5  -8  105.49   23.03
  -6   5   7   80.43   19.90
  -6   5   7   77.81   18.03
  -6   5   7  138.26   24.21
  -6   5   7  101.34   20.40
  -6   5   7  128.44   14.14
   6  -5  -7  153.92   23.54
   6  -5  -7   90.08   20.32
  -6   5   6   48.17   15.49
  -6   5   6   69.51   18.12
  -6   5   6   52.66   15.92
  -6   5   6   39.28   13.80
  -6   5   6   68.92   11.43
   6  -5  -6   72.05   16.42
   6  -5  -6   41.99   15.16
  -6   5   5  140.12   23.20
  -6   5   5  184.99   19.05
  -6   5   5  158.92   24.30
  -6   5   5  188.29   22.44
  -6   5   5  171.78   24.98
  -6   5   5  208.28   15.41
  -6   5   5  182.79   18.96
   6  -5  -5  223.77   25.06
   6  -5  -5  161.79   24.72
   6  -5  -5  184.06   18.96
  -6   5   4   64.43   15.49
  -6   5   4   59.86   13.80
  -6   5   4   90.34   17.95
  -6   5   4   90.51   17.86
  -6   5   4   76.62   17.36
  -6   5   4  109.73   12.02
  -6   5   4   76.37   15.16
   6  -5  -4   63.08   15.24
   6  -5  -4   77.72   15.24
  -6   5   3  276.77   23.62
  -6   5   3  293.87   23.54
  -6   5   3  376.67   27.52
  -6   5   3  397.76   26.92
  -6   5   3  334.00   27.26
  -6   5   3  401.73   20.40
  -6   5   3  280.75   23.03
   6  -5  -3  408.34   28.70
   6  -5  -3  245.10   22.01
  -6   5   2   53.42   13.38
  -6   5   2   50.63   13.38
  -6   5   2   60.37   13.80
  -6   5   2   68.66   14.14
  -6   5   2   54.35   10.41
  -6   5   2   40.98   12.70
  -6   5   2   78.65   12.19
  -6   5   2   37.59   11.85
   6  -5  -2   70.19   16.26
   6  -5  -2   39.71   12.36
   6  -5  -2   44.87    9.99
  -6   5   1  221.14   21.17
  -6   5   1  201.93   19.39
  -6   5   1  270.42   23.45
  -6   5   1  291.16   21.67
  -6   5   1  232.07   17.69
  -6   5   1  249.17   22.86
  -6   5   1  270.67   18.12
  -6   5   1  209.88   20.74
   6  -5  -1  245.27   22.77
   6  -5  -1  161.96   19.05
   6  -5  -1  211.58   18.03
  -6   5   0   85.09   16.34
  -6   5   0   73.74   14.48
  -6   5   0   89.41   16.85
  -6   5   0   96.94   14.82
  -6   5   0   96.69   14.99
  -6   5   0   86.44   16.68
  -6   5   0  116.16   15.58
  -6   5   0   85.51   15.92
   6  -5   0  103.80   18.46
   6  -5   0   76.20   15.16
   6  -5   0   87.54   14.82
  -6   5  -1  399.53   27.60
  -6   5  -1  582.41   32.09
  -6   5  -1  591.47   28.11
  -6   5  -1  467.43   26.75
  -6   5  -1  485.21   29.46
  -6   5  -1  601.97   28.02
  -6   5  -1  427.05   28.53
   6  -5   1  539.06   30.39
   6  -5   1  399.11   27.85
   6  -5   1  458.21   26.92
  -6   5  -2   21.84   10.08
  -6   5  -2   23.20    8.97
  -6   5  -2   28.53    9.91
  -6   5  -2   21.00    9.57
  -6   5  -2   22.01    9.99
  -6   5  -2   29.38    9.91
  -6   5  -2   14.22    9.14
   6  -5   2   19.73   10.08
   6  -5   2   10.33    8.81
   6  -5   2   27.35   10.67
  -6   5  -3  153.41   21.93
  -6   5  -3  188.97   20.15
  -6   5  -3    8.89    5.25
  -6   5  -3  162.90   18.96
  -6   5  -3  201.76   19.64
  -6   5  -3  208.28   19.39
  -6   5  -3  155.36   21.59
   6  -5   3  175.34   18.63
   6  -5   3  115.74   19.05
   6  -5   3  152.65   18.80
  -6   5  -4  156.80   22.52
  -6   5  -4  180.08   19.98
  -6   5  -4   -2.46    3.47
  -6   5  -4  138.85   20.83
  -6   5  -4  157.56   17.36
  -6   5  -4  192.53   19.64
  -6   5  -4  162.73   22.52
   6  -5   4  168.06   19.81
   6  -5   4  146.39   17.69
   6  -5   4  150.96   22.18
  -6   5  -5   10.16    9.23
  -6   5  -5    3.39    8.38
  -6   5  -5   -1.69    3.73
  -6   5  -5    6.86    7.37
  -6   5  -5    7.79    8.47
  -6   5  -5    6.43    8.55
  -6   5  -5    7.20    8.21
   6  -5   5    5.33    8.72
   6  -5   5    4.49    8.38
   6  -5   5    5.25    7.62
   6  -5   5    8.89    9.06
  -6   5  -6    9.31    8.97
  -6   5  -6    9.91    9.91
  -6   5  -6    0.25    4.32
  -6   5  -6   -3.22    8.21
  -6   5  -6   14.31    9.06
   6  -5   6   -2.46    7.62
   6  -5   6    4.23    8.21
   6  -5   6   -0.34    8.97
  -6   5  -7   30.39   12.02
  -6   5  -7   33.70   13.29
  -6   5  -7   25.31   11.94
  -6   5  -7   27.26   11.43
   6  -5   7   16.68   11.18
   6  -5   7   15.83   10.16
   6  -5   7   22.86   11.94
  -6   5  -8   12.95   12.02
  -6   5  -8   25.06   12.28
  -6   5  -8    6.35    9.31
   6  -5   8    8.38   10.58
   6  -5   8   20.23   13.04
  -6   5  -9   89.58   20.40
  -6   5  -9   56.13   17.53
   6  -5   9   53.17   20.07
   6  -5   9   63.58   19.22
  -6   5 -10  -11.01   11.18
   6  -5  10   -8.55    8.64
  -6   4  10   48.34   17.53
  -6   4  10   56.05   19.47
  -6   4  10   54.69   11.51
   6  -4 -10   40.39   18.71
   6  -4 -10   54.86   18.96
  -6   4   9  196.00   30.14
  -6   4   9  255.10   29.63
   6  -4  -9  278.46   29.89
   6  -4  -9  189.14   29.29
  -6   4   8   65.02   18.54
  -6   4   8   82.55   19.64
  -6   4   8   66.63   16.68
  -6   4   8   87.63   11.85
   6  -4  -8  104.73   20.74
   6  -4  -8   72.64   19.13
  -6   4   7  146.89   24.30
  -6   4   7  178.39   26.25
  -6   4   7  149.09   23.71
  -6   4   7  173.05   25.23
  -6   4   7  174.16   12.95
   6  -4  -7  215.05   22.69
   6  -4  -7  112.18   21.59
  -6   4   6   87.88   18.37
  -6   4   6  124.03   15.49
  -6   4   6   77.47   17.36
  -6   4   6  122.26   20.66
  -6   4   6  109.05   19.90
  -6   4   6  118.36   10.58
  -6   4   6   97.96   15.49
   6  -4  -6  154.60   18.54
   6  -4  -6  100.67   19.39
   6  -4  -6   89.58   15.32
  -6   4   5   73.07   16.85
  -6   4   5   93.81   16.00
  -6   4   5   97.79   18.54
  -6   4   5  101.51   18.37
  -6   4   5   68.83   16.00
  -6   4   5   82.46    9.06
  -6   4   5   76.03   14.56
   6  -4  -5   99.90   15.66
   6  -4  -5   54.69   14.82
   6  -4  -5   81.45   14.90
  -6   4   4   92.28   17.27
  -6   4   4  130.72   18.71
  -6   4   4  104.31   18.29
  -6   4   4  138.34   19.39
  -6   4   4   96.26   18.12
  -6   4   4  124.63   10.41
  -6   4   4   94.66   15.83
   6  -4  -4  162.90   15.92
   6  -4  -4  120.82   18.03
  -6   4   3    6.01    6.27
  -6   4   3   12.62    8.13
  -6   4   3    3.47    8.04
  -6   4   3   11.26    7.96
  -6   4   3    7.54    6.18
  -6   4   3   12.36    9.65
  -6   4   3   13.80    5.59
  -6   4   3   10.41    8.04
   6  -4  -3    8.97    8.97
   6  -4  -3    6.01    7.54
   6  -4  -3    8.81    6.77
  -6   4   2   58.08   13.89
  -6   4   2   69.26   14.05
  -6   4   2   82.97   15.92
  -6   4   2  100.84   14.99
  -6   4   2   97.03   14.48
  -6   4   2   56.89   14.22
  -6   4   2   94.49   10.24
  -6   4   2   80.18   14.73
   6  -4  -2   86.95   16.42
   6  -4  -2   80.60   14.99
   6  -4  -2   88.56   13.97
  -6   4   1   38.10   11.60
  -6   4   1   47.50   12.28
  -6   4   1   40.72   11.26
  -6   4   1   48.77   10.50
  -6   4   1   35.47    9.74
  -6   4   1   33.44   11.51
  -6   4   1   56.89    9.91
  -6   4   1   33.78   10.67
   6  -4  -1   44.96   12.62
   6  -4  -1   25.65   10.08
   6  -4  -1   26.84    9.48
  -6   4   0  455.41   27.60
  -6   4   0  437.38   27.26
  -6   4   0  557.77   29.80
  -6   4   0  480.30   25.74
  -6   4   0  458.71   27.09
  -6   4   0  583.17   24.72
  -6   4   0  428.40   26.84
   6  -4   0  538.30   30.14
   6  -4   0  477.68   28.19
   6  -4   0  494.70   26.33
  -6   4  -1   21.50    9.74
  -6   4  -1   36.66   10.67
  -6   4  -1   29.97    8.89
  -6   4  -1   19.90    8.38
  -6   4  -1   30.90   10.75
  -6   4  -1   39.45    9.99
  -6   4  -1   28.36   10.67
   6  -4   1   25.06    9.14
   6  -4   1   22.94    8.97
   6  -4   1   30.65   10.33
  -6   4  -2   24.04    9.99
  -6   4  -2   33.87   10.41
  -6   4  -2   23.11    7.96
  -6   4  -2   16.09    9.31
  -6   4  -2   16.42    9.06
  -6   4  -2   24.30    9.14
  -6   4  -2   13.38    8.72
   6  -4   2   16.59    9.48
   6  -4   2   14.22    7.54
   6  -4   2   21.93    9.74
  -6   4  -3  272.20   22.69
  -6   4  -3  321.39   24.38
  -6   4  -3  313.77   19.64
  -6   4  -3  246.21   22.18
  -6   4  -3  285.66   21.67
  -6   4  -3  395.72   24.30
  -6   4  -3  278.21   23.03
   6  -4   3  295.14   23.71
   6  -4   3  255.35   22.27
   6  -4   3  282.44   23.37
  -6   4  -4   35.64   11.85
  -6   4  -4   17.95    9.99
  -6   4  -4   36.41    9.99
  -6   4  -4   20.83    9.31
  -6   4  -4   41.32   11.18
  -6   4  -4   53.17   13.12
  -6   4  -4   32.34   11.43
   6  -4   4   35.22   10.92
   6  -4   4   24.38    9.91
   6  -4   4   38.61   12.87
   6  -4   4   28.02   10.24
  -6   4  -5   46.57   12.95
  -6   4  -5   72.05   16.26
  -6   4  -5   67.65   12.28
  -6   4  -5   50.80   13.72
  -6   4  -5   85.43   15.24
  -6   4  -5   96.60   17.19
  -6   4  -5   58.25   13.46
   6  -4   5   63.33   15.49
   6  -4   5   51.31   13.38
   6  -4   5   40.47   13.38
   6  -4   5   77.81   15.24
  -6   4  -6   81.87   16.17
  -6   4  -6  114.38   19.90
  -6   4  -6  101.26   19.64
  -6   4  -6   96.26   17.19
   6  -4   6   92.79   17.44
   6  -4   6   85.34   16.59
   6  -4   6   75.27   17.69
  -6   4  -7    7.96    8.55
  -6   4  -7   -0.17    8.55
  -6   4  -7    5.50   10.67
  -6   4  -7    9.91    8.47
   6  -4   7    0.42    8.21
   6  -4   7    1.69    6.94
   6  -4   7   -0.25    8.72
  -6   4  -8   55.12   16.42
  -6   4  -8   45.38   16.59
   6  -4   8   28.11   13.12
   6  -4   8   46.40   16.17
  -6   4  -9    3.64    9.65
  -6   4  -9   -6.60   10.50
   6  -4   9   -3.13    9.06
   6  -4   9   -7.20    8.38
  -6   4 -10   69.00   19.47
  -6   4 -10   45.55   18.54
   6  -4  10   58.16   18.29
   6  -4  10   44.62   16.42
  -6   3  11   12.62   13.04
  -6   3  11   17.44   12.11
  -6   3  11    8.13    7.11
   6  -3 -11    5.08   14.99
   6  -3 -11    7.70   12.28
   6  -3 -11    7.11   11.09
  -6   3  10   63.92   19.13
  -6   3  10   72.98   20.23
  -6   3  10   84.83   11.85
   6  -3 -10  119.89   24.30
   6  -3 -10   82.63   20.49
  -6   3   9   56.98   17.53
  -6   3   9   75.52   19.30
  -6   3   9   75.01   10.33
   6  -3  -9   94.57   21.34
   6  -3  -9   50.71   16.51
  -6   3   8   71.97   17.61
  -6   3   8  103.80   19.81
  -6   3   8   97.20   19.73
  -6   3   8  113.54   20.32
  -6   3   8  107.10    9.40
   6  -3  -8  153.24   23.28
   6  -3  -8   73.57   17.02
  -6   3   7  159.42   24.72
  -6   3   7  212.85   21.93
  -6   3   7  259.75   25.06
  -6   3   7  217.67   22.69
  -6   3   7  249.85   11.26
   6  -3  -7  270.33   23.71
   6  -3  -7  194.73   21.00
  -6   3   6   26.50   10.50
  -6   3   6   20.07    8.55
  -6   3   6   10.84    9.82
  -6   3   6    9.23    8.97
  -6   3   6   17.10   10.33
  -6   3   6   20.83    4.15
  -6   3   6   18.96    8.38
   6  -3  -6   24.98   10.50
   6  -3  -6   12.28    8.55
   6  -3  -6   15.75    8.04
   6  -3  -6   23.88    9.23
  -6   3   5  139.53   21.00
  -6   3   5  163.49   17.02
  -6   3   5  130.38   19.98
  -6   3   5  152.82   17.53
  -6   3   5  142.07   14.39
  -6   3   5  159.17   19.47
  -6   3   5  172.21    8.13
  -6   3   5  156.29   16.68
   6  -3  -5  189.31   17.95
   6  -3  -5  119.21   19.47
   6  -3  -5  123.61   15.41
   6  -3  -5  150.53   14.73
  -6   3   4   53.59   13.63
  -6   3   4   41.66   10.92
  -6   3   4   43.52   11.85
  -6   3   4   58.08   13.21
  -6   3   4   48.94   10.84
  -6   3   4   48.77   12.87
  -6   3   4   52.66   12.11
   6  -3  -4   67.05   11.43
   6  -3  -4   58.33   13.89
   6  -3  -4   39.37   11.09
   6  -3  -4   39.37   10.08
  -6   3   3   65.78   13.72
  -6   3   3   83.56   14.90
  -6   3   3   98.97   16.59
  -6   3   3  103.29   15.07
  -6   3   3   86.44   13.46
  -6   3   3   83.99   15.92
  -6   3   3   72.90   14.14
   6  -3  -3   96.60   11.09
   6  -3  -3   92.37   15.83
   6  -3  -3   67.99   13.63
   6  -3  -3   74.08   12.87
  -6   3   2   85.26   15.24
  -6   3   2   94.82   15.58
  -6   3   2  107.02   16.42
  -6   3   2   51.65    9.57
  -6   3   2  109.98   13.04
  -6   3   2  116.84   17.95
  -6   3   2  107.52   16.34
   6  -3  -2  110.40   17.36
   6  -3  -2   92.71   15.07
   6  -3  -2  106.42   14.99
  -6   3   1    8.97    7.54
  -6   3   1    6.01    6.69
  -6   3   1   11.43    7.87
  -6   3   1   15.32    6.60
  -6   3   1   10.67    6.60
  -6   3   1   10.08    7.79
  -6   3   1   12.95    7.87
   6  -3  -1   11.60    8.38
   6  -3  -1   14.14    8.30
   6  -3  -1   11.09    7.20
  -6   3   0  128.94   15.49
  -6   3   0  189.48   17.44
  -6   3   0  202.09   14.14
  -6   3   0  162.13   15.24
  -6   3   0  150.79   16.85
  -6   3   0  206.24   14.56
  -6   3   0  139.87   16.17
   6  -3   0  148.59   15.83
   6  -3   0  138.85   15.24
   6  -3   0  152.65   15.83
  -6   3  -1    7.03    6.86
  -6   3  -1   12.70    7.03
  -6   3  -1   16.93    6.18
  -6   3  -1   15.75    8.30
  -6   3  -1    8.30    7.54
  -6   3  -1   20.74    7.62
  -6   3  -1    8.64    7.11
   6  -3   1   16.34    9.31
   6  -3   1    6.69    5.76
   6  -3   1    6.27    6.86
  -6   3  -2  533.30   29.04
  -6   3  -2  694.59   32.68
  -6   3  -2  748.35   24.72
  -6   3  -2  616.61   31.16
  -6   3  -2  621.02   30.06
  -6   3  -2  748.01   30.06
  -6   3  -2  500.88   28.11
   6  -3   2  640.49   32.09
   6  -3   2  497.83   28.19
   6  -3   2  575.64   30.31
   6  -3   2  700.94   32.17
  -6   3  -3   46.06   11.94
  -6   3  -3   65.95   14.56
  -6   3  -3   53.59    9.31
  -6   3  -3   60.28   13.38
  -6   3  -3   54.10   12.28
  -6   3  -3   67.82   12.95
  -6   3  -3   56.47   12.78
   6  -3   3   52.07   12.36
   6  -3   3   56.98   12.95
   6  -3   3   50.21   12.62
   6  -3   3   49.70   12.70
  -6   3  -4   18.80    9.40
  -6   3  -4   31.58   11.51
  -6   3  -4   28.11   10.24
  -6   3  -4   17.78    9.82
  -6   3  -4   21.76    9.14
  -6   3  -4   37.34   11.35
  -6   3  -4    8.21    7.37
   6  -3   4   21.76   10.58
   6  -3   4   23.88    9.82
   6  -3   4   28.28   11.43
   6  -3   4   19.30    9.40
  -6   3  -5   57.83   13.12
  -6   3  -5   59.10   14.56
  -6   3  -5   39.28   13.29
  -6   3  -5   56.81   13.55
  -6   3  -5   41.15   11.43
   6  -3   5   57.74   13.89
   6  -3   5   40.98   11.43
   6  -3   5   38.86   13.04
   6  -3   5   46.23   11.94
  -6   3  -6   60.11   14.05
  -6   3  -6   67.14   16.34
  -6   3  -6   38.01   12.70
  -6   3  -6   42.50   12.19
   6  -3   6   54.78   15.16
   6  -3   6   34.88   11.09
   6  -3   6   66.97   16.51
  -6   3  -7   24.04   10.16
  -6   3  -7   33.10   13.21
  -6   3  -7   24.47   13.46
   6  -3   7   22.10   12.28
   6  -3   7    0.34    5.16
   6  -3   7   15.32    9.82
  -6   3  -8   63.41   17.53
  -6   3  -8   51.81   17.27
   6  -3   8   42.16   14.99
   6  -3   8   44.11   14.56
  -6   3  -9   24.04   13.38
  -6   3  -9   21.42   13.55
   6  -3   9   37.51   14.99
   6  -3   9   27.69   12.45
  -6   3 -10   24.64   14.48
  -6   3 -10   14.48   14.05
   6  -3  10   16.17   13.46
   6  -3  10   13.89   12.19
  -6   2  11   24.98   13.97
  -6   2  11   22.18   14.73
  -6   2  11   41.57    9.74
   6  -2 -11   44.62   18.20
   6  -2 -11   56.30   17.10
   6  -2 -11   43.94   17.36
  -6   2  10   95.16   20.32
  -6   2  10  192.02   29.38
  -6   2  10  146.05   11.77
   6  -2 -10  171.70   27.94
   6  -2 -10  149.69   25.06
   6  -2 -10  195.66   29.63
  -6   2   9  118.19   22.52
  -6   2   9  127.67   23.54
  -6   2   9  121.83    8.89
   6  -2  -9  137.83   23.62
   6  -2  -9   89.58   19.22
  -6   2   8  132.84   21.50
  -6   2   8  165.69   19.30
  -6   2   8  183.72   25.74
  -6   2   8  172.55   20.40
  -6   2   8  186.69    6.77
   6  -2  -8  193.21   22.35
   6  -2  -8  174.24   19.73
  -6   2   7   11.01    9.40
  -6   2   7    8.47    7.70
  -6   2   7    7.20    9.14
  -6   2   7    5.08    8.30
  -6   2   7   10.58    9.57
  -6   2   7   21.76    8.72
   6  -2  -7   12.45    9.23
   6  -2  -7   18.54    9.99
   6  -2  -7   16.68    8.21
   6  -2  -7    4.83    7.54
  -6   2   6   39.88   11.09
  -6   2   6   36.66   12.19
  -6   2   6   29.97    9.82
  -6   2   6   34.04   11.68
  -6   2   6   63.41   13.89
  -6   2   6   45.21   12.19
  -6   2   6   57.57   11.51
  -6   2   6   42.67   10.24
  -6   2   6   32.34   11.85
  -6   2   6   29.63    9.82
   6  -2  -6   47.33   11.94
   6  -2  -6   28.11   11.35
   6  -2  -6   39.79   10.92
   6  -2  -6   40.55   10.08
   6  -2  -6   47.92   10.75
   6  -2  -6   28.11    9.74
  -6   2   5  111.84   13.55
  -6   2   5   96.35   16.59
  -6   2   5  143.51   16.09
  -6   2   5  135.72   19.30
  -6   2   5  167.81   17.27
  -6   2   5  151.30   16.17
  -6   2   5   -1.52    2.88
  -6   2   5  131.74   14.05
  -6   2   5  107.52   18.12
  -6   2   5  121.16   16.93
   6  -2  -5  154.85   16.00
   6  -2  -5  145.54   17.61
   6  -2  -5  107.10   16.09
   6  -2  -5  129.28   14.14
   6  -2  -5  143.85   16.26
  -6   2   4  111.59   11.85
  -6   2   4  104.22   16.76
  -6   2   4  133.18   15.58
  -6   2   4  127.34   18.20
  -6   2   4  131.48   15.66
  -6   2   4  115.57   13.21
  -6   2   4  117.94   13.38
  -6   2   4  109.05   17.53
  -6   2   4  122.43   15.07
   6  -2  -4  139.02   13.29
   6  -2  -4  120.48   18.03
   6  -2  -4  115.31   16.59
   6  -2  -4  124.88   13.89
  -6   2   3  413.16   17.53
  -6   2   3  386.16   24.55
  -6   2   3  466.50   26.16
  -6   2   3  467.01   26.58
  -6   2   3  506.46   26.75
  -6   2   3  443.31   21.67
  -6   2   3  455.58   23.79
  -6   2   3  389.80   25.06
  -6   2   3  479.71   12.11
  -6   2   3  428.91   11.51
  -6   2   3  457.27   25.99
   6  -2  -3  478.61   18.80
   6  -2  -3  478.02   27.09
   6  -2  -3  316.39   21.42
   6  -2  -3  389.88   22.35
  -6   2   2   26.67    9.40
  -6   2   2   26.33    8.89
  -6   2   2   32.17    9.48
  -6   2   2   29.38    9.65
  -6   2   2   23.62    7.11
  -6   2   2   33.78    9.31
  -6   2   2   17.95    8.38
  -6   2   2   27.26    5.42
  -6   2   2   24.81    5.16
  -6   2   2   26.33    8.38
   6  -2  -2   31.83    5.93
   6  -2  -2   33.78   10.58
   6  -2  -2   18.54    8.30
   6  -2  -2   27.01    8.89
  -6   2   1  298.78   21.34
  -6   2   1  266.27   19.64
  -6   2   1  283.71   20.91
  -6   2   1  289.22   14.56
  -6   2   1  239.18   18.37
  -6   2   1  247.31   19.13
  -6   2   1  300.56   14.73
  -6   2   1  270.33   20.40
   6  -2  -1  248.41   19.98
   6  -2  -1  200.91   17.27
   6  -2  -1  245.61   18.12
  -6   2   0   25.82    8.21
  -6   2   0   37.42   10.50
  -6   2   0   34.88   10.33
  -6   2   0   39.88    6.94
  -6   2   0   31.16    9.06
  -6   2   0   30.73   10.16
  -6   2   0   31.92    7.37
  -6   2   0   29.46    8.81
   6  -2   0   37.00    9.99
   6  -2   0   29.12    8.89
   6  -2   0   21.76    8.55
   6  -2   0   46.06   12.11
  -6   2  -1  357.96   23.37
  -6   2  -1  491.31   27.43
  -6   2  -1  502.99   16.76
  -6   2  -1  427.30   24.72
  -6   2  -1  462.27   26.08
  -6   2  -1  362.20   23.45
   6  -2   1  456.26   26.50
   6  -2   1  358.81   22.86
   6  -2   1  396.06   24.55
   6  -2   1  450.67   25.31
  -6   2  -2  273.13   20.91
  -6   2  -2  303.18   22.61
  -6   2  -2  282.02   21.84
  -6   2  -2  255.43   20.15
  -6   2  -2  280.33   21.08
   6  -2   2  306.40   23.03
   6  -2   2  240.19   19.73
   6  -2   2  260.01   20.40
   6  -2   2  314.36   22.35
  -6   2  -3   29.89   10.24
  -6   2  -3   26.92    9.57
  -6   2  -3   20.91    8.72
  -6   2  -3   17.27    8.72
  -6   2  -3   35.73   10.50
  -6   2  -3   25.57    9.48
   6  -2   3   28.62    9.82
   6  -2   3   22.69    9.31
   6  -2   3   18.80    9.40
   6  -2   3   25.82   10.08
  -6   2  -4  640.40   30.99
  -6   2  -4  729.05   35.39
  -6   2  -4  644.55   34.29
  -6   2  -4  848.00   35.05
  -6   2  -4  583.51   29.55
   6  -2   4  658.10   34.37
   6  -2   4  532.03   28.36
   6  -2   4  654.71   34.63
   6  -2   4  696.37   31.66
  -6   2  -5   62.65   13.12
  -6   2  -5   89.41   18.12
  -6   2  -5   75.18   16.85
  -6   2  -5   83.14   15.58
  -6   2  -5   76.88   14.22
   6  -2   5   55.71   14.90
   6  -2   5   62.14   12.78
   6  -2   5   69.00   16.17
   6  -2   5   67.73   14.39
  -6   2  -6  322.49   22.86
  -6   2  -6  366.34   29.04
  -6   2  -6  304.79   25.91
  -6   2  -6  308.60   22.10
   6  -2   6  343.57   28.19
   6  -2   6    1.35    3.89
   6  -2   6  294.13   26.33
  -6   2  -7   74.08   18.54
  -6   2  -7   69.34   18.03
   6  -2   7   35.81   14.14
   6  -2   7   55.12   15.66
  -6   2  -8   26.58   14.31
  -6   2  -8   30.73   14.39
   6  -2   8   29.21   13.38
   6  -2   8   17.69   11.85
  -6   2  -9   49.36   17.27
  -6   2  -9   51.05   17.78
   6  -2   9   39.37   15.83
   6  -2   9   38.86   15.16
  -6   2 -10    8.30   13.97
  -6   2 -10   14.05   11.18
   6  -2  10   14.14   13.97
   6  -2  10    8.97   11.68
  -6   1  12    5.42   13.12
  -6   1  12   18.71    7.87
   6  -1 -12    8.21   15.41
   6  -1 -12   28.28   16.42
  -6   1  11  102.53   23.71
  -6   1  11   91.01   10.67
   6  -1 -11  108.71   24.81
   6  -1 -11   93.64   22.27
  -6   1  10   84.92   20.57
  -6   1  10   69.34   17.19
  -6   1  10  107.86   22.27
  -6   1  10   95.25    8.47
   6  -1 -10   83.23   20.23
   6  -1 -10   81.19   18.12
   6  -1 -10  106.93   22.18
  -6   1   9  141.14   23.11
  -6   1   9  102.53   19.39
  -6   1   9  135.04   22.44
  -6   1   9  133.60    5.50
   6  -1  -9  205.06   24.04
   6  -1  -9  102.70   19.13
   6  -1  -9  169.92   25.57
  -6   1   8  115.48   19.73
  -6   1   8  112.35   19.22
  -6   1   8  119.80   19.47
  -6   1   8  127.51   21.08
  -6   1   8   35.73   10.75
  -6   1   8  129.54   15.83
  -6   1   8  112.94   18.63
   6  -1  -8  169.08   23.71
   6  -1  -8  126.07   20.23
   6  -1  -8  108.79   18.63
   6  -1  -8   86.78   17.61
   6  -1  -8  133.09   20.91
   6  -1  -8  111.16   17.02
   6  -1  -8  120.22   17.53
  -6   1   7  253.40   21.93
  -6   1   7  250.86   21.76
  -6   1   7  302.76   21.76
  -6   1   7  283.88   22.86
  -6   1   7  396.23   25.23
  -6   1   7  368.55   26.25
  -6   1   7  323.00   22.27
  -6   1   7  320.96   22.35
  -6   1   7  313.68   24.81
  -6   1   7  293.11   21.34
   6  -1  -7  376.67   26.08
   6  -1  -7  293.45   21.67
   6  -1  -7  274.40   22.44
   6  -1  -7  276.43   21.50
   6  -1  -7  310.30   22.01
   6  -1  -7  306.49   22.18
   6  -1  -7  285.15   21.50
  -6   1   6  438.99   25.74
  -6   1   6  331.89   23.71
  -6   1   6  415.20   25.06
  -6   1   6  384.97   25.06
  -6   1   6  507.73   28.11
  -6   1   6  406.56   25.06
  -6   1   6  411.81   24.47
  -6   1   6  403.60   24.38
  -6   1   6  428.74   26.75
  -6   1   6  414.77   24.98
   6  -1  -6  486.15   26.67
   6  -1  -6  467.86   27.60
   6  -1  -6  302.51   22.52
   6  -1  -6  395.05   24.81
   6  -1  -6  353.56   22.77
   6  -1  -6  477.68   26.92
  -6   1   5   26.50    8.47
  -6   1   5   24.38    8.55
  -6   1   5   20.83    9.06
  -6   1   5   23.71    9.48
  -6   1   5   30.82   10.08
  -6   1   5   32.00    9.82
  -6   1   5   31.92    9.48
  -6   1   5   36.91   10.24
  -6   1   5   35.39   11.35
  -6   1   5   35.64   10.08
   6  -1  -5   30.39    9.14
   6  -1  -5   32.93    9.40
   6  -1  -5   25.40    9.40
   6  -1  -5   21.59    8.64
   6  -1  -5   23.20    9.40
  -6   1   4  597.99   24.13
  -6   1   4  518.40   27.26
  -6   1   4  560.82   28.45
  -6   1   4  662.67   30.31
  -6   1   4  796.61   33.70
  -6   1   4  641.76   25.48
  -6   1   4  636.00   28.87
  -6   1   4  670.46   29.46
  -6   1   4  682.99   31.92
  -6   1   4  615.94   29.63
   6  -1  -4  665.30   25.40
   6  -1  -4  681.64   30.82
   6  -1  -4  648.36   30.39
   6  -1  -4  586.05   27.85
   6  -1  -4  635.66   30.31
  -6   1   3   26.50    6.86
  -6   1   3   30.39    9.65
  -6   1   3   25.91    9.23
  -6   1   3   39.96   10.50
  -6   1   3   40.72   11.09
  -6   1   3   35.47    7.79
  -6   1   3   32.34    9.23
  -6   1   3   24.30    9.74
  -6   1   3   39.62    3.64
  -6   1   3   31.58    3.47
  -6   1   3   30.73    9.31
   6  -1  -3   44.96   11.18
   6  -1  -3   31.33    9.40
   6  -1  -3   33.87    9.48
   6  -1  -3   23.79    9.65
   6  -1  -3   46.40   11.18
  -6   1   2  276.52   12.78
  -6   1   2  285.41   20.15
  -6   1   2  277.45   19.90
  -6   1   2  321.73   21.93
  -6   1   2  313.34   14.48
  -6   1   2  261.44   19.13
  -6   1   2  262.29   19.56
  -6   1   2  328.84   12.62
  -6   1   2  260.34   11.43
  -6   1   2  253.91   19.05
   6  -1  -2  269.74   19.98
   6  -1  -2  232.91   19.05
   6  -1  -2  238.16   17.86
   6  -1  -2  302.00   20.91
  -6   1   1  460.24   13.63
  -6   1   1  527.29   27.18
  -6   1   1  458.12   25.15
  -6   1   1  482.93   26.33
  -6   1   1  492.83   14.99
  -6   1   1  443.05   24.47
  -6   1   1  443.90   25.40
  -6   1   1  539.91   18.96
  -6   1   1  533.64   27.35
   6  -1  -1  443.73   24.89
   6  -1  -1  370.66   23.37
   6  -1  -1  422.99   24.13
   6  -1  -1  528.22   27.69
  -6   1   0   95.33   14.65
  -6   1   0  107.02   15.83
  -6   1   0  127.51   15.24
  -6   1   0  105.41   12.78
  -6   1   0  120.82   17.10
  -6   1   0  126.07   11.68
  -6   1   0  111.50   13.12
   6  -1   0  120.31   17.19
   6  -1   0   83.06   14.22
   6  -1   0   99.99   15.24
   6  -1   0  128.44   15.58
  -6   1  -1 1040.62   37.68
  -6   1  -1 1136.88   40.13
  -6   1  -1 1178.20   39.71
  -6   1  -1  972.21   37.25
  -6   1  -1 1113.60   39.12
  -6   1  -1 1216.46   34.37
  -6   1  -1  992.95   36.83
   6  -1   1 1086.08   39.37
   6  -1   1  831.58   33.53
   6  -1   1  968.48   37.25
   6  -1   1 1109.36   39.12
  -6   1  -2  182.28   17.27
  -6   1  -2  203.62   18.29
  -6   1  -2  218.52   18.63
  -6   1  -2  197.61   17.95
  -6   1  -2  203.28   17.53
  -6   1  -2  217.84   17.02
  -6   1  -2  162.05   16.42
   6  -1   2  159.25   17.44
   6  -1   2  145.03   15.75
   6  -1   2  160.52   17.44
   6  -1   2  214.37   19.05
  -6   1  -3  707.54   31.50
  -6   1  -3  778.32   35.98
  -6   1  -3  672.66   32.93
  -6   1  -3  744.12   32.26
   6  -1   3  688.92   33.44
   6  -1   3  595.11   29.04
   6  -1   3  647.35   33.02
   6  -1   3  761.05   33.10
  -6   1  -4  344.76   22.69
  -6   1  -4  391.83   26.75
  -6   1  -4  314.61   24.72
  -6   1  -4  315.12   21.84
   6  -1   4  362.03   26.84
   6  -1   4  263.22   20.23
   6  -1   4  361.26   26.33
   6  -1   4  342.22   24.30
  -6   1  -5   60.96   12.87
  -6   1  -5   68.16   16.34
  -6   1  -5   74.93   16.17
  -6   1  -5   94.74   17.19
  -6   1  -5   62.74   12.70
   6  -1   5   57.40   15.24
   6  -1   5   35.56   10.33
   6  -1   5   54.52   14.22
   6  -1   5   73.57   14.73
  -6   1  -6   12.19    8.30
  -6   1  -6   24.47   12.45
  -6   1  -6    5.67    8.97
   6  -1   6    8.89    7.96
   6  -1   6    9.14    8.97
   6  -1   6   11.43    8.81
  -6   1  -7  107.44   21.00
  -6   1  -7   76.11   17.86
   6  -1   7   81.62   19.05
   6  -1   7   75.44   17.61
  -6   1  -8   55.62   17.61
  -6   1  -8   53.85   16.93
   6  -1   8   43.09   16.34
   6  -1   8   65.11   16.59
  -6   1  -9    2.79   12.02
  -6   1  -9   -2.62   10.24
   6  -1   9    4.57   11.43
   6  -1   9    7.62   11.26
  -6   1 -10   49.87   19.73
  -6   1 -10   38.86   16.93
   6  -1  10   43.18   16.17
   6  -1  10   25.23   15.16
  -6   0  12    7.62   14.39
  -6   0  12    4.06   13.46
  -6   0  12    9.65    6.43
   6   0 -12   13.29   16.09
   6   0 -12   24.04   15.32
  -6   0  11    6.60   12.19
  -6   0  11   -5.42   10.16
  -6   0  11    3.73    4.83
   6   0 -11    4.32   12.53
   6   0 -11    7.37   11.94
  -6   0  10   43.26   15.75
  -6   0  10   34.54   14.65
  -6   0  10   51.81    6.43
   6   0 -10   70.78   19.22
   6   0 -10   65.45   17.86
  -6   0   9  211.07   24.21
  -6   0   9  214.37   21.93
  -6   0   9  262.97   25.99
  -6   0   9  237.65   22.18
   6   0  -9  278.29   27.09
   6   0  -9  232.15   21.59
   6   0  -9  264.66   25.57
   6   0  -9  247.05   23.03
  -6   0   8   26.84   11.85
  -6   0   8   38.01   11.68
  -6   0   8   41.91   11.60
  -6   0   8   37.34   11.35
  -6   0   8    0.93    4.74
  -6   0   8   29.46   11.68
  -6   0   8   35.73   11.43
  -6   0   8   30.48   10.67
  -6   0   8   37.76   12.70
   6   0  -8   21.42   11.51
   6   0  -8   61.55   13.72
   6   0  -8   34.37   11.26
   6   0  -8   29.89   10.58
   6   0  -8   33.10   10.84
   6   0  -8   40.55   12.78
   6   0  -8   38.78   12.11
   6   0  -8   37.42   12.11
   6   0  -8   38.27   11.43
  -6   0   7  415.45   26.92
  -6   0   7  330.19   23.20
  -6   0   7  458.80   26.75
  -6   0   7  465.23   26.67
  -6   0   7  557.69   29.80
  -6   0   7  526.36   29.46
  -6   0   7  478.27   28.19
  -6   0   7  473.02   27.69
  -6   0   7  462.44   27.18
   6   0  -7  490.04   29.12
   6   0  -7  510.19   27.77
   6   0  -7  468.70   27.26
   6   0  -7  370.15   23.88
   6   0  -7  542.53   29.97
   6   0  -7  409.78   26.58
   6   0  -7  539.40   28.79
   6   0  -7  461.08   27.09
  -6   0   6  272.45   20.66
  -6   0   6  222.84   18.96
  -6   0   6  344.84   23.37
  -6   0   6  312.24   21.50
  -6   0   6  383.70   24.64
  -6   0   6  368.04   23.54
  -6   0   6  323.67   22.27
  -6   0   6  294.63   21.84
  -6   0   6  306.91   22.61
  -6   0   6  343.82   24.04
   6   0  -6  314.45   21.59
   6   0  -6  332.90   23.28
   6   0  -6  383.53   23.96
   6   0  -6  310.72   22.61
   6   0  -6  273.47   21.59
   6   0  -6  342.30   23.54
   6   0  -6  351.95   24.72
  -6   0   5  349.41   20.91
  -6   0   5  308.77   21.00
  -6   0   5  395.30   24.72
  -6   0   5  401.73   23.20
  -6   0   5  366.68   24.04
  -6   0   5  264.41   17.61
  -6   0   5  354.41   23.45
  -6   0   5  351.02   23.20
  -6   0   5  388.10   24.64
  -6   0   5  432.30   25.74
   6   0  -5  387.26   23.11
   6   0  -5  372.19   20.83
   6   0  -5  342.05   22.86
   6   0  -5  433.31   25.82
   6   0  -5  414.43   25.48
  -6   0   4    2.46    5.16
  -6   0   4    8.89    6.43
  -6   0   4    6.86    5.67
  -6   0   4    3.56    5.76
  -6   0   4    2.62    6.69
  -6   0   4   10.16    5.84
  -6   0   4    7.03    5.93
  -6   0   4    2.29    5.93
  -6   0   4    4.66    6.86
  -6   0   4    8.13    6.18
   6   0  -4    8.30    6.60
   6   0  -4    5.00    5.00
   6   0  -4    1.19    4.32
   6   0  -4    4.40    7.28
   6   0  -4   11.35    6.60
  -6   0   3  160.78   12.19
  -6   0   3  129.28   15.16
  -6   0   3  183.47   16.00
  -6   0   3  168.40   16.93
  -6   0   3  160.27   11.43
  -6   0   3  192.44   17.69
  -6   0   3  160.95   16.09
  -6   0   3  149.86   16.42
  -6   0   3  184.06    7.87
  -6   0   3  148.16    7.11
  -6   0   3  174.41   16.85
   6   0  -3  183.55   16.26
   6   0  -3  168.48   11.51
   6   0  -3  159.68   16.26
   6   0  -3  176.44   17.61
   6   0  -3  161.63   16.85
  -6   0   2   64.68    9.06
  -6   0   2   39.28    9.99
  -6   0   2   42.67   10.58
  -6   0   2   72.90   13.63
  -6   0   2   49.11    6.43
  -6   0   2   46.73   11.26
  -6   0   2   70.86   13.80
  -6   0   2   55.46    6.86
  -6   0   2   48.43    7.03
  -6   0   2   49.70   11.51
   6   0  -2   63.58   11.77
   6   0  -2   51.65    6.18
   6   0  -2   51.31   11.51
   6   0  -2   44.45   11.35
   6   0  -2   41.82   11.01
  -6   0   1   77.38    8.04
  -6   0   1   81.79   13.89
  -6   0   1   85.26   13.46
  -6   0   1   58.67   11.68
  -6   0   1   64.85   12.62
  -6   0   1   73.32   13.80
  -6   0   1   80.60    8.97
  -6   0   1   63.50   12.36
   6   0  -1   63.08   12.45
   6   0  -1   65.53   12.62
   6   0  -1   72.56   13.46
   6   0  -1   63.58   13.04
   6   0  -1   71.80   13.55
  -6   0   0 1135.69   24.98
  -6   0   0 1050.18   37.76
  -6   0   0 1137.39   39.03
  -6   0   0 1229.59   40.89
  -6   0   0  982.20   37.08
  -6   0   0 1260.83   33.10
  -6   0   0 1048.66   37.59
   6   0   0 1072.11   37.51
   6   0   0  939.53   35.90
   6   0   0 1025.97   37.93
   6   0   0 1095.56   39.03
   6   0   0 1116.81   38.95
  -6   0  -1  370.92   15.16
  -6   0  -1  307.59   21.34
  -6   0  -1  364.99   23.79
  -6   0  -1  408.17   24.30
  -6   0  -1  338.32   23.03
  -6   0  -1  432.30   22.01
  -6   0  -1  308.86   21.42
   6   0   1  336.37   23.03
   6   0   1  302.08   20.57
   6   0   1  309.03   22.35
   6   0   1  364.23   23.88
   6   0   1  385.06   23.79
  -6   0  -2  289.05   14.56
  -6   0  -2  255.69   19.81
  -6   0  -2  297.60   22.69
  -6   0  -2  296.92   21.25
  -6   0  -2  267.12   21.34
  -6   0  -2  313.18   20.32
  -6   0  -2  268.13   20.15
   6   0   2  260.26   21.59
   6   0   2  235.03   18.96
   6   0   2  246.54   20.74
   6   0   2  298.70   22.35
   6   0   2  302.08   21.42
  -6   0  -3   79.16   10.84
  -6   0  -3   66.46   12.95
  -6   0  -3   63.92   14.39
  -6   0  -3   76.03   13.97
  -6   0  -3   69.68   14.48
  -6   0  -3   94.82   14.99
  -6   0  -3   73.83   13.55
   6   0   3   49.87   13.72
   6   0   3   72.05   13.38
   6   0   3   64.01   14.39
   6   0   3   80.94   15.41
   6   0   3   66.97   13.38
  -6   0  -4   12.87    7.62
  -6   0  -4    9.74    7.45
  -6   0  -4   15.41    8.13
  -6   0  -4    9.65    8.97
  -6   0  -4    5.67    8.21
  -6   0  -4    6.43    6.94
   6   0   4    9.48    9.31
   6   0   4   11.85    7.70
   6   0   4    6.60    6.52
   6   0   4   11.77    8.55
   6   0   4   12.78    8.04
  -6   0  -5   91.44   15.07
  -6   0  -5   98.30   18.37
  -6   0  -5   82.80   16.76
  -6   0  -5  100.58   15.24
   6   0   5  101.34   19.05
   6   0   5   81.87   14.22
   6   0   5   96.18   18.03
   6   0   5   84.58   16.17
   6   0   5  111.33   16.76
  -6   0  -6   80.69   19.13
  -6   0  -6   64.35   15.92
   6   0   6   59.52   16.93
   6   0   6   70.95   16.85
   6   0   6   54.78   13.55
  -6   0  -7   -7.54    8.81
  -6   0  -7    4.40    9.40
   6   0   7    5.25    8.81
   6   0   7    0.93    8.21
  -6   0  -8    0.42   11.18
  -6   0  -8    4.91    9.91
   6   0   8    5.42   10.58
   6   0   8    6.43    9.91
  -6   0  -9   18.29   15.07
  -6   0  -9   36.41   16.00
   6   0   9    6.27   12.70
   6   0   9    1.44    9.57
  -6  -1  12    3.39   13.89
  -6  -1  12    7.03    6.35
   6   1 -12    6.27   14.39
   6   1 -12    7.70   12.87
  -6  -1  11    5.42   13.04
  -6  -1  11   10.41    5.59
   6   1 -11   28.19   16.42
   6   1 -11    6.35   11.60
  -6  -1  10   78.99   19.73
  -6  -1  10   51.73   16.34
  -6  -1  10   39.28   13.12
  -6  -1  10   61.38    6.77
   6   1 -10   58.42   18.29
   6   1 -10   74.00   18.63
   6   1 -10   54.52   16.93
  -6  -1   9   12.70   11.01
  -6  -1   9    1.02    5.50
  -6  -1   9   12.19   10.33
  -6  -1   9   16.85   10.24
  -6  -1   9   11.01    2.20
   6   1  -9   18.54   12.45
   6   1  -9   12.45    8.55
   6   1  -9   16.42   10.41
   6   1  -9   15.66   10.75
  -6  -1   8   66.63   15.92
  -6  -1   8   82.38   18.46
  -6  -1   8   54.61   20.23
  -6  -1   8   88.81   16.09
  -6  -1   8   64.60   15.24
  -6  -1   8   67.99   15.41
  -6  -1   8   53.76   13.63
  -6  -1   8   73.66   14.82
   6   1  -8   96.69   15.66
   6   1  -8   94.57   17.10
   6   1  -8   71.88   14.56
   6   1  -8   96.77   17.44
   6   1  -8   77.72   16.68
   6   1  -8   83.31   15.24
   6   1  -8   77.98   15.92
  -6  -1   7   21.17   10.16
  -6  -1   7   11.43    7.54
  -6  -1   7   16.00    8.55
  -6  -1   7   14.73    8.04
  -6  -1   7   16.85    8.81
  -6  -1   7   15.07    9.40
  -6  -1   7   12.45    9.14
  -6  -1   7    9.14    8.13
  -6  -1   7   26.58   10.41
   6   1  -7   15.49    8.13
   6   1  -7   14.90    8.81
   6   1  -7   12.19    7.45
   6   1  -7   23.11    9.48
   6   1  -7   10.08    9.14
   6   1  -7   11.94    7.96
   6   1  -7   15.16    8.97
  -6  -1   6   16.17    8.47
  -6  -1   6   30.65    9.74
  -6  -1   6   27.09    9.99
  -6  -1   6   27.26    8.55
  -6  -1   6   26.08   10.33
  -6  -1   6   10.92    5.93
  -6  -1   6   27.01    9.65
  -6  -1   6   24.30    9.99
  -6  -1   6   22.27    9.91
   6   1  -6   26.50    9.23
   6   1  -6   25.31   10.50
   6   1  -6   23.88    8.81
   6   1  -6   23.45   10.33
   6   1  -6   17.95    8.55
   6   1  -6   13.55    9.31
  -6  -1   5   56.13   12.28
  -6  -1   5   45.47   11.77
  -6  -1   5   -0.08    3.13
  -6  -1   5   60.79   13.55
  -6  -1   5   45.38   10.50
  -6  -1   5   46.65   12.28
  -6  -1   5   48.26   11.77
  -6  -1   5   39.54   11.85
   6   1  -5   52.15   10.92
   6   1  -5   42.08   11.60
   6   1  -5   71.97   12.02
   6   1  -5   44.79   12.02
   6   1  -5   32.68   10.24
   6   1  -5   42.76   11.85
  -6  -1   4  204.21   15.83
  -6  -1   4  278.38   21.42
  -6  -1   4  254.93   17.69
  -6  -1   4  214.88   19.39
  -6  -1   4  241.04   19.47
  -6  -1   4  215.22   19.05
  -6  -1   4  199.89   18.71
  -6  -1   4  204.89    7.70
  -6  -1   4  203.28    7.79
  -6  -1   4  284.22   21.59
   6   1  -4  223.60   17.36
   6   1  -4  255.35   20.91
   6   1  -4  265.59   15.66
   6   1  -4  215.47   18.29
   6   1  -4  251.96   20.23
   6   1  -4  261.78   21.25
  -6  -1   3   91.95   10.58
  -6  -1   3   78.57   14.48
  -6  -1   3  101.94   12.19
  -6  -1   3   90.34   15.16
  -6  -1   3  115.99   17.02
  -6  -1   3  112.60   16.17
  -6  -1   3   95.76    7.87
  -6  -1   3   94.82    7.87
  -6  -1   3   76.62   14.05
   6   1  -3  104.65   12.78
   6   1  -3   94.74   16.17
   6   1  -3  108.96    8.97
   6   1  -3   89.83   15.07
   6   1  -3   72.30   13.72
   6   1  -3  105.49   16.42
  -6  -1   2   47.16    9.06
  -6  -1   2   41.49   11.01
  -6  -1   2   41.57    9.99
  -6  -1   2   42.50   11.18
  -6  -1   2   47.58   11.26
  -6  -1   2   37.17    9.82
  -6  -1   2   44.79    7.62
  -6  -1   2   32.26    9.82
   6   1  -2   38.10    9.74
   6   1  -2   43.43   10.75
   6   1  -2   48.00   11.68
   6   1  -2   35.64   10.67
  -6  -1   1  198.03   13.55
  -6  -1   1  199.47   18.12
  -6  -1   1  218.44   17.61
  -6  -1   1  210.73   18.63
  -6  -1   1  196.34   18.12
  -6  -1   1  234.35   14.65
  -6  -1   1  201.67   17.95
   6   1  -1  209.80   16.68
   6   1  -1  164.00   16.00
   6   1  -1  192.78   18.29
   6   1  -1  193.71   18.20
  -6  -1   0   15.41    5.93
  -6  -1   0   17.02    8.30
  -6  -1   0   17.36    7.11
  -6  -1   0   20.57    8.81
  -6  -1   0    8.81    6.10
  -6  -1   0   13.46    6.10
  -6  -1   0   11.60    7.37
   6   1   0   14.39    8.04
   6   1   0   11.51    7.70
   6   1   0   23.37    8.72
   6   1   0   17.61    8.55
  -6  -1  -1   54.19    9.31
  -6  -1  -1   50.21   11.68
  -6  -1  -1   47.50   11.35
  -6  -1  -1   35.81   10.41
  -6  -1  -1   43.26   11.51
  -6  -1  -1   48.34   10.24
  -6  -1  -1   34.63   10.16
   6   1   1   32.17   10.41
   6   1   1   39.37   11.18
   6   1   1   51.90   12.02
   6   1   1   56.22   12.36
  -6  -1  -2  630.92   24.64
  -6  -1  -2  545.33   27.77
  -6  -1  -2  616.95   31.41
  -6  -1  -2  680.03   30.90
  -6  -1  -2  528.82   29.46
  -6  -1  -2  658.95   29.55
  -6  -1  -2  555.49   27.94
   6   1   2  566.49   30.14
   6   1   2  502.32   26.92
   6   1   2  521.20   28.62
   6   1   2  563.78   30.39
   6   1   2  585.03   28.79
  -6  -1  -3  106.17   12.87
  -6  -1  -3  129.88   17.78
  -6  -1  -3  107.86   18.20
  -6  -1  -3   97.79   15.16
  -6  -1  -3   91.44   16.42
  -6  -1  -3  117.43   17.44
  -6  -1  -3  116.58   16.68
   6   1   3   88.14   16.42
   6   1   3   76.37   13.46
   6   1   3  112.77   17.95
   6   1   3  110.74   18.12
   6   1   3  103.29   16.17
  -6  -1  -4  311.65   20.23
  -6  -1  -4  354.58   23.11
  -6  -1  -4  314.02   25.31
  -6  -1  -4  357.88   22.86
  -6  -1  -4  310.30   24.72
  -6  -1  -4  353.98   24.98
  -6  -1  -4  365.58   23.45
   6   1   4  277.45   25.15
   6   1   4   -0.68    2.96
   6   1   4  297.77   24.30
   6   1   4  299.46   24.21
   6   1   4  380.99   24.21
  -6  -1  -5    9.91    8.55
  -6  -1  -5   13.21    8.64
  -6  -1  -5   16.00   10.08
   6   1   5    8.55    9.82
   6   1   5    9.57    8.81
   6   1   5   11.51   10.16
  -6  -1  -6   64.85   17.53
  -6  -1  -6  104.73   19.73
   6   1   6   59.10   16.09
   6   1   6   67.56   16.00
   6   1   6   64.26   16.17
  -6  -1  -7   23.54   12.11
  -6  -1  -7    1.19    9.65
   6   1   7   16.17   12.02
   6   1   7    7.54   10.41
  -6  -1  -8   31.92   14.31
  -6  -1  -8   34.12   14.48
   6   1   8   37.08   16.26
   6   1   8   38.52   15.32
  -6  -1  -9   12.02   12.28
   6   1   9    7.37   13.89
  -6  -2  12   48.09   19.90
  -6  -2  12   35.31   14.82
  -6  -2  12   32.77    8.97
   6   2 -12   39.20   19.22
   6   2 -12   24.55   15.75
   6   2 -12   48.34   17.95
  -6  -2  11   92.37   22.18
  -6  -2  11  108.37   21.67
  -6  -2  11   98.63   10.92
   6   2 -11  132.84   26.92
   6   2 -11  117.60   23.79
   6   2 -11   99.65   22.10
  -6  -2  10   -1.19    9.82
  -6  -2  10    0.34    8.89
  -6  -2  10    1.95    4.06
   6   2 -10   -0.08    9.23
   6   2 -10    3.39   10.67
  -6  -2   9   41.40   14.39
  -6  -2   9   53.08   13.63
  -6  -2   9   22.61   11.18
  -6  -2   9   36.91    5.84
   6   2  -9   41.66   13.72
   6   2  -9   44.11   14.39
   6   2  -9   49.95   14.90
   6   2  -9   43.77   13.63
  -6  -2   8    9.31    9.14
  -6  -2   8   17.19    9.40
  -6  -2   8   14.48    9.57
  -6  -2   8   12.19    9.14
  -6  -2   8   17.27    3.73
   6   2  -8   24.21   10.58
   6   2  -8   22.77   11.01
   6   2  -8   24.30   11.68
   6   2  -8   14.82   10.16
   6   2  -8   23.54   10.92
  -6  -2   7  107.52   18.63
  -6  -2   7  123.19   18.96
  -6  -2   7  129.11   20.49
  -6  -2   7  123.61   19.47
  -6  -2   7  110.66    6.01
   6   2  -7  104.31   17.95
   6   2  -7  143.17   19.64
   6   2  -7  115.40   19.64
   6   2  -7  131.15   15.92
   6   2  -7   82.63   16.26
  -6  -2   6  287.10   22.44
  -6  -2   6  337.05   24.72
  -6  -2   6  349.67   19.90
  -6  -2   6  332.06   24.64
  -6  -2   6  318.93   24.98
  -6  -2   6  282.19   23.45
  -6  -2   6  267.12    9.40
   6   2  -6  329.01   19.22
   6   2  -6  321.56   24.81
   6   2  -6  350.17   22.01
   6   2  -6  317.07   25.06
   6   2  -6  316.05   22.35
   6   2  -6  315.29   24.55
  -6  -2   5   26.42    9.31
  -6  -2   5   21.17    8.55
  -6  -2   5   34.71    8.97
  -6  -2   5   43.26   11.94
  -6  -2   5   27.43   10.75
  -6  -2   5   35.47   11.68
  -6  -2   5   33.61    5.25
   6   2  -5   34.20    8.47
   6   2  -5   30.65   10.16
   6   2  -5   48.09   10.16
   6   2  -5   38.01   11.01
   6   2  -5   31.41   10.24
  -6  -2   4   15.75    7.11
  -6  -2   4   11.94    7.79
  -6  -2   4   12.53    6.86
  -6  -2   4    7.62    6.52
  -6  -2   4   13.21    8.64
  -6  -2   4    9.91    6.35
  -6  -2   4   14.14    4.74
   6   2  -4   10.50    6.35
   6   2  -4   10.08    8.38
   6   2  -4   16.76    6.35
   6   2  -4   10.08    7.96
   6   2  -4    5.76    7.54
   6   2  -4   10.33    8.30
  -6  -2   3   79.84   12.53
  -6  -2   3   76.79   14.82
  -6  -2   3   83.65   12.70
  -6  -2   3   80.26   14.82
  -6  -2   3   76.20   14.05
  -6  -2   3   85.85   14.73
  -6  -2   3   78.91    8.97
   6   2  -3   77.21   13.04
   6   2  -3   66.21   14.05
   6   2  -3   64.94   13.21
   6   2  -3   74.67   14.31
   6   2  -3   72.56   14.48
  -6  -2   2  352.37   20.32
  -6  -2   2  342.13   23.71
  -6  -2   2  311.82   19.81
  -6  -2   2  324.77   22.44
  -6  -2   2  357.71   24.30
  -6  -2   2  322.32   22.35
  -6  -2   2  347.63   17.61
   6   2  -2  282.44   19.05
   6   2  -2  325.87   23.54
   6   2  -2  286.59   21.93
   6   2  -2  309.62   22.77
   6   2  -2  339.93   23.96
  -6  -2   1   28.70    8.21
  -6  -2   1   22.94    9.40
  -6  -2   1   24.98    8.72
  -6  -2   1   28.87   10.08
  -6  -2   1   34.80   10.92
  -6  -2   1   26.84    9.74
  -6  -2   1   17.53    6.77
   6   2  -1   24.55    8.97
   6   2  -1   19.56    9.65
   6   2  -1   18.71    8.89
   6   2  -1   22.52    9.06
   6   2  -1   34.12   10.75
  -6  -2   0   80.60   12.19
  -6  -2   0   69.68   13.46
  -6  -2   0   96.43   15.66
  -6  -2   0   94.82   15.58
  -6  -2   0   75.27   14.65
  -6  -2   0   94.49   13.80
  -6  -2   0   79.58   13.89
   6   2   0   68.83   12.87
   6   2   0   72.47   13.97
   6   2   0   82.12   14.65
   6   2   0   61.64   13.63
   6   2   0   73.49   13.89
  -6  -2  -1  101.85   12.19
  -6  -2  -1   90.25   15.41
  -6  -2  -1   91.69   16.00
  -6  -2  -1   82.89   14.82
  -6  -2  -1   69.76   14.05
  -6  -2  -1   92.79   14.31
   6   2   1   98.04   16.51
   6   2   1   88.05   15.49
   6   2   1  108.29   17.19
   6   2   1   91.10   16.51
   6   2   1  113.45   17.10
  -6  -2  -2  287.61   19.30
  -6  -2  -2  273.04   20.83
  -6  -2  -2  256.45   22.35
  -6  -2  -2  290.82   22.01
  -6  -2  -2  245.44   21.42
  -6  -2  -2  310.64   22.61
   6   2   2  243.33   20.91
   6   2   2  245.36   20.15
   6   2   2  231.73   20.57
   6   2   2  218.35   21.50
   6   2   2  228.34   19.73
  -6  -2  -3  523.74   26.67
  -6  -2  -3  493.93   26.84
  -6  -2  -3  445.34   29.12
  -6  -2  -3  523.31   27.69
  -6  -2  -3  436.96   28.11
  -6  -2  -3  538.81   29.80
   6   2   3  457.61   30.31
   6   2   3  442.04   25.65
   6   2   3  403.77   24.47
   6   2   3  454.23   28.53
   6   2   3  465.57   29.80
   6   2   3  462.35   26.33
  -6  -2  -4  203.96   19.13
  -6  -2  -4  212.17   18.12
  -6  -2  -4  197.27   21.25
  -6  -2  -4  241.46   19.56
  -6  -2  -4  202.86   21.17
  -6  -2  -4  277.87   23.37
   6   2   4  168.23   24.55
   6   2   4  216.83   18.63
   6   2   4  188.29   17.19
   6   2   4  168.57   19.39
   6   2   4  220.21   22.44
   6   2   4  218.10   18.80
  -6  -2  -5  423.75   27.60
  -6  -2  -5  367.11   30.56
  -6  -2  -5  400.72   28.87
   6   2   5  353.56   29.89
   6   2   5  351.19   26.92
   6   2   5  318.42   26.67
  -6  -2  -6   57.40   16.17
  -6  -2  -6   46.31   16.34
  -6  -2  -6   45.80   13.97
   6   2   6   51.48   16.68
   6   2   6   56.39   14.73
   6   2   6   42.25   14.73
  -6  -2  -7   33.53   15.49
  -6  -2  -7   60.70   15.75
   6   2   7   29.63   15.32
   6   2   7   52.92   14.99
  -6  -2  -8   26.25   15.75
   6   2   8   33.10   16.93
  -6  -2  -9   15.24   13.63
   6   2   9    3.22   12.78
  -6  -3  12   36.66   18.29
  -6  -3  12   25.48   14.31
  -6  -3  12   21.17    8.64
   6   3 -12   63.67   21.76
   6   3 -12   38.10   17.61
   6   3 -12   30.06   16.85
  -6  -3  11    9.99   11.26
  -6  -3  11   24.47   13.63
  -6  -3  11   12.28    6.69
   6   3 -11   11.51   13.12
   6   3 -11   14.99   11.51
  -6  -3  10    8.72   11.26
  -6  -3  10   20.07   10.75
  -6  -3  10   12.36   10.92
  -6  -3  10   10.67    6.01
   6   3 -10   25.23   11.77
   6   3 -10   17.36   12.36
   6   3 -10   24.55   13.72
  -6  -3   9    2.37    9.91
  -6  -3   9   12.87    9.14
  -6  -3   9    5.84    9.31
  -6  -3   9    9.99    5.25
   6   3  -9    6.52    8.81
   6   3  -9    4.57    9.57
   6   3  -9    8.04   10.67
   6   3  -9    6.18    9.14
  -6  -3   8   49.87   14.99
  -6  -3   8   27.43   11.35
  -6  -3   8   38.69   13.38
  -6  -3   8   44.20   13.04
  -6  -3   8   25.06    6.10
   6   3  -8   22.10   11.26
   6   3  -8   40.30   12.95
   6   3  -8   30.90   11.94
   6   3  -8   25.48   11.51
  -6  -3   7   59.01   14.82
  -6  -3   7   57.74   14.56
  -6  -3   7   46.06   13.89
  -6  -3   7   58.25   15.07
  -6  -3   7   55.20    7.96
   6   3  -7   68.16   16.26
   6   3  -7   90.93   15.75
   6   3  -7   77.81   17.95
   6   3  -7   77.47   14.31
   6   3  -7   47.50   13.89
  -6  -3   6   24.21   10.33
  -6  -3   6   24.81   10.08
  -6  -3   6   32.34   12.11
  -6  -3   6   33.19   11.85
  -6  -3   6   28.02    6.35
   6   3  -6   30.73   11.85
   6   3  -6   39.88   11.09
   6   3  -6   26.67   11.60
   6   3  -6   19.98    9.14
   6   3  -6   41.49   12.62
  -6  -3   5  170.51   18.03
  -6  -3   5  211.75   15.92
  -6  -3   5  201.16   19.39
  -6  -3   5  184.99   20.40
  -6  -3   5  200.32   20.66
  -6  -3   5  172.46   12.02
   6   3  -5  166.54   13.89
   6   3  -5  171.11   19.64
   6   3  -5  199.81   16.09
   6   3  -5  188.97   18.96
   6   3  -5  158.49   19.30
  -6  -3   4  132.75   15.75
  -6  -3   4  113.70   18.20
  -6  -3   4  119.63   12.62
  -6  -3   4  104.14   16.93
  -6  -3   4   99.48   17.44
  -6  -3   4  102.70   17.19
  -6  -3   4  104.82   10.84
   6   3  -4  117.77   12.19
   6   3  -4   92.45   17.27
   6   3  -4  104.39   17.10
   6   3  -4  113.62   17.78
   6   3  -4  104.65   17.95
  -6  -3   3  121.41   14.65
  -6  -3   3  115.23   17.95
  -6  -3   3  132.42   13.29
  -6  -3   3  114.81   17.95
  -6  -3   3  125.47   18.63
  -6  -3   3  139.27   16.09
  -6  -3   3  144.01   12.87
   6   3  -3  130.05   13.29
   6   3  -3  109.89   18.29
   6   3  -3  129.54   18.96
   6   3  -3  124.03   15.41
   6   3  -3  137.33   19.81
  -6  -3   2    6.01    6.43
  -6  -3   2   10.41    8.13
  -6  -3   2    8.72    6.18
  -6  -3   2    3.98    5.76
  -6  -3   2    4.06    8.04
  -6  -3   2    2.46    6.69
  -6  -3   2   12.95    6.69
   6   3  -2    5.00    6.60
   6   3  -2   11.51    8.47
   6   3  -2    2.88    6.94
   6   3  -2   10.33    7.37
   6   3  -2    7.79    7.79
  -6  -3   1   -0.25    6.35
  -6  -3   1    2.88    7.11
  -6  -3   1   -1.44    5.08
  -6  -3   1   -2.12    4.74
  -6  -3   1   -2.46    6.52
  -6  -3   1    0.76    5.00
  -6  -3   1   -1.69    4.83
   6   3  -1   -1.95    5.50
   6   3  -1    1.19    6.94
   6   3  -1   -4.83    5.59
   6   3  -1    4.49    7.79
   6   3  -1   -2.29    6.77
  -6  -3   0  233.25   18.54
  -6  -3   0  218.94   19.98
  -6  -3   0  211.75   18.80
  -6  -3   0  205.90   19.73
  -6  -3   0  187.02   18.88
  -6  -3   0  216.91   18.03
   6   3   0  193.63   18.20
   6   3   0  189.90   19.39
   6   3   0  182.11   17.78
   6   3   0  200.99   20.91
   6   3   0  184.91   19.30
  -6  -3  -1   36.49   11.26
  -6  -3  -1   42.08   11.43
  -6  -3  -1   44.96   12.45
  -6  -3  -1   40.81   11.60
  -6  -3  -1   40.72   12.02
  -6  -3  -1   39.45   11.18
   6   3   1   38.01   11.77
   6   3   1   35.05   11.18
   6   3   1   41.91   12.02
   6   3   1   29.46   12.19
   6   3   1   31.33   10.67
  -6  -3  -2   22.44    9.40
  -6  -3  -2   31.83   10.41
  -6  -3  -2    8.81    8.55
  -6  -3  -2   18.46    8.81
  -6  -3  -2   15.07    9.40
  -6  -3  -2   14.39    8.97
   6   3   2   15.32    9.23
   6   3   2   27.26   10.24
   6   3   2   22.86    9.57
   6   3   2   34.20   12.70
   6   3   2   21.00    9.82
  -6  -3  -3   43.09   13.04
  -6  -3  -3   32.17   10.41
  -6  -3  -3   36.41   12.95
  -6  -3  -3   34.46   10.58
  -6  -3  -3   22.94   10.16
  -6  -3  -3   58.59   14.56
   6   3   3   30.56   11.94
   6   3   3   39.28   11.43
   6   3   3   43.52   12.28
   6   3   3   26.42   12.62
   6   3   3   17.53    9.31
  -6  -3  -4  306.15   24.72
  -6  -3  -4  302.51   27.69
  -6  -3  -4  312.33   25.15
   6   3   4  304.54   27.60
   6   3   4  282.02   24.21
   6   3   4  271.35   25.99
  -6  -3  -5  111.76   20.66
  -6  -3  -5  102.78   20.57
  -6  -3  -5  111.67   18.96
   6   3   5   99.90   21.17
   6   3   5   99.14   18.03
  -6  -3  -6   28.19   13.63
  -6  -3  -6   28.96   15.24
   6   3   6   35.73   15.16
   6   3   6   17.86   13.21
  -6  -3  -7  255.10   28.02
  -6  -3  -7  197.35   30.39
   6   3   7  200.06   31.16
  -6  -3  -8   28.11   16.51
   6   3   8   28.11   16.76
  -6  -4  12   24.21   15.83
  -6  -4  12   25.48   14.48
  -6  -4  12   28.28   10.08
   6   4 -12   25.91   16.26
   6   4 -12   26.33   17.19
  -6  -4  11   19.81   14.48
  -6  -4  11    8.55   11.18
  -6  -4  11   11.01    7.37
   6   4 -11   18.96   13.46
   6   4 -11    7.37   10.84
  -6  -4  10   33.02   15.24
  -6  -4  10   17.86   10.67
  -6  -4  10   34.29   14.65
  -6  -4  10   20.49    7.79
   6   4 -10   25.06   12.53
   6   4 -10   36.15   14.65
   6   4 -10   24.72   14.48
   6   4 -10   19.56   12.36
  -6  -4   9    6.18   10.33
  -6  -4   9    2.37    7.96
  -6  -4   9    5.59    8.13
  -6  -4   9   10.50    6.35
   6   4  -9    3.64    8.64
   6   4  -9    7.70    9.99
   6   4  -9   -2.20    6.77
   6   4  -9   -0.08    8.64
  -6  -4   8  145.71   23.03
  -6  -4   8  133.86   21.42
  -6  -4   8  140.54   23.11
  -6  -4   8  121.83   21.76
  -6  -4   8  125.22   12.45
   6   4  -8  147.82   23.11
   6   4  -8  139.87   20.91
   6   4  -8  155.70   25.06
   6   4  -8  140.12   22.27
  -6  -4   7    0.08    8.55
  -6  -4   7    1.95    7.79
  -6  -4   7    7.37    7.54
  -6  -4   7    2.20    6.69
  -6  -4   7   -0.51    4.83
   6   4  -7   -1.52    5.93
   6   4  -7    1.35    6.77
   6   4  -7   -0.51    6.27
   6   4  -7   -1.78    6.43
   6   4  -7   -2.12    7.45
  -6  -4   6  232.91   22.94
  -6  -4   6  229.44   23.03
  -6  -4   6  237.57   24.13
  -6  -4   6  258.14   24.47
  -6  -4   6  249.59   16.34
   6   4  -6  273.72   25.65
   6   4  -6  310.30   21.59
   6   4  -6  271.27   25.48
   6   4  -6  268.56   22.18
   6   4  -6  268.98   25.06
  -6  -4   5   79.67   16.34
  -6  -4   5   83.82   17.10
  -6  -4   5  100.24   17.95
  -6  -4   5   97.79   18.03
  -6  -4   5   73.24   11.26
   6   4  -5   64.26   16.26
   6   4  -5  102.70   20.91
   6   4  -5   97.87   17.86
   6   4  -5   72.73   15.16
   6   4  -5   75.61   16.59
  -6  -4   4   68.16   14.65
  -6  -4   4   57.57   13.97
  -6  -4   4   82.89   16.51
  -6  -4   4   72.05   15.49
  -6  -4   4   81.96   12.28
   6   4  -4   66.38   15.41
   6   4  -4   80.60   15.75
   6   4  -4   84.24   16.17
   6   4  -4   75.44   16.00
  -6  -4   3  130.21   18.88
  -6  -4   3  157.98   14.73
  -6  -4   3  143.17   17.10
  -6  -4   3  167.47   22.94
  -6  -4   3  155.70   18.80
  -6  -4   3  144.10   14.99
   6   4  -3  129.96   13.29
   6   4  -3  129.79   19.73
   6   4  -3  107.35   18.03
   6   4  -3  127.59   19.81
   6   4  -3  114.81   19.47
  -6  -4   2   38.69   11.60
  -6  -4   2   21.84    7.70
  -6  -4   2   40.05   12.70
  -6  -4   2   60.28   13.46
  -6  -4   2   26.25    9.65
  -6  -4   2   41.23   10.16
   6   4  -2   31.33    9.23
   6   4  -2   44.79   13.04
   6   4  -2   36.91   11.26
   6   4  -2   36.41   12.70
   6   4  -2   33.78   12.19
  -6  -4   1  522.47   29.04
  -6  -4   1  522.13   27.35
  -6  -4   1  486.57   29.97
  -6  -4   1  577.08   31.50
  -6  -4   1  509.77   30.23
  -6  -4   1  543.55   28.19
   6   4  -1  479.03   26.25
   6   4  -1  461.25   29.46
   6   4  -1  452.28   28.53
   6   4  -1  466.50   30.56
   6   4  -1  475.39   29.80
  -6  -4   0    9.65    8.47
  -6  -4   0    9.65    7.79
  -6  -4   0   19.64    9.99
  -6  -4   0   12.78    8.89
  -6  -4   0   13.89    8.97
   6   4   0   14.90    7.28
   6   4   0   14.48    9.48
   6   4   0   16.26    8.81
   6   4   0   19.98   11.60
   6   4   0   13.12    9.40
  -6  -4  -1   82.80   16.09
  -6  -4  -1   84.07   16.34
  -6  -4  -1   71.20   14.99
  -6  -4  -1   49.02   13.38
  -6  -4  -1   70.78   15.16
   6   4   1   61.47   14.14
   6   4   1   71.03   15.32
   6   4   1   53.93   13.38
   6   4   1   58.84   14.99
   6   4   1   54.10   13.72
  -6  -4  -2    5.42    7.79
  -6  -4  -2    8.55    9.14
  -6  -4  -2    5.50    7.20
  -6  -4  -2    8.97    8.38
  -6  -4  -2   10.58    8.89
   6   4   2    0.42    7.79
   6   4   2    6.27    8.64
   6   4   2    3.73    6.86
   6   4   2    5.16    9.99
   6   4   2    6.43    8.81
  -6  -4  -3   44.45   14.39
  -6  -4  -3   34.63   12.62
  -6  -4  -3   37.00   11.51
  -6  -4  -3   32.51   11.77
  -6  -4  -3   70.10   16.51
   6   4   3   32.17   11.77
   6   4   3   36.91   11.85
   6   4   3   45.80   13.12
   6   4   3   33.78   14.31
  -6  -4  -4   25.31   13.12
  -6  -4  -4   18.96   12.45
  -6  -4  -4   17.53   10.58
   6   4   4   24.21   12.70
   6   4   4   24.30   11.35
   6   4   4   20.23   12.45
  -6  -4  -5   -7.20    8.72
  -6  -4  -5    2.96    7.70
   6   4   5    3.05   10.33
   6   4   5   -7.28    9.57
  -6  -4  -6  121.41   23.62
   6   4   6  127.00   25.23
  -6  -4  -7   -3.81   11.94
  -6  -4  -7   -3.89    7.87
   6   4   7    3.05   12.11
  -6  -5  12   18.46   16.59
  -6  -5  12   31.16   14.05
  -6  -5  12   18.80    9.74
   6   5 -12   37.68   18.12
   6   5 -12   25.06   17.53
  -6  -5  11   73.91   20.74
  -6  -5  11   54.02   18.46
  -6  -5  11   69.26   13.80
   6   5 -11   75.61   31.33
   6   5 -11  109.89   24.47
   6   5 -11   99.40   24.64
  -6  -5  10    8.81   10.58
  -6  -5  10   13.80   11.51
  -6  -5  10   13.89   12.78
  -6  -5  10    6.10    7.45
   6   5 -10   -3.81    9.57
   6   5 -10   13.38   12.95
   6   5 -10   11.60   11.51
  -6  -5   9    4.49   10.41
  -6  -5   9   13.80   10.50
  -6  -5   9   13.21    9.31
  -6  -5   9   11.60    7.45
   6   5  -9   23.79   13.21
   6   5  -9   22.27   11.85
   6   5  -9   19.22   13.21
  -6  -5   8    9.99   10.92
  -6  -5   8   13.12   10.41
  -6  -5   8   11.51   10.84
  -6  -5   8   15.83   11.68
  -6  -5   8    6.18    6.86
   6   5  -8   12.36   10.58
   6   5  -8    6.86   10.16
   6   5  -8   14.39   11.94
   6   5  -8    6.35   10.33
  -6  -5   7   38.01   13.29
  -6  -5   7   51.81   14.90
  -6  -5   7   39.45   14.05
  -6  -5   7   45.55   14.90
  -6  -5   7   39.79    9.99
   6   5  -7   39.28   14.39
   6   5  -7   52.41   13.97
   6   5  -7   27.85   13.04
   6   5  -7   52.07   13.29
   6   5  -7   35.98   13.72
  -6  -5   6  150.70   22.35
  -6  -5   6  136.06   22.10
  -6  -5   6  155.02   24.47
  -6  -5   6  133.52   21.59
  -6  -5   6  120.31   14.05
   6   5  -6  141.39   23.20
   6   5  -6  135.72   22.18
   6   5  -6  124.12   19.39
   6   5  -6  128.94   22.01
  -6  -5   5   65.45   15.75
  -6  -5   5   68.24   16.42
  -6  -5   5   66.04   15.41
  -6  -5   5   64.09   15.41
  -6  -5   5   56.30   11.51
   6   5  -5   72.64   17.44
   6   5  -5   76.03   16.93
   6   5  -5   52.58   14.14
   6   5  -5   76.20   17.36
  -6  -5   4  241.21   23.28
  -6  -5   4  210.82   21.50
  -6  -5   4  239.69   22.86
  -6  -5   4  236.21   23.37
  -6  -5   4  242.90   19.64
   6   5  -4  200.40   21.59
   6   5  -4  216.66   21.50
   6   5  -4  203.28   22.35
   6   5  -4  241.80   23.45
   6   5  -4  204.30   21.50
  -6  -5   3   40.64   12.78
  -6  -5   3   38.27   12.87
  -6  -5   3   42.50   14.05
  -6  -5   3   34.71   12.53
  -6  -5   3   47.50   11.94
   6   5  -3   39.12   14.22
   6   5  -3   40.05   13.12
   6   5  -3   25.57   12.11
   6   5  -3   35.22   13.55
  -6  -5   2  368.80   27.35
  -6  -5   2  389.12   23.54
  -6  -5   2  352.29   26.67
  -6  -5   2  406.14   28.87
  -6  -5   2  378.03   27.85
  -6  -5   2  384.63   24.89
   6   5  -2  341.28   22.18
   6   5  -2  300.05   26.25
   6   5  -2  359.83   26.16
   6   5  -2  379.98   28.11
   6   5  -2  313.85   26.50
  -6  -5   1   21.84    9.57
  -6  -5   1   27.60    9.91
  -6  -5   1   20.23   10.50
  -6  -5   1   28.36   12.11
  -6  -5   1   17.02   10.08
  -6  -5   1   18.63    9.57
   6   5  -1   19.98    8.89
   6   5  -1   13.89   10.50
   6   5  -1   19.39    9.65
   6   5  -1   26.33   11.09
   6   5  -1   17.69   10.75
  -6  -5   0    0.51    7.70
  -6  -5   0   -6.01    5.25
  -6  -5   0    0.34    7.45
  -6  -5   0    1.19    7.28
  -6  -5   0   -0.42    7.54
   6   5   0   -0.42    6.35
   6   5   0    2.20    8.30
   6   5   0   -0.59    6.60
   6   5   0    0.25    7.28
   6   5   0    0.42    8.21
  -6  -5  -1   52.49   14.65
  -6  -5  -1   41.49   12.95
  -6  -5  -1   55.88   14.90
  -6  -5  -1   60.70   14.56
  -6  -5  -1   63.67   15.24
   6   5   1   59.35   14.31
   6   5   1   55.96   14.48
   6   5   1   61.04   14.65
   6   5   1   30.73   13.80
   6   5   1   35.98   12.62
  -6  -5  -2    7.54    9.57
  -6  -5  -2    6.86    9.31
  -6  -5  -2    7.62    9.40
  -6  -5  -2    8.89    9.65
  -6  -5  -2    4.66    9.65
   6   5   2    7.28    8.72
   6   5   2    5.93    8.13
   6   5   2    8.89    7.87
   6   5   2    7.03   10.92
   6   5   2    2.62    8.21
  -6  -5  -3  120.31   22.35
  -6  -5  -3  105.24   20.91
  -6  -5  -3  116.16   18.88
   6   5   3  105.58   20.83
   6   5   3  102.36   18.88
   6   5   3   79.33   20.07
  -6  -5  -4   21.93   13.46
  -6  -5  -4   26.67   14.39
   6   5   4   26.33   13.21
   6   5   4   20.91   13.55
  -6  -5  -5   98.97   23.20
  -6  -5  -5   97.45   22.44
   6   5   5   85.17   21.50
  -6  -5  -6   16.85   16.17
  -6  -5  -6   18.80   14.73
   6   5   6    9.57   13.12
   6   5   6    0.76   13.04
  -6  -6  11   66.63   21.76
  -6  -6  11   55.54   18.96
  -6  -6  11   55.20   18.20
  -6  -6  11   52.83   14.05
   6   6 -11   50.29   18.20
   6   6 -11   58.33   19.47
   6   6 -11   44.28   18.88
  -6  -6  10   68.66   19.05
  -6  -6  10   41.91   15.41
  -6  -6  10   48.34   17.61
  -6  -6  10   57.83   13.46
   6   6 -10   49.11   17.27
   6   6 -10   76.28   19.98
   6   6 -10   47.50   19.13
  -6  -6   9   31.07   15.16
  -6  -6   9   39.20   15.49
  -6  -6   9   43.18   14.82
  -6  -6   9   17.61    9.40
   6   6  -9   32.43   15.41
   6   6  -9   39.71   14.31
   6   6  -9   30.65   15.49
  -6  -6   8   81.87   20.40
  -6  -6   8   69.17   18.03
  -6  -6   8   94.40   20.57
  -6  -6   8   83.39   15.16
   6   6  -8   92.79   21.34
   6   6  -8   59.10   18.12
  -6  -6   7  151.47   25.23
  -6  -6   7  130.38   22.77
  -6  -6   7  135.63   23.11
  -6  -6   7  160.78   26.33
  -6  -6   7  151.21   17.36
   6   6  -7  132.08   23.54
   6   6  -7  111.84   22.27
   6   6  -7   88.73   17.10
  -6  -6   6   36.83   14.05
  -6  -6   6   24.64   12.19
  -6  -6   6   24.21   13.04
  -6  -6   6   16.17   12.02
  -6  -6   6   26.58   10.33
   6   6  -6   29.46   13.89
   6   6  -6   17.53   11.85
   6   6  -6   25.99   12.02
   6   6  -6   15.07   18.96
  -6  -6   5   88.73   18.46
  -6  -6   5  119.55   21.42
  -6  -6   5  137.83   22.35
  -6  -6   5  112.27   21.17
  -6  -6   5  124.80   18.46
   6   6  -5   97.20   20.07
   6   6  -5   99.99   20.23
   6   6  -5   92.54   18.46
   6   6  -5   72.81   17.95
  -6  -6   4   10.84   10.58
  -6  -6   4   13.21   10.33
  -6  -6   4   16.17    9.91
  -6  -6   4   16.42   10.67
  -6  -6   4   12.78    9.23
   6   6  -4   12.02    9.31
   6   6  -4   13.46    9.82
   6   6  -4   10.67   10.58
   6   6  -4   10.50   10.50
   6   6  -4    5.67    8.47
  -6  -6   3   30.06   12.87
  -6  -6   3   41.49   13.97
  -6  -6   3   39.12   14.14
  -6  -6   3   15.66    9.06
  -6  -6   3   25.99   10.67
   6   6  -3   32.85   13.72
   6   6  -3   30.48   11.85
   6   6  -3   31.50   11.60
   6   6  -3   18.20   11.85
   6   6  -3   25.91   13.04
  -6  -6   2   67.56   16.93
  -6  -6   2   62.06   16.42
  -6  -6   2   67.73   16.42
  -6  -6   2   45.89   13.80
  -6  -6   2   61.30   14.73
   6   6  -2   49.53   15.58
   6   6  -2   51.73   14.22
   6   6  -2   49.87   16.09
   6   6  -2   44.28   14.39
  -6  -6   1   35.39   13.80
  -6  -6   1    5.67    5.50
  -6  -6   1   19.30   11.09
  -6  -6   1   26.33   11.68
  -6  -6   1   29.04   12.11
  -6  -6   1   23.96   11.09
   6   6  -1   29.80   10.33
   6   6  -1   19.05   11.26
   6   6  -1   23.62   10.58
   6   6  -1   10.92   11.94
   6   6  -1   24.30   12.19
  -6  -6   0   30.65   13.29
  -6  -6   0   50.46   13.46
  -6  -6   0   49.44   14.73
  -6  -6   0   45.72   13.89
  -6  -6   0   43.09   13.80
   6   6   0   56.89   14.05
   6   6   0   33.19   13.21
   6   6   0   47.92   13.46
   6   6   0   29.63   14.56
   6   6   0   35.81   13.63
  -6  -6  -1    4.74   10.24
  -6  -6  -1    1.52    8.21
  -6  -6  -1    5.76    8.97
  -6  -6  -1   -1.61    7.62
  -6  -6  -1   12.19    9.91
   6   6   1   -0.51    7.37
   6   6   1    5.84    9.65
   6   6   1    2.96    7.70
   6   6   1    2.12   10.75
   6   6   1   12.78   10.58
  -6  -6  -2   82.72   19.56
  -6  -6  -2   62.40   16.42
  -6  -6  -2  101.43   21.50
   6   6   2   41.49   13.97
   6   6   2   79.50   23.11
   6   6   2   52.15   17.69
  -6  -6  -3   14.14   13.04
  -6  -6  -3   26.75   13.38
   6   6   3   19.56   11.77
   6   6   3   14.05   13.12
  -6  -6  -4   23.28   14.90
  -6  -6  -4   10.75   12.19
   6   6   4   13.72   12.28
   6   6   4    1.27   12.11
  -6  -6  -5    5.59   13.80
  -6  -6  -5    9.57   12.87
   6   6   5   11.94   13.04
   6   6   5   19.13   14.39
  -6  -7  10   23.03   16.59
  -6  -7  10   30.99   14.99
  -6  -7  10   18.88   13.80
  -6  -7  10   19.81   10.84
   6   7 -10   13.55   14.82
   6   7 -10    2.29   13.63
  -6  -7   9  128.61   25.23
  -6  -7   9  157.31   26.75
  -6  -7   9  138.93   26.67
  -6  -7   9  160.02   19.98
   6   7  -9  121.92   25.31
   6   7  -9  116.58   25.06
  -6  -7   8   43.43   15.75
  -6  -7   8   65.28   19.73
  -6  -7   8   58.67   14.14
   6   7  -8   47.41   17.78
   6   7  -8   75.27   20.49
  -6  -7   7   83.31   19.98
  -6  -7   7   62.65   18.46
  -6  -7   7   89.32   21.25
  -6  -7   7   94.15   20.83
  -6  -7   7   51.48   14.22
   6   7  -7   51.56   18.29
   6   7  -7   48.00   15.16
  -6  -7   6   27.85   12.53
  -6  -7   6   22.27   13.29
  -6  -7   6   28.11   14.56
  -6  -7   6   26.08   13.63
  -6  -7   6   22.86   10.58
   6   7  -6   21.59   13.72
   6   7  -6   33.78   14.73
   6   7  -6   25.82   12.45
  -6  -7   5  113.62   22.18
  -6  -7   5  125.05   23.62
  -6  -7   5  153.07   25.74
  -6  -7   5  115.40   21.84
  -6  -7   5  103.21   18.12
   6   7  -5  111.93   23.03
   6   7  -5   93.72   20.15
   6   7  -5   97.96   19.81
  -6  -7   4   30.56   14.22
  -6  -7   4   29.46   13.55
  -6  -7   4   25.99   13.89
  -6  -7   4   35.31   12.95
  -6  -7   4   34.88   12.62
   6   7  -4   26.67   13.46
   6   7  -4   22.69   11.68
   6   7  -4   30.14   12.45
   6   7  -4   25.65   13.04
  -6  -7   3  141.47   23.11
  -6  -7   3  128.44   23.62
  -6  -7   3  148.76   23.71
  -6  -7   3  127.08   21.93
  -6  -7   3  137.58   21.59
   6   7  -3  123.70   22.86
   6   7  -3  146.98   23.28
   6   7  -3  122.51   21.67
   6   7  -3  101.26   19.98
  -6  -7   2   38.86   15.24
  -6  -7   2   28.79   12.95
  -6  -7   2   22.61   12.53
  -6  -7   2   27.18   11.77
  -6  -7   2   26.84   11.85
   6   7  -2   29.29   13.72
   6   7  -2   26.75   11.35
   6   7  -2   39.79   13.80
   6   7  -2   46.23   16.51
  -6  -7   1   42.25   14.05
  -6  -7   1   40.05   14.65
  -6  -7   1   50.88   15.58
  -6  -7   1   54.69   15.07
  -6  -7   1   51.39   15.24
   6   7  -1   43.43   15.32
   6   7  -1   43.26   13.38
   6   7  -1   32.60   12.45
   6   7  -1   42.50   16.85
  -6  -7   0    5.25   11.26
  -6  -7   0   -0.85    8.04
  -6  -7   0    2.20    7.87
  -6  -7   0    2.12   11.51
   6   7   0    3.56   10.75
   6   7   0   12.02   10.24
   6   7   0   16.93   13.46
   6   7   0    2.62   10.33
  -6  -7  -1   39.79   16.59
  -6  -7  -1   31.92   12.87
  -6  -7  -1   22.44   13.21
   6   7   1   32.77   12.95
   6   7   1   29.46   13.72
   6   7   1   31.41   15.83
  -6  -7  -2   65.62   19.73
  -6  -7  -2   54.27   16.59
   6   7   2   35.73   14.14
   6   7   2   36.24   17.53
  -6  -7  -3   11.94   13.72
  -6  -7  -3   -0.51   10.41
   6   7   3    6.86   11.01
   6   7   3    4.57   13.46
  -6  -7  -4  132.75   26.92
  -6  -7  -4   82.21   21.84
   6   7   4   73.83   21.00
   6   7   4   70.19   21.50
  -6  -8   9   14.05   14.31
  -6  -8   9   16.17   13.29
  -6  -8   9   14.65   12.02
  -6  -8   9   13.55   11.43
   6   8  -9    5.16   14.82
   6   8  -9    8.72   13.80
  -6  -8   8   38.01   17.78
  -6  -8   8   48.51   17.78
  -6  -8   8   47.24   16.76
  -6  -8   8   40.98   13.80
   6   8  -8   39.96   18.29
   6   8  -8   35.64   16.76
  -6  -8   7    1.95   11.43
  -6  -8   7    4.32    9.91
  -6  -8   7   12.28   12.62
  -6  -8   7    4.57   10.16
   6   8  -7    5.50   13.12
   6   8  -7    0.59   10.08
  -6  -8   6   47.67   17.27
  -6  -8   6   59.52   17.53
  -6  -8   6   62.31   19.47
  -6  -8   6   51.56   14.82
   6   8  -6   39.20   17.36
   6   8  -6   51.48   17.10
   6   8  -6   52.58   17.27
  -6  -8   5   27.01   14.90
  -6  -8   5   28.79   13.89
  -6  -8   5   31.50   15.32
  -6  -8   5   16.76   13.04
  -6  -8   5   14.82   11.26
   6   8  -5   22.69   14.82
   6   8  -5   11.09   11.94
   6   8  -5   19.73   13.55
  -6  -8   4  136.40   25.74
  -6  -8   4  133.52   24.30
  -6  -8   4  119.55   23.03
  -6  -8   4  114.72   20.40
   6   8  -4   84.92   21.25
   6   8  -4  100.41   19.98
   6   8  -4  102.36   21.17
   6   8  -4   85.26   20.40
  -6  -8   3    9.99   11.85
  -6  -8   3   13.21   12.19
  -6  -8   3   13.72   12.11
  -6  -8   3   12.45   11.26
  -6  -8   3   16.09   10.75
   6   8  -3   16.68   13.38
   6   8  -3   10.67   10.41
   6   8  -3   16.51   11.51
   6   8  -3   24.13   14.65
  -6  -8   2   72.39   20.32
  -6  -8   2   66.63   18.96
  -6  -8   2   62.06   17.36
  -6  -8   2   79.75   18.12
  -6  -8   2   77.81   18.29
   6   8  -2   68.92   18.80
   6   8  -2   86.44   18.71
   6   8  -2   58.00   18.96
  -6  -8   1   29.12   15.75
  -6  -8   1   12.45   11.85
   6   8  -1   29.04   14.90
   6   8  -1   29.80   14.39
  -6  -8   0  128.44   24.55
   6   8   0   72.64   19.98
   6   8   0   96.01   23.88
  -6  -8  -1   19.64   16.34
   6   8   1   -1.44   12.02
  -6  -8  -2   52.92   18.12
   6   8   2   38.10   17.69
  -6  -9   7   69.09   20.49
  -6  -9   7   92.62   23.20
  -6  -9   7   85.93   19.81
   6   9  -7   73.07   22.01
   6   9  -7   65.62   19.98
  -6  -9   6   -8.55   10.67
  -6  -9   6   -1.78   10.67
  -6  -9   6   -6.10   11.26
  -6  -9   6   10.58   12.02
   6   9  -6   -1.19   12.78
   6   9  -6    3.64   10.75
   6   9  -6    9.31   11.77
  -6  -9   5   84.66   22.27
  -6  -9   5   97.11   22.86
  -6  -9   5   85.17   19.81
   6   9  -5   55.12   19.73
   6   9  -5   65.11   18.54
   6   9  -5   95.33   21.59
   6   9  -5   79.58   21.25
  -6  -9   4    4.40   13.38
  -6  -9   4   19.73   14.48
  -6  -9   4   17.19   13.80
  -6  -9   4    4.91   11.51
  -6  -9   4    8.55   11.60
   6   9  -4   -5.08   11.01
   6   9  -4   14.48   10.84
   6   9  -4    4.23   10.92
   6   9  -4    5.50   13.29
  -6  -9   3  124.20   24.89
  -6  -9   3  143.17   27.01
  -6  -9   3  149.86   29.21
  -6  -9   3  188.72   33.10
   6   9  -3  103.80   23.96
   6   9  -3  124.54   25.65
  -6  -9   2   29.21   14.90
  -6  -9   2   36.74   16.68
   6   9  -2   21.34   15.24
   6   9  -2   13.46   14.31
  -6  -9   1   62.74   19.47
  -6  -9   1   64.94   19.81
   6   9  -1   50.63   18.46
   6   9  -1   39.03   18.80
  -7  10   0   30.06   14.73
  -7  10   0   62.48   20.49
  -7  10   0   53.76   19.22
  -7  10   0   40.22   17.86
  -7  10   0   52.15   19.47
  -7  10   0   69.59   19.39
   7 -10   0   52.32   19.05
   7 -10   0   31.24   14.56
   7 -10   0   44.79   17.69
  -7  10  -1   25.31   14.14
  -7  10  -1   31.07   16.59
  -7  10  -1   32.09   16.42
  -7  10  -1   32.34   17.69
  -7  10  -1   45.13   18.12
  -7  10  -1   40.22   16.42
   7 -10   1   25.65   15.83
   7 -10   1   33.95   14.05
   7 -10   1   28.87   15.07
  -7  10  -2   36.58   17.86
  -7  10  -2   46.40   17.36
  -7  10  -2   20.83   14.99
  -7  10  -2   28.79   15.92
  -7  10  -2   37.17   16.85
   7 -10   2   30.48   16.09
   7 -10   2   18.88   12.62
   7 -10   2   30.14   16.26
  -7  10  -3   23.54   16.93
  -7  10  -3   33.27   17.02
  -7  10  -3   18.96   14.22
   7 -10   3   16.85   15.24
  -7  10  -4    3.98   12.87
  -7  10  -4    5.67   12.70
  -7  10  -4   -2.37   12.19
   7 -10   4   -2.37    9.14
  -7   9   3  110.91   24.30
  -7   9   3  104.82   22.86
  -7   9   3  163.66   28.87
  -7   9   3  118.36   25.99
  -7   9   3  123.95   21.76
   7  -9  -3  142.49   27.94
   7  -9  -3   90.17   21.84
   7  -9  -3  125.81   25.57
  -7   9   2   11.60   12.53
  -7   9   2   24.98   14.22
  -7   9   2   25.91   15.83
  -7   9   2    8.04   12.28
  -7   9   2   28.45   16.76
  -7   9   2   29.04   13.55
   7  -9  -2   14.82   14.99
   7  -9  -2   21.84   12.70
   7  -9  -2   22.69   15.32
  -7   9   1   79.42   19.81
  -7   9   1   78.48   20.66
  -7   9   1  108.79   23.88
  -7   9   1  117.09   24.38
  -7   9   1   86.44   22.69
  -7   9   1  125.47   22.77
   7  -9  -1  114.72   24.30
   7  -9  -1   62.48   17.53
   7  -9  -1   67.14   18.88
  -7   9   0   64.68   18.29
  -7   9   0   65.87   19.98
  -7   9   0   64.51   18.63
  -7   9   0   81.02   20.57
  -7   9   0   64.60   19.90
  -7   9   0   64.77   17.27
   7  -9   0   79.42   20.91
   7  -9   0   46.31   15.83
   7  -9   0   74.93   20.57
  -7   9  -1   57.66   17.44
  -7   9  -1   40.22   16.42
  -7   9  -1   45.63   16.17
  -7   9  -1   52.83   17.44
  -7   9  -1   61.64   19.13
  -7   9  -1   65.70   17.27
   7  -9   1   62.48   18.46
   7  -9   1   26.58   15.07
  -7   9  -2   10.75   10.41
  -7   9  -2    3.39   10.67
  -7   9  -2   -9.74    9.99
  -7   9  -2    4.40   11.18
  -7   9  -2   12.78   11.77
   7  -9   2   13.12   11.18
   7  -9   2    9.31   13.12
  -7   9  -3   -0.51   11.26
  -7   9  -3    2.03   10.08
  -7   9  -3   -7.70   10.24
  -7   9  -3   -9.14    8.64
  -7   9  -3    0.85   11.09
   7  -9   3   -7.45    8.55
   7  -9   3   11.01   11.26
  -7   9  -4   13.80   13.46
  -7   9  -4   30.90   14.05
  -7   9  -4   20.32   14.05
  -7   9  -4   18.54   14.22
  -7   9  -4   12.78   11.94
   7  -9   4   19.30   13.12
   7  -9   4   13.12   14.05
   7  -9   4   24.30   13.80
  -7   9  -5  117.60   24.81
  -7   9  -5  177.54   27.94
  -7   9  -5  106.17   22.69
   7  -9   5  143.00   25.91
  -7   9  -6    7.11   11.94
  -7   9  -6   -0.68   11.35
  -7   9  -6    0.17   11.43
   7  -9   6    1.02   12.02
   7  -9   6   -3.39   11.51
  -7   8   5   68.16   20.40
  -7   8   5  112.27   24.55
  -7   8   5   91.61   22.77
  -7   8   5   85.68   22.44
  -7   8   5   81.02   17.10
   7  -8  -5   59.43   18.12
  -7   8   4   -1.52    9.82
  -7   8   4    0.93    9.65
  -7   8   4   -8.21    9.82
  -7   8   4    5.00   11.09
  -7   8   4    6.94   12.78
  -7   8   4   -0.08    8.30
   7  -8  -4    6.18   13.21
   7  -8  -4    6.27   11.68
   7  -8  -4   -5.93   11.09
  -7   8   3    7.96   10.41
  -7   8   3   35.98   13.97
  -7   8   3   27.52   15.75
  -7   8   3   25.65   14.05
  -7   8   3   23.96   15.58
  -7   8   3   19.98   11.01
   7  -8  -3   19.64   14.31
   7  -8  -3   20.74   12.53
   7  -8  -3   15.41   12.70
  -7   8   2   17.10   11.43
  -7   8   2   28.36   13.63
  -7   8   2   25.82   14.56
  -7   8   2   47.33   16.17
  -7   8   2   30.73   14.05
  -7   8   2   38.01   14.05
   7  -8  -2   32.85   15.92
   7  -8  -2   15.32   11.51
   7  -8  -2   37.76   15.92
  -7   8   1   53.68   16.59
  -7   8   1   50.97   16.68
  -7   8   1   65.19   18.46
  -7   8   1   56.56   16.68
  -7   8   1   40.55   16.34
  -7   8   1   71.37   16.76
   7  -8  -1   71.03   19.47
   7  -8  -1   40.39   14.73
   7  -8  -1   44.20   16.42
  -7   8   0   -4.06    7.87
  -7   8   0    5.76    8.38
  -7   8   0   -0.85    9.82
  -7   8   0    8.38   10.92
  -7   8   0    5.50   10.33
  -7   8   0   -1.02    8.04
   7  -8   0    1.78   10.50
   7  -8   0    0.17   10.24
  -7   8  -1   57.32   16.34
  -7   8  -1   49.02   16.76
  -7   8  -1   72.05   18.37
  -7   8  -1   60.11   16.85
  -7   8  -1   62.65   18.63
  -7   8  -1   77.55   17.44
   7  -8   1   61.97   17.53
   7  -8   1   45.30   15.92
  -7   8  -2   54.95   17.36
  -7   8  -2   72.90   18.29
  -7   8  -2   52.83   16.09
  -7   8  -2   65.53   17.53
  -7   8  -2   47.33   16.34
  -7   8  -2   71.63   17.53
   7  -8   2   72.98   18.37
   7  -8   2   32.51   13.38
   7  -8   2   44.28   17.44
  -7   8  -3   29.63   14.73
  -7   8  -3   36.66   14.14
  -7   8  -3   22.18   12.19
  -7   8  -3   23.45   11.60
  -7   8  -3   21.00   12.87
  -7   8  -3   22.35   12.87
   7  -8   3   21.84   12.87
   7  -8   3   21.76   13.97
   7  -8   3   30.56   13.46
  -7   8  -4   68.24   19.30
  -7   8  -4   85.43   18.54
  -7   8  -4  106.68   21.59
  -7   8  -4   70.10   17.61
  -7   8  -4   79.67   19.39
  -7   8  -4  118.87   22.69
   7  -8   4   66.12   17.69
   7  -8   4   43.60   16.93
   7  -8   4   85.09   19.47
  -7   8  -5   20.23   13.63
  -7   8  -5   44.53   14.99
  -7   8  -5   31.07   13.80
  -7   8  -5   25.06   13.55
   7  -8   5   39.45   15.07
   7  -8   5   15.16   12.70
   7  -8   5   42.16   14.56
  -7   8  -6   36.07   16.09
  -7   8  -6   44.20   17.27
   7  -8   6   17.61   13.29
   7  -8   6   54.35   18.37
  -7   8  -7   22.01   14.99
  -7   8  -7   24.38   15.75
   7  -8   7    5.42   11.77
   7  -8   7   25.06   16.42
  -7   7   7   -7.37   10.16
  -7   7   7    5.08   11.43
  -7   7   7    2.29   12.19
  -7   7   7    8.21    8.72
   7  -7  -7   17.27   14.22
  -7   7   6   75.35   21.59
  -7   7   6  102.95   23.88
  -7   7   6  124.63   26.08
  -7   7   6  128.18   25.99
  -7   7   6   96.86   16.42
   7  -7  -6   53.34   17.02
  -7   7   5    0.34    9.06
  -7   7   5   16.85   13.72
  -7   7   5   -0.34   10.67
  -7   7   5    6.52   11.68
  -7   7   5    1.52    7.54
   7  -7  -5    9.23    9.82
  -7   7   4   32.93   14.56
  -7   7   4   48.09   15.07
  -7   7   4   36.83   15.92
  -7   7   4   42.93   15.92
  -7   7   4   44.62   17.27
  -7   7   4   38.44   11.51
  -7   7   4   38.10   13.80
   7  -7  -4   51.22   18.54
   7  -7  -4   35.05   14.99
   7  -7  -4   27.60   13.38
  -7   7   3   13.80    9.74
  -7   7   3   26.16   12.45
  -7   7   3   24.89   14.56
  -7   7   3   23.03   12.45
  -7   7   3   27.60   14.82
  -7   7   3   18.20    9.74
  -7   7   3   19.64   11.35
   7  -7  -3   31.66   13.21
   7  -7  -3   10.58   10.33
   7  -7  -3   15.32   12.02
  -7   7   2  106.59   21.34
  -7   7   2  113.45   21.59
  -7   7   2  127.17   22.61
  -7   7   2  142.74   23.45
  -7   7   2   96.86   21.08
  -7   7   2  147.66   17.44
  -7   7   2  103.21   20.66
   7  -7  -2  109.13   22.35
   7  -7  -2   85.68   18.29
   7  -7  -2  101.77   21.00
  -7   7   1   44.79   14.99
  -7   7   1   48.51   15.07
  -7   7   1   60.70   17.36
  -7   7   1   65.70   16.34
  -7   7   1   47.41   16.00
  -7   7   1   72.98   15.24
  -7   7   1   36.74   13.80
   7  -7  -1   47.33   16.34
   7  -7  -1   44.45   14.73
  -7   7   0   36.66   12.62
  -7   7   0   55.12   15.49
  -7   7   0   61.38   16.76
  -7   7   0   50.54   14.05
  -7   7   0   53.68   16.76
  -7   7   0   48.77   13.46
  -7   7   0   53.85   15.16
   7  -7   0   47.58   14.90
   7  -7   0   42.93   14.65
  -7   7  -1  143.76   24.04
  -7   7  -1  194.22   23.28
  -7   7  -1  233.59   23.28
  -7   7  -1  151.13   18.54
  -7   7  -1  178.90   26.58
  -7   7  -1  199.72   21.00
   7  -7   1  218.10   24.81
   7  -7   1  127.17   22.77
   7  -7   1  181.27   20.49
  -7   7  -2  104.39   21.00
  -7   7  -2   99.90   20.15
  -7   7  -2  127.42   21.17
  -7   7  -2  110.32   19.47
  -7   7  -2   80.69   18.37
  -7   7  -2  130.13   20.74
   7  -7   2   64.51   16.93
   7  -7   2   81.19   18.71
   7  -7   2   82.29   17.19
  -7   7  -3   66.80   18.29
  -7   7  -3  135.21   23.28
  -7   7  -3  119.04   19.98
  -7   7  -3   83.56   18.29
  -7   7  -3  122.34   22.61
  -7   7  -3  101.68   18.96
   7  -7   3   89.32   19.22
   7  -7   3   75.69   17.36
   7  -7   3   97.36   19.81
  -7   7  -4   27.35   13.97
  -7   7  -4   25.31   12.78
  -7   7  -4   25.65   11.35
  -7   7  -4   23.96   12.19
  -7   7  -4   17.02   12.11
  -7   7  -4   45.04   14.82
   7  -7   4   30.23   13.63
   7  -7   4   18.03   12.11
   7  -7   4   19.73   12.87
  -7   7  -5   -4.83    8.64
  -7   7  -5   11.77   10.41
  -7   7  -5    3.98   10.67
  -7   7  -5   14.05   14.73
   7  -7   5   -0.59    9.23
   7  -7   5    0.00    7.11
   7  -7   5   12.70   12.78
  -7   7  -6   20.91   13.89
  -7   7  -6   16.85   11.35
  -7   7  -6   11.43   12.02
   7  -7   6   16.76   12.36
   7  -7   6    4.40   10.24
   7  -7   6   16.85   13.29
  -7   7  -7   43.77   16.42
  -7   7  -7   42.16   22.01
  -7   7  -7   29.89   15.41
   7  -7   7   44.11   23.20
   7  -7   7   30.23   14.56
   7  -7   7   42.50   17.36
  -7   7  -8   87.97   21.08
  -7   7  -8   44.03   18.54
   7  -7   8   56.98   18.37
   7  -7   8  107.27   23.96
  -7   6   8   43.69   16.42
  -7   6   8   61.97   19.30
  -7   6   8   37.08   17.53
  -7   6   8   52.66   13.38
   7  -6  -8   49.70   17.78
  -7   6   7   36.74   16.34
  -7   6   7   27.85   15.07
  -7   6   7   47.50   17.36
  -7   6   7   20.49   13.63
  -7   6   7   37.08   10.84
   7  -6  -7   20.74   14.90
  -7   6   6   26.58   14.48
  -7   6   6   32.77   15.83
  -7   6   6   40.47   15.66
  -7   6   6   35.47   14.56
  -7   6   6   47.92   11.43
   7  -6  -6   31.24   15.24
  -7   6   5   15.07   11.43
  -7   6   5   11.60    9.91
  -7   6   5    9.48   11.77
  -7   6   5   15.24   12.11
  -7   6   5    8.38   10.67
  -7   6   5   17.36    8.38
   7  -6  -5   17.86   10.67
   7  -6  -5    6.01    9.82
  -7   6   4   63.75   17.78
  -7   6   4  101.43   19.47
  -7   6   4   65.62   18.03
  -7   6   4   92.37   19.64
  -7   6   4   63.84   17.69
  -7   6   4   93.98   14.73
  -7   6   4   90.42   18.29
   7  -6  -4   83.90   19.39
   7  -6  -4   71.46   17.36
  -7   6   3   33.78   13.72
  -7   6   3   58.25   15.83
  -7   6   3   41.57   13.38
  -7   6   3   66.04   15.83
  -7   6   3   55.79   16.00
  -7   6   3   54.44   11.77
  -7   6   3   59.35   16.09
   7  -6  -3   69.43   18.88
   7  -6  -3   38.52   12.62
   7  -6  -3   65.45   15.92
  -7   6   2   97.62   19.64
  -7   6   2  101.94   19.39
  -7   6   2   97.45   19.90
  -7   6   2   97.96   20.23
  -7   6   2  138.93   15.75
  -7   6   2  105.83   19.47
   7  -6  -2  140.04   24.30
   7  -6  -2   82.29   17.78
  -7   6   1   66.55   16.93
  -7   6   1   60.45   15.75
  -7   6   1   69.85   16.00
  -7   6   1   70.36   14.99
  -7   6   1   75.86   15.75
  -7   6   1   58.76   16.68
  -7   6   1   83.48   14.73
  -7   6   1   55.46   15.32
   7  -6  -1   67.90   16.93
   7  -6  -1   61.38   16.09
   7  -6  -1   65.70   14.48
  -7   6   0   77.64   16.68
  -7   6   0   87.63   19.30
  -7   6   0   92.88   18.54
  -7   6   0  103.63   17.02
  -7   6   0   81.11   15.41
  -7   6   0   90.08   19.39
  -7   6   0  112.94   17.02
  -7   6   0   69.34   16.68
   7  -6   0   78.65   17.02
   7  -6   0   89.41   18.88
   7  -6   0   73.49   15.58
  -7   6  -1   69.93   17.44
  -7   6  -1   98.04   18.71
  -7   6  -1   92.54   16.34
  -7   6  -1   72.47   15.58
  -7   6  -1   81.11   18.46
  -7   6  -1   81.11   15.49
  -7   6  -1   60.79   16.00
   7  -6   1   61.81   16.59
   7  -6   1   48.26   14.90
   7  -6   1   55.29   14.99
  -7   6  -2   23.20   12.28
  -7   6  -2   19.47    9.57
  -7   6  -2   18.03    9.06
  -7   6  -2   17.10    9.82
  -7   6  -2   28.79   12.53
  -7   6  -2   34.54   12.02
  -7   6  -2   23.71   11.94
   7  -6   2   16.85   11.09
   7  -6   2   31.58   13.63
   7  -6   2   25.74   11.51
  -7   6  -3   89.58   18.88
  -7   6  -3  114.64   20.40
  -7   6  -3    9.14    6.10
  -7   6  -3   82.72   18.03
  -7   6  -3   78.99   17.44
  -7   6  -3   97.20   17.86
  -7   6  -3   93.30   18.37
   7  -6   3   81.62   17.44
   7  -6   3   57.57   15.92
   7  -6   3  108.54   20.32
  -7   6  -4   14.31   10.84
  -7   6  -4   30.23   12.53
  -7   6  -4   34.97   13.89
  -7   6  -4   18.37   10.33
  -7   6  -4   30.31   12.62
  -7   6  -4   13.80   10.58
   7  -6   4   18.46   11.85
   7  -6   4   25.31   12.53
   7  -6   4   19.56   12.11
  -7   6  -5  142.83   24.13
  -7   6  -5  185.42   22.69
  -7   6  -5  138.26   23.71
  -7   6  -5  154.85   22.01
  -7   6  -5  184.06   22.61
   7  -6   5  167.04   24.98
   7  -6   5  105.15   20.66
   7  -6   5  175.68   26.25
   7  -6   5  189.99   21.67
  -7   6  -6    2.71    9.48
  -7   6  -6    2.96    9.57
  -7   6  -6    9.99   11.60
   7  -6   6   11.01   11.60
   7  -6   6    3.05    8.55
   7  -6   6    4.32   11.43
  -7   6  -7   85.68   19.90
  -7   6  -7  105.92   21.17
  -7   6  -7   88.64   22.10
   7  -6   7   94.82   20.40
   7  -6   7   74.34   19.22
   7  -6   7   91.35   22.10
  -7   6  -8   29.46   13.97
  -7   6  -8   33.61   15.41
  -7   6  -8   36.66   15.24
   7  -6   8   35.14   15.66
   7  -6   8   28.62   14.90
   7  -6   8   33.36   16.09
  -7   6  -9   51.81   18.29
   7  -6   9   65.36   21.08
  -7   5   9    3.13   11.94
  -7   5   9    3.89   11.09
  -7   5   9   -0.68    6.86
   7  -5  -9    2.54   12.02
  -7   5   8  129.71   27.26
  -7   5   8  232.74   28.62
  -7   5   8  127.59   24.47
  -7   5   8  132.92   14.99
   7  -5  -8  119.21   25.31
  -7   5   7  111.67   24.38
  -7   5   7  118.11   23.28
  -7   5   7  165.44   26.92
  -7   5   7  125.90   23.11
  -7   5   7  147.32   14.39
   7  -5  -7   83.65   20.23
  -7   5   6   22.44   13.21
  -7   5   6   28.28   14.31
  -7   5   6   36.74   13.89
  -7   5   6   37.34   14.99
  -7   5   6   32.26    8.72
   7  -5  -6   26.50   13.89
   7  -5  -6   13.46   11.01
  -7   5   5   80.43   18.03
  -7   5   5   85.09   17.10
  -7   5   5   92.28   20.83
  -7   5   5  102.87   19.81
  -7   5   5   71.71   18.88
  -7   5   5   98.89   13.21
  -7   5   5   67.99   14.99
   7  -5  -5   86.70   19.22
   7  -5  -5   54.19   15.16
   7  -5  -5   83.82   17.19
  -7   5   4  131.82   23.03
  -7   5   4  149.60   21.84
  -7   5   4  140.04   22.52
  -7   5   4  187.62   21.25
  -7   5   4  191.00   23.88
  -7   5   4  183.55   15.32
  -7   5   4  171.02   20.49
   7  -5  -4  210.48   24.64
   7  -5  -4  118.45   21.25
   7  -5  -4  131.40   20.66
  -7   5   3  271.86   25.91
  -7   5   3  309.70   26.16
  -7   5   3  344.33   28.70
  -7   5   3  394.79   27.26
  -7   5   3  356.52   29.72
  -7   5   3  325.03   19.39
  -7   5   3  333.58   26.92
   7  -5  -3  373.20   30.14
   7  -5  -3  283.97   25.48
  -7   5   2   53.08   14.90
  -7   5   2   54.52   14.90
  -7   5   2   58.08   15.58
  -7   5   2   81.79   15.16
  -7   5   2   67.90   13.12
  -7   5   2   63.24   17.02
  -7   5   2   72.90   12.62
  -7   5   2   50.80   13.97
   7  -5  -2   58.59   16.34
   7  -5  -2   63.16   15.92
   7  -5  -2   55.79   12.28
  -7   5   1  154.51   18.63
  -7   5   1  166.11   19.22
  -7   5   1  188.89   20.40
  -7   5   1  210.82   19.22
  -7   5   1  155.53   23.62
  -7   5   1  235.03   18.29
  -7   5   1  163.32   18.88
   7  -5  -1  223.68   22.35
   7  -5  -1  154.68   22.86
   7  -5  -1  164.50   17.61
  -7   5   0   64.68   15.32
  -7   5   0  110.15   19.73
  -7   5   0   -1.44    3.64
  -7   5   0   82.04   15.41
  -7   5   0   80.01   18.12
  -7   5   0  101.94   15.66
  -7   5   0   71.97   16.17
   7  -5   0   65.70   16.34
   7  -5   0   69.00   16.09
   7  -5   0   71.80   14.99
  -7   5  -1  175.76   21.00
  -7   5  -1  237.91   23.45
  -7   5  -1  248.41   19.39
  -7   5  -1  191.85   19.98
  -7   5  -1  175.93   19.73
  -7   5  -1  250.61   20.23
  -7   5  -1  183.64   21.42
   7  -5   1  212.25   22.86
   7  -5   1  156.88   22.77
   7  -5   1  186.86   20.32
  -7   5  -2  135.72   21.67
  -7   5  -2  181.69   21.34
  -7   5  -2  181.61   17.69
  -7   5  -2  146.13   21.25
  -7   5  -2  147.99   21.93
  -7   5  -2  212.51   20.23
  -7   5  -2  124.71   20.83
   7  -5   2  158.15   23.54
   7  -5   2  115.82   20.40
   7  -5   2  155.87   22.10
  -7   5  -3   57.40   14.99
  -7   5  -3   45.04   14.14
  -7   5  -3   45.63   14.05
  -7   5  -3   67.22   15.66
  -7   5  -3   53.42   13.97
  -7   5  -3   35.90   12.02
   7  -5   3   30.14   12.78
   7  -5   3   35.56   12.62
   7  -5   3   36.15   13.38
  -7   5  -4    0.34    8.72
  -7   5  -4    5.93    9.40
  -7   5  -4    9.40    9.57
  -7   5  -4    8.81    8.64
  -7   5  -4   -0.17    8.81
  -7   5  -4    6.60    9.06
   7  -5   4    1.44    8.64
   7  -5   4   -3.05    6.52
   7  -5   4    3.98    8.04
   7  -5   4    3.13    8.47
  -7   5  -5   -2.03    7.70
  -7   5  -5   -2.29    7.96
  -7   5  -5    1.19    9.40
  -7   5  -5   -0.68    7.20
  -7   5  -5    5.42    9.40
  -7   5  -5   -1.95    8.21
   7  -5   5   -2.79    8.30
   7  -5   5    9.65    8.97
   7  -5   5    2.54   10.24
   7  -5   5   -3.47    7.54
  -7   5  -6   52.24   15.49
  -7   5  -6   47.24   16.00
  -7   5  -6   35.98   15.07
  -7   5  -6   57.32   15.58
   7  -5   6   69.26   17.78
   7  -5   6   51.48   15.07
   7  -5   6   42.42   15.75
  -7   5  -7    7.37   10.84
  -7   5  -7   -0.25    7.37
  -7   5  -7    3.64    9.31
  -7   5  -7   -0.59    8.72
   7  -5   7    5.67   11.26
   7  -5   7    4.74    9.65
   7  -5   7   -7.37    6.60
  -7   5  -8    4.23   11.43
  -7   5  -8   -1.19    8.81
   7  -5   8   -5.16    9.82
   7  -5   8    8.81   12.53
  -7   5  -9   23.62   14.14
  -7   5  -9   33.53   16.17
   7  -5   9   11.18   13.29
   7  -5   9   39.54   17.19
  -7   4  10   70.95   20.83
  -7   4  10  109.47   25.06
  -7   4  10   87.88   13.72
   7  -4 -10   68.07   20.74
  -7   4   9  219.28   32.85
   7  -4  -9  187.62   29.38
  -7   4   8  169.84   27.94
  -7   4   8  212.85   26.08
  -7   4   8  262.38   28.62
  -7   4   8  210.05   25.74
  -7   4   8  234.78   15.32
   7  -4  -8  172.46   28.53
  -7   4   7   21.17   13.46
  -7   4   7   20.40   13.21
  -7   4   7   27.01   12.62
  -7   4   7   29.21   13.21
  -7   4   7   33.19    7.54
   7  -4  -7   17.44   12.53
  -7   4   6   10.92   11.01
  -7   4   6   14.31    9.82
  -7   4   6   -8.13    7.87
  -7   4   6   22.77   11.18
  -7   4   6    9.99    9.91
  -7   4   6   16.76    5.84
  -7   4   6   14.99   10.50
   7  -4  -6   -6.77    8.64
   7  -4  -6    7.79    9.31
  -7   4   5   14.90    9.14
  -7   4   5   54.61   13.89
  -7   4   5   21.25   11.68
  -7   4   5   36.41   12.36
  -7   4   5   31.33   13.04
  -7   4   5   38.18    7.70
  -7   4   5   29.80   10.92
   7  -4  -5   43.77   13.38
   7  -4  -5   20.66   10.41
   7  -4  -5   31.33   11.18
  -7   4   4   75.18   17.44
  -7   4   4  110.74   19.05
  -7   4   4  120.90   20.32
  -7   4   4  119.63   18.88
  -7   4   4  117.18   21.93
  -7   4   4  121.24   11.09
  -7   4   4  110.06   18.29
   7  -4  -4  117.43   21.08
   7  -4  -4   73.91   15.75
  -7   4   3   68.07   16.17
  -7   4   3   77.21   16.00
  -7   4   3   88.31   17.36
  -7   4   3   56.56   12.87
  -7   4   3   60.20   12.70
  -7   4   3   67.31   17.27
  -7   4   3   83.48   10.41
  -7   4   3   76.88   15.92
   7  -4  -3   78.65   17.53
   7  -4  -3   57.83   14.73
   7  -4  -3   56.64   12.62
  -7   4   2  400.04   28.02
  -7   4   2  344.92   26.42
  -7   4   2  450.50   29.46
  -7   4   2    8.21    4.23
  -7   4   2  476.49   27.01
  -7   4   2  387.76   27.94
  -7   4   2  526.45   22.61
  -7   4   2  420.02   28.53
   7  -4  -2  500.12   31.07
   7  -4  -2  416.47   28.87
   7  -4  -2  457.27   26.33
  -7   4   1  176.78   20.15
  -7   4   1  184.48   20.32
  -7   4   1  204.21   20.40
  -7   4   1  264.41   19.39
  -7   4   1  185.25   18.20
  -7   4   1  198.88   20.40
  -7   4   1  247.22   17.19
  -7   4   1  198.12   20.91
   7  -4  -1  242.31   23.54
   7  -4  -1  179.74   20.32
   7  -4  -1  189.48   18.96
  -7   4   0   56.73   14.56
  -7   4   0   59.94   13.89
  -7   4   0   68.32   11.68
  -7   4   0   62.91   13.29
  -7   4   0   55.20   14.56
  -7   4   0   78.31   13.12
  -7   4   0   60.54   14.31
   7  -4   0   60.79   15.32
   7  -4   0   36.15   11.85
   7  -4   0   65.19   14.31
  -7   4  -1  110.74   19.64
  -7   4  -1  125.56   20.23
  -7   4  -1  125.90   13.72
  -7   4  -1  109.47   18.03
  -7   4  -1  109.98   18.80
  -7   4  -1  149.01   15.75
  -7   4  -1  131.82   20.40
   7  -4   1  109.98   19.13
   7  -4   1   94.23   16.93
   7  -4   1  133.26   20.40
  -7   4  -2   38.44   13.04
  -7   4  -2   56.47   13.89
  -7   4  -2   37.42   11.94
  -7   4  -2   40.72   12.70
  -7   4  -2   71.71   14.48
  -7   4  -2   40.13   12.45
   7  -4   2   53.59   14.99
   7  -4   2   43.77   12.95
   7  -4   2   44.79   12.53
   7  -4   2   68.75   15.32
  -7   4  -3   43.43   13.72
  -7   4  -3   70.10   16.00
  -7   4  -3   45.97   13.89
  -7   4  -3   46.23   13.29
  -7   4  -3   57.91   13.97
  -7   4  -3   45.04   13.46
   7  -4   3   30.39   12.62
   7  -4   3   30.73   12.19
   7  -4   3   40.72   13.46
   7  -4   3   46.90   13.63
  -7   4  -4   39.37   13.55
  -7   4  -4   72.39   16.26
  -7   4  -4   41.99   14.14
  -7   4  -4   47.84   13.72
  -7   4  -4   51.90   14.31
  -7   4  -4   51.73   14.31
   7  -4   4   54.27   14.73
   7  -4   4   29.46   10.58
   7  -4   4   65.70   16.85
   7  -4   4   61.30   15.58
  -7   4  -5    0.68    8.04
  -7   4  -5    4.49    9.23
  -7   4  -5    0.17    8.47
  -7   4  -5    0.34    8.13
  -7   4  -5    1.35    8.30
  -7   4  -5    1.52    7.03
   7  -4   5    4.91    7.54
   7  -4   5    4.83    8.30
   7  -4   5   12.11   11.01
   7  -4   5   -1.19    8.47
  -7   4  -6   18.54   10.33
  -7   4  -6   11.43   10.58
  -7   4  -6   16.34   12.70
  -7   4  -6   14.99   10.92
   7  -4   6    9.23   10.58
   7  -4   6   12.19    9.57
   7  -4   6    2.79    9.74
  -7   4  -7   17.86   11.85
  -7   4  -7   23.20   12.95
  -7   4  -7   10.67   12.45
   7  -4   7   16.09   12.70
   7  -4   7    9.23   10.41
   7  -4   7   12.62   12.11
  -7   4  -8  267.63   27.26
  -7   4  -8  236.89   27.52
   7  -4   8  229.36   27.26
   7  -4   8  176.53   29.12
  -7   4  -9   32.77   16.51
  -7   4  -9   21.17   15.49
   7  -4   9   16.09   13.29
   7  -4   9   31.33   16.17
  -7   3  10   80.01   22.01
  -7   3  10   54.27   18.71
  -7   3  10   80.60   11.01
   7  -3 -10   72.98   20.74
   7  -3 -10   59.94   19.13
  -7   3   9    5.50   11.18
  -7   3   9   18.96   13.04
  -7   3   9   12.78    5.50
   7  -3  -9   18.63   13.46
   7  -3  -9    6.77   11.35
  -7   3   8   20.49   12.78
  -7   3   8   30.65   12.11
  -7   3   8   38.18   14.31
  -7   3   8   34.37   13.80
  -7   3   8   36.91    6.27
   7  -3  -8   36.32   13.97
   7  -3  -8   29.38   12.19
  -7   3   7   37.76   14.82
  -7   3   7   55.46   14.22
  -7   3   7   47.07   13.97
  -7   3   7   68.58   16.26
  -7   3   7   46.14   14.99
  -7   3   7   54.27    6.01
   7  -3  -7   78.06   17.02
   7  -3  -7   42.59   13.72
   7  -3  -7   54.19   13.38
  -7   3   6  108.88   20.57
  -7   3   6  126.49   19.39
  -7   3   6  128.94   21.08
  -7   3   6  133.43   20.83
  -7   3   6  123.10   21.34
  -7   3   6  138.17    7.79
  -7   3   6  101.77   17.44
   7  -3  -6  138.85   22.52
   7  -3  -6   85.77   17.78
   7  -3  -6   98.72   17.36
   7  -3  -6  114.21   18.12
  -7   3   5   18.12   11.01
  -7   3   5   32.51   11.85
  -7   3   5   21.84   10.75
  -7   3   5   37.68   11.77
  -7   3   5   25.31    9.74
  -7   3   5   19.56   10.16
  -7   3   5   29.80   11.09
   7  -3  -5   34.97   12.95
   7  -3  -5   25.99   10.67
   7  -3  -5   23.45    8.72
  -7   3   4   16.34   10.16
  -7   3   4   20.15    9.65
  -7   3   4   11.94    9.31
  -7   3   4   21.67    8.97
  -7   3   4   22.44    8.97
  -7   3   4   24.98   11.94
  -7   3   4   20.57   10.33
   7  -3  -4   23.54   11.77
   7  -3  -4   15.32    9.74
   7  -3  -4   15.24    8.81
  -7   3   3   41.49   12.87
  -7   3   3   43.52   12.62
  -7   3   3   44.53   13.12
  -7   3   3   58.08   11.60
  -7   3   3   38.95   11.26
  -7   3   3   53.68   13.89
  -7   3   3   48.68   12.87
   7  -3  -3   53.51   14.48
   7  -3  -3   38.78   11.85
   7  -3  -3   36.58   10.92
  -7   3   2  252.98   21.76
  -7   3   2  240.53   21.17
  -7   3   2  304.62   23.71
  -7   3   2  322.15   19.30
  -7   3   2  304.03   22.18
  -7   3   2  261.44   23.62
  -7   3   2  302.85   23.37
   7  -3  -2  341.62   25.15
   7  -3  -2  234.86   22.01
   7  -3  -2  289.13   21.93
  -7   3   1   80.35   15.49
  -7   3   1   83.23   15.92
  -7   3   1  112.27   12.28
  -7   3   1   79.42   14.82
  -7   3   1  103.97   17.78
  -7   3   1   83.14   15.75
   7  -3  -1   86.27   16.93
   7  -3  -1   68.07   14.56
   7  -3  -1   84.58   15.58
  -7   3   0  572.59   31.75
  -7   3   0  712.45   35.22
  -7   3   0  576.14   30.82
  -7   3   0  644.13   33.95
  -7   3   0  749.54   28.62
  -7   3   0  599.17   32.85
   7  -3   0  675.46   35.14
   7  -3   0  456.60   29.29
   7  -3   0  570.64   30.31
  -7   3  -1   21.17   10.50
  -7   3  -1   11.94    7.70
  -7   3  -1   17.02    9.57
  -7   3  -1   17.36    9.99
  -7   3  -1   26.42    9.40
  -7   3  -1    6.52    7.54
   7  -3   1   10.08    9.74
   7  -3   1   13.46    8.97
   7  -3   1   15.83    9.57
   7  -3   1   13.29    9.82
  -7   3  -2   47.67   13.55
  -7   3  -2   58.50   14.99
  -7   3  -2   44.96   13.12
  -7   3  -2   51.05   14.05
  -7   3  -2   58.16   12.53
  -7   3  -2   32.00   11.35
   7  -3   2   55.88   14.31
   7  -3   2   36.32   11.68
   7  -3   2   48.26   13.63
   7  -3   2   74.59   16.00
  -7   3  -3   23.54   10.67
  -7   3  -3   34.20   12.53
  -7   3  -3   46.99   13.04
  -7   3  -3   35.22   11.68
  -7   3  -3   44.20   12.19
  -7   3  -3   24.30   10.24
   7  -3   3   49.61   13.29
   7  -3   3   25.06   10.41
   7  -3   3   21.84   11.26
   7  -3   3   45.04   13.38
  -7   3  -4   17.78   10.08
  -7   3  -4   14.22   10.67
  -7   3  -4   16.42   10.84
  -7   3  -4   24.81   10.75
  -7   3  -4   33.61   11.60
  -7   3  -4   27.35   11.09
   7  -3   4   29.97   12.70
   7  -3   4   13.21    8.97
   7  -3   4   12.95   10.50
   7  -3   4   23.54   11.09
  -7   3  -5   76.62   16.34
  -7   3  -5  127.00   21.25
  -7   3  -5   74.34   18.03
  -7   3  -5  121.83   20.07
  -7   3  -5   91.61   17.10
   7  -3   5   94.15   19.73
   7  -3   5   72.90   15.16
   7  -3   5   71.80   17.36
   7  -3   5   76.20   16.85
  -7   3  -6   44.20   12.95
  -7   3  -6   69.26   17.86
  -7   3  -6   29.89   12.62
  -7   3  -6   42.16   12.70
   7  -3   6   54.44   16.59
   7  -3   6   38.44   12.11
   7  -3   6   38.52   14.99
  -7   3  -7  106.76   21.34
  -7   3  -7   70.44   19.47
   7  -3   7   60.96   17.19
   7  -3   7   67.05   17.27
  -7   3  -8    8.81   11.77
  -7   3  -8   16.00   14.31
   7  -3   8   -0.17    7.87
   7  -3   8    5.33    8.89
  -7   3  -9   59.35   18.96
  -7   3  -9   54.78   18.96
   7  -3   9   34.46   15.75
  -7   2  11    3.73   12.28
  -7   2  11    7.79    5.84
   7  -2 -11    3.73   15.75
   7  -2 -11    9.14   13.89
  -7   2  10   -1.61   10.50
  -7   2  10   12.62   12.62
  -7   2  10   10.50    4.66
   7  -2 -10   13.29   15.24
   7  -2 -10   11.94   13.29
   7  -2 -10   16.09   11.68
  -7   2   9   25.23   12.62
  -7   2   9   35.47   14.39
  -7   2   9   28.36    4.40
   7  -2  -9   37.76   15.49
   7  -2  -9   29.12   13.29
   7  -2  -9   33.78   13.97
  -7   2   8   28.02   12.62
  -7   2   8   59.77   15.92
  -7   2   8   47.58   14.31
  -7   2   8   39.28   13.63
   7  -2  -8   51.90   15.83
   7  -2  -8   17.95   10.92
  -7   2   7   10.16    8.81
  -7   2   7    6.69    7.87
  -7   2   7   11.94   10.33
  -7   2   7   11.43    9.06
  -7   2   7    7.54    8.64
  -7   2   7    9.31   10.92
  -7   2   7    9.31    8.21
   7  -2  -7   15.16    9.57
   7  -2  -7   14.05    8.97
   7  -2  -7   16.59   10.67
   7  -2  -7   17.69    9.99
   7  -2  -7   11.77    8.55
  -7   2   6   34.46   10.41
  -7   2   6   15.49   10.84
  -7   2   6   26.92   11.09
  -7   2   6   23.11   10.92
  -7   2   6   27.35   10.84
  -7   2   6   34.97   11.68
  -7   2   6   19.13    8.64
  -7   2   6   34.80   12.87
  -7   2   6   27.60   11.51
   7  -2  -6   34.04   10.67
   7  -2  -6   29.21   11.94
   7  -2  -6   23.88   11.09
   7  -2  -6   24.38   10.92
   7  -2  -6   22.01    9.99
   7  -2  -6   39.03   12.78
  -7   2   5  141.39   23.28
  -7   2   5  123.36   20.40
  -7   2   5  164.25   18.71
  -7   2   5  137.92   20.57
  -7   2   5  153.75   21.17
  -7   2   5  124.37   14.82
  -7   2   5  132.33   16.00
  -7   2   5  138.17   21.50
  -7   2   5  163.15   18.71
   7  -2  -5  162.22   16.42
   7  -2  -5  153.92   21.76
   7  -2  -5  143.34   20.40
   7  -2  -5  113.20   16.85
   7  -2  -5  145.37   18.12
  -7   2   4  122.85   19.56
  -7   2   4  160.78   18.46
  -7   2   4  145.28   17.86
  -7   2   4  167.21   17.86
  -7   2   4  137.33   14.39
  -7   2   4  127.59   17.95
  -7   2   4  140.29   21.00
  -7   2   4  151.72    7.45
  -7   2   4  136.90   19.56
   7  -2  -4  131.91   19.90
   7  -2  -4  128.52   18.96
   7  -2  -4  136.65   18.80
  -7   2   3  144.52   21.08
  -7   2   3  143.34   17.61
  -7   2   3  166.79   18.54
  -7   2   3  143.85   16.68
  -7   2   3  145.54   13.80
  -7   2   3  143.00   16.34
  -7   2   3  125.22   19.47
  -7   2   3  162.05    9.99
  -7   2   3  127.08   18.80
   7  -2  -3  149.77   18.20
   7  -2  -3  128.27   18.88
   7  -2  -3  130.55   16.17
  -7   2   2   19.73    8.38
  -7   2   2   25.31    9.06
  -7   2   2   22.27   10.24
  -7   2   2   27.35    8.64
  -7   2   2   30.65    9.57
  -7   2   2   22.94   10.75
  -7   2   2   34.97    7.11
  -7   2   2   21.00    8.81
   7  -2  -2   28.36   11.01
   7  -2  -2   16.51    9.74
   7  -2  -2   24.89   10.24
   7  -2  -2   29.89   11.77
  -7   2   1  152.23   16.93
  -7   2   1  170.09   17.69
  -7   2   1  136.56   16.26
  -7   2   1  159.59   17.69
  -7   2   1  151.80   18.54
  -7   2   1  181.35   13.72
  -7   2   1  153.58   17.02
   7  -2  -1  149.18   18.20
   7  -2  -1  148.08   16.76
   7  -2  -1  148.84   17.44
   7  -2  -1  188.13   20.32
  -7   2   0  377.44   26.16
  -7   2   0  467.86   28.79
  -7   2   0  462.69   28.87
  -7   2   0  350.60   24.89
  -7   2   0  335.61   25.23
  -7   2   0  468.70   22.52
  -7   2   0  327.14   24.64
   7  -2   0  386.24   26.84
   7  -2   0  309.70   23.20
   7  -2   0  345.77   24.13
   7  -2   0  432.72   28.45
  -7   2  -1   33.44   10.58
  -7   2  -1   38.35   11.26
  -7   2  -1   31.75   11.51
  -7   2  -1   33.36   11.77
  -7   2  -1   41.23   11.18
   7  -2   1   30.23   11.77
   7  -2   1   31.41   10.08
   7  -2   1   32.51   11.26
   7  -2   1   34.29   12.19
  -7   2  -2  479.88   29.55
  -7   2  -2  593.08   33.44
  -7   2  -2  521.20   31.50
  -7   2  -2  557.35   31.41
  -7   2  -2  517.81   30.31
   7  -2   2  520.10   31.58
   7  -2   2  446.69   28.45
   7  -2   2  486.74   29.80
   7  -2   2  542.70   31.24
  -7   2  -3   35.22   11.51
  -7   2  -3   57.15   14.82
  -7   2  -3   41.23   13.04
  -7   2  -3   67.99   15.16
  -7   2  -3   62.65   13.72
  -7   2  -3   36.41   11.26
   7  -2   3   36.91   13.04
   7  -2   3   41.06   12.02
   7  -2   3   44.62   13.46
   7  -2   3   57.91   14.22
  -7   2  -4  155.61   21.59
  -7   2  -4  180.93   21.50
  -7   2  -4  189.40   21.84
  -7   2  -4  218.27   21.00
  -7   2  -4  158.49   18.54
   7  -2   4  176.36   21.42
   7  -2   4  129.88   19.39
   7  -2   4  164.76   23.88
   7  -2   4  159.42   19.13
  -7   2  -5   73.91   15.75
  -7   2  -5   83.06   18.71
  -7   2  -5   53.34   14.99
  -7   2  -5   92.88   17.19
  -7   2  -5   62.99   14.90
   7  -2   5   49.36   15.66
   7  -2   5   53.08   13.46
   7  -2   5   55.37   14.65
   7  -2   5   80.60   16.34
  -7   2  -6  208.02   21.50
  -7   2  -6  192.44   27.60
  -7   2  -6  214.79   25.23
   7  -2   6  188.29   27.85
   7  -2   6  155.11   18.88
   7  -2   6  161.29   25.06
  -7   2  -7   47.07   16.59
  -7   2  -7   30.06   14.39
   7  -2   7   41.40   15.75
   7  -2   7   29.97   13.29
  -7   2  -8    7.37   12.02
  -7   2  -8    4.83   11.68
   7  -2   8    4.40   11.43
   7  -2   8    0.76    7.96
  -7   2  -9  129.20   26.50
  -7   2  -9  162.98   28.79
   7  -2   9  122.59   25.91
   7  -2   9   87.63   22.01
  -7   1  11   66.80   19.98
  -7   1  11   55.46    8.38
   7  -1 -11  101.26   24.30
   7  -1 -11   57.49   17.95
  -7   1  10   40.30   15.92
  -7   1  10   38.18   15.49
  -7   1  10   34.63    4.91
   7  -1 -10   24.64   14.56
   7  -1 -10   40.22   16.17
  -7   1   9   35.73   14.05
  -7   1   9   33.44   13.12
  -7   1   9   32.85   12.62
  -7   1   9   66.21   17.10
   7  -1  -9   53.59   15.32
   7  -1  -9   36.41   13.80
   7  -1  -9   39.62   13.55
   7  -1  -9   54.44   16.59
  -7   1   8   43.09   13.80
  -7   1   8   39.37   13.80
  -7   1   8   50.97   13.21
  -7   1   8   43.35   13.29
  -7   1   8   58.42   13.97
  -7   1   8   48.94   14.39
  -7   1   8   35.39   11.60
  -7   1   8   45.38   13.21
  -7   1   8   40.98   14.65
   7  -1  -8   51.48   14.65
   7  -1  -8   35.64   12.78
   7  -1  -8   61.64   14.22
   7  -1  -8   33.53   11.94
   7  -1  -8   38.78   11.94
   7  -1  -8   57.15   15.16
   7  -1  -8   53.68   13.63
   7  -1  -8   36.91   13.12
   7  -1  -8   62.82   16.34
  -7   1   7  120.31   18.71
  -7   1   7  117.60   19.98
  -7   1   7  148.50   21.00
  -7   1   7  143.59   21.17
  -7   1   7  151.72   18.54
  -7   1   7  164.50   19.90
  -7   1   7  164.76   18.71
  -7   1   7  126.57   19.05
  -7   1   7  149.52   22.01
  -7   1   7  143.76   20.57
   7  -1  -7  127.84   19.13
   7  -1  -7  163.06   22.52
   7  -1  -7  127.76   19.64
   7  -1  -7  111.59   19.13
   7  -1  -7  120.65   19.13
   7  -1  -7  149.69   21.34
   7  -1  -7  159.68   18.37
   7  -1  -7  116.24   19.13
   7  -1  -7  125.90   20.40
   7  -1  -7  138.09   20.07
  -7   1   6   48.51   12.28
  -7   1   6   55.12   13.97
  -7   1   6   94.91   17.10
  -7   1   6   58.16   14.05
  -7   1   6   71.20   15.24
  -7   1   6   79.84   14.82
  -7   1   6   74.59   14.99
  -7   1   6   67.39   14.56
  -7   1   6   54.35   14.39
  -7   1   6   77.30   15.41
   7  -1  -6   75.18   15.24
   7  -1  -6   73.32   15.66
   7  -1  -6   46.65   12.78
   7  -1  -6   38.52   11.60
   7  -1  -6   69.93   16.26
   7  -1  -6   73.66   15.58
  -7   1   5    4.91    6.60
  -7   1   5    8.72    8.38
  -7   1   5    9.06    8.04
  -7   1   5    9.40    8.13
  -7   1   5   10.24    8.30
  -7   1   5    6.01    6.94
  -7   1   5    5.84    7.62
  -7   1   5    4.57    7.11
  -7   1   5    5.76    8.47
  -7   1   5    6.69    7.79
   7  -1  -5    2.71    7.11
   7  -1  -5    5.76    7.79
   7  -1  -5    6.52    8.21
   7  -1  -5    3.81    7.62
   7  -1  -5   15.32    9.57
   7  -1  -5    4.83    7.96
  -7   1   4  114.64   12.53
  -7   1   4   94.57   17.27
  -7   1   4  101.34   16.76
  -7   1   4  140.29   19.64
  -7   1   4  158.07   18.37
  -7   1   4  127.84   13.29
  -7   1   4  136.14   16.51
  -7   1   4   86.61   17.19
  -7   1   4  125.81    5.67
  -7   1   4  116.16    5.67
  -7   1   4  129.54   19.30
   7  -1  -4  138.34   13.55
   7  -1  -4  122.17   18.63
   7  -1  -4   99.57   16.76
   7  -1  -4  125.39   18.29
   7  -1  -4  131.32   20.32
   7  -1  -4  107.52   17.86
  -7   1   3   70.78   14.99
  -7   1   3   65.19   13.55
  -7   1   3   79.25   15.07
  -7   1   3   78.99   14.73
  -7   1   3   70.53   14.82
  -7   1   3   75.01    7.37
  -7   1   3   76.71   15.24
   7  -1  -3   67.22   14.56
   7  -1  -3   50.88   12.62
   7  -1  -3   78.06   15.32
   7  -1  -3   83.73   16.51
   7  -1  -3   98.38   17.19
  -7   1   2  191.94   19.56
  -7   1   2  215.90   19.81
  -7   1   2  229.44   21.25
  -7   1   2  190.24   18.96
  -7   1   2  211.15   20.91
  -7   1   2  240.02   13.55
  -7   1   2  210.90   20.32
   7  -1  -2  217.25   20.32
   7  -1  -2  185.67   19.47
   7  -1  -2  166.03   18.03
   7  -1  -2  218.69   21.34
   7  -1  -2  250.02   22.10
  -7   1   1  309.03   23.96
  -7   1   1  357.37   24.72
  -7   1   1  377.27   26.08
  -7   1   1  316.05   23.54
  -7   1   1  333.07   24.89
  -7   1   1  374.05   18.54
  -7   1   1  329.85   24.47
   7  -1  -1  338.91   24.64
   7  -1  -1  298.70   23.37
   7  -1  -1  287.52   21.93
   7  -1  -1  356.69   25.82
  -7   1   0   25.99    9.65
  -7   1   0   25.40   10.67
  -7   1   0   39.71   11.77
  -7   1   0   28.79   10.75
  -7   1   0   26.92   11.43
  -7   1   0   34.20    8.72
  -7   1   0   27.52    9.65
   7  -1   0   29.72   11.26
   7  -1   0   17.10    9.31
   7  -1   0   26.58   10.58
   7  -1   0   26.84   11.43
  -7   1  -1  467.27   28.62
  -7   1  -1  527.12   30.14
  -7   1  -1  556.84   31.16
  -7   1  -1  477.76   29.46
  -7   1  -1  474.88   29.21
  -7   1  -1  581.22   27.01
  -7   1  -1  452.62   28.11
   7  -1   1  497.15   30.14
   7  -1   1  393.27   26.50
   7  -1   1  466.93   29.12
   7  -1   1  503.25   30.06
  -7   1  -2   77.21   15.83
  -7   1  -2   96.69   17.86
  -7   1  -2  109.22   17.44
  -7   1  -2   72.56   15.41
  -7   1  -2  120.14   16.93
  -7   1  -2   89.32   16.26
   7  -1   2   82.46   17.19
   7  -1   2   69.26   14.48
   7  -1   2   66.12   14.14
   7  -1   2   94.74   17.44
  -7   1  -3   30.23   11.09
  -7   1  -3   40.13   13.21
  -7   1  -3   37.00   12.87
  -7   1  -3   50.04   13.04
   7  -1   3   28.28   11.94
   7  -1   3   31.24   10.67
   7  -1   3   41.49   12.87
   7  -1   3   35.73   12.70
  -7   1  -4   45.04   12.70
  -7   1  -4   83.99   17.44
  -7   1  -4   66.21   15.92
  -7   1  -4   67.73   14.14
   7  -1   4   77.64   18.29
   7  -1   4   45.72   12.28
   7  -1   4   49.19   13.46
   7  -1   4   53.76   14.31
  -7   1  -5   70.86   15.16
  -7   1  -5   78.48   18.29
  -7   1  -5   82.04   18.46
  -7   1  -5  101.26   18.54
  -7   1  -5   83.99   15.49
   7  -1   5   61.04   15.49
   7  -1   5   63.67   14.14
   7  -1   5   66.55   16.68
   7  -1   5   75.69   15.83
   7  -1   5   86.27   16.09
  -7   1  -6   51.73   16.93
  -7   1  -6   32.26   12.45
   7  -1   6   25.99   14.05
   7  -1   6   40.39   14.05
   7  -1   6   31.92   11.94
  -7   1  -7    8.55    9.99
  -7   1  -7    7.62   11.01
   7  -1   7   -3.64    9.91
   7  -1   7    3.98    9.57
  -7   1  -8   55.54   19.22
  -7   1  -8   57.66   18.46
   7  -1   8   44.53   17.27
   7  -1   8   50.46   16.93
  -7   1  -9   -8.72   11.35
  -7   1  -9    8.38   13.04
   7  -1   9    1.27   11.77
   7  -1   9   -5.08    9.91
  -7   0  11   -4.83   11.01
  -7   0  11   -2.29   12.02
  -7   0  11   -1.78    3.47
   7   0 -11    3.56   12.62
   7   0 -11    0.25   10.33
  -7   0  10  108.12   22.27
  -7   0  10  100.50   21.25
   7   0 -10  176.27   28.28
   7   0 -10  108.20   21.34
  -7   0   9   41.23   14.82
  -7   0   9   51.05   15.41
  -7   0   9   39.12   14.05
  -7   0   9   48.17   13.97
   7   0  -9   33.87   14.82
   7   0  -9   55.62   15.41
   7   0  -9   36.15   13.63
   7   0  -9   47.16   14.22
  -7   0   8  185.33   21.67
  -7   0   8  174.83   19.90
  -7   0   8  211.41   21.08
  -7   0   8  176.53   20.57
  -7   0   8  249.59   23.54
  -7   0   8  231.64   22.94
  -7   0   8  221.14   22.35
  -7   0   8  196.76   21.08
  -7   0   8  226.73   22.44
   7   0  -8  240.70   23.88
   7   0  -8  220.38   21.50
   7   0  -8  199.30   20.83
   7   0  -8  163.57   19.90
   7   0  -8  239.77   22.94
   7   0  -8  242.31   23.03
   7   0  -8  176.70   20.15
   7   0  -8  178.90   21.08
   7   0  -8  216.83   22.77
   7   0  -8  188.13   20.74
  -7   0   7   11.43    9.06
  -7   0   7    9.74    8.89
  -7   0   7    9.91    8.30
  -7   0   7   10.92    9.06
  -7   0   7   13.89    9.82
  -7   0   7   17.61   10.16
  -7   0   7    6.52    8.55
  -7   0   7    7.54    7.79
  -7   0   7   12.70   10.08
   7   0  -7   27.26   11.68
   7   0  -7    7.87    8.81
   7   0  -7   14.22    9.40
   7   0  -7    8.97    7.87
   7   0  -7   19.73    9.74
   7   0  -7   17.19    9.65
   7   0  -7    8.30    8.81
   7   0  -7    6.43    8.47
   7   0  -7    4.40    8.72
   7   0  -7   19.81    9.91
  -7   0   6  227.66   20.49
  -7   0   6  201.50   19.64
  -7   0   6  305.98   24.55
  -7   0   6  238.59   20.49
  -7   0   6  256.62   22.86
  -7   0   6  233.76   19.64
  -7   0   6  250.61   22.27
  -7   0   6  192.53   19.98
  -7   0   6  248.75   22.94
  -7   0   6  286.93   23.96
   7   0  -6  238.59   20.66
   7   0  -6  235.37   22.35
   7   0  -6  173.73   19.56
   7   0  -6  268.39   20.07
   7   0  -6  202.52   20.49
   7   0  -6  254.08   23.11
   7   0  -6  280.83   23.88
  -7   0   5  433.74   23.62
  -7   0   5  402.16   26.67
  -7   0   5  481.15   27.43
  -7   0   5  466.16   28.53
  -7   0   5  516.03   30.14
  -7   0   5  453.80   27.60
  -7   0   5  436.19   28.45
  -7   0   5  543.46   31.16
   7   0  -5  493.93   28.02
   7   0  -5  466.84   28.62
   7   0  -5  465.91   29.12
   7   0  -5  478.36   23.62
   7   0  -5  425.95   27.69
   7   0  -5  517.13   30.56
   7   0  -5  533.56   31.33
  -7   0   4   29.72    8.64
  -7   0   4   30.31   10.67
  -7   0   4   30.31   10.24
  -7   0   4   26.58    9.74
  -7   0   4   25.31   10.33
  -7   0   4   30.14   10.58
  -7   0   4   34.29   12.36
  -7   0   4   35.31    4.83
  -7   0   4   29.80    6.60
  -7   0   4   20.83    9.65
   7   0  -4   35.81   10.92
   7   0  -4   26.25    9.91
   7   0  -4   29.55   10.67
   7   0  -4   36.66   12.62
   7   0  -4   24.81   10.84
  -7   0   3  119.80   11.85
  -7   0   3  126.91   19.22
  -7   0   3  135.46   15.75
  -7   0   3  152.06   18.03
  -7   0   3  147.32   16.51
  -7   0   3  115.82   17.53
  -7   0   3  120.56   19.30
  -7   0   3  150.11   10.16
  -7   0   3  137.92   19.56
   7   0  -3  125.81   15.66
   7   0  -3  135.13   19.81
   7   0  -3  128.27   18.54
   7   0  -3  136.48   19.98
   7   0  -3  141.64   20.23
  -7   0   2  190.07   20.15
  -7   0   2  189.40   18.54
  -7   0   2  223.60   19.64
  -7   0   2  234.01   21.25
  -7   0   2  212.59   19.39
  -7   0   2  211.07   20.83
  -7   0   2  262.88   14.82
  -7   0   2  206.07   20.07
   7   0  -2  218.77   19.73
   7   0  -2  188.13   19.30
   7   0  -2  188.72   19.39
   7   0  -2  200.23   20.32
   7   0  -2  226.31   21.25
  -7   0   1  128.35   18.80
  -7   0   1  140.54   16.68
  -7   0   1  169.41   18.88
  -7   0   1  133.01   15.75
  -7   0   1  155.44   18.80
  -7   0   1  154.85   13.29
  -7   0   1  149.26   17.69
   7   0  -1  135.13   19.22
   7   0  -1  105.07   17.53
   7   0  -1  143.34   16.42
   7   0  -1  154.68   17.36
   7   0  -1  145.20   20.15
  -7   0   0  146.39   16.59
  -7   0   0  176.27   18.63
  -7   0   0  187.36   19.56
  -7   0   0  145.62   17.78
  -7   0   0  194.56   16.26
  -7   0   0  174.92   18.80
   7   0   0  172.04   18.80
   7   0   0  136.31   19.13
   7   0   0  137.67   19.98
   7   0   0  150.62   18.71
   7   0   0  191.77   19.64
  -7   0  -1   81.19   15.75
  -7   0  -1   82.04   15.49
  -7   0  -1   85.85   15.75
  -7   0  -1   77.21   15.66
  -7   0  -1   78.57   13.46
  -7   0  -1   80.01   15.58
   7   0   1   70.61   14.48
   7   0   1   66.72   14.14
   7   0   1   76.62   16.09
   7   0   1   70.36   15.58
   7   0   1   81.45   15.92
  -7   0  -2   40.05   11.68
  -7   0  -2   44.11   13.21
  -7   0  -2   39.45   12.28
  -7   0  -2   36.83   12.53
  -7   0  -2   51.22   12.02
  -7   0  -2   37.85   11.26
   7   0   2   39.45   12.11
   7   0   2   29.89   10.84
   7   0   2   26.16   10.92
   7   0   2   51.65   13.97
   7   0   2   39.62   11.85
  -7   0  -3  128.78   18.88
  -7   0  -3  148.84   21.84
  -7   0  -3  145.88   17.53
  -7   0  -3  146.81   21.50
  -7   0  -3  152.65   20.49
  -7   0  -3  130.05   18.63
   7   0   3  131.65   21.84
   7   0   3  105.24   17.36
   7   0   3  109.47   18.80
   7   0   3  158.32   22.52
   7   0   3  133.35   19.30
  -7   0  -4   85.00   16.34
  -7   0  -4   86.44   18.46
  -7   0  -4   71.63   16.68
  -7   0  -4   98.72   17.86
  -7   0  -4   65.45   14.99
   7   0   4   83.56   18.96
   7   0   4   64.85   14.14
   7   0   4   86.02   18.12
   7   0   4   70.36   16.09
   7   0   4  101.77   17.36
  -7   0  -5   71.20   15.07
  -7   0  -5   59.52   16.85
  -7   0  -5   55.46   15.75
   7   0   5   50.71   15.92
   7   0   5    0.08    4.32
   7   0   5   51.14   14.99
   7   0   5   40.64   13.72
  -7   0  -6   22.01   12.95
  -7   0  -6   62.40   17.95
   7   0   6   41.15   14.31
   7   0   6   50.97   15.66
   7   0   6   42.93   14.48
  -7   0  -7   34.80   15.75
  -7   0  -7   25.06   13.72
   7   0   7   21.50   14.31
   7   0   7   29.04   13.38
  -7   0  -8    3.98    9.91
  -7   0  -8   13.89   13.12
   7   0   8   -1.02   11.18
   7   0   8   -3.05    8.97
  -7   0  -9   13.97   12.70
  -7   0  -9   15.92   13.46
   7   0   9   17.86   12.45
   7   0   9   18.96   14.39
  -7  -1  11   40.72   18.03
  -7  -1  11   65.62    8.55
   7   1 -11   64.68   20.66
   7   1 -11   49.70   17.10
  -7  -1  10   58.42   17.95
  -7  -1  10   77.64   18.29
  -7  -1  10   73.32    5.93
   7   1 -10  109.56   22.94
   7   1 -10  100.16   21.25
   7   1 -10   71.12   17.86
  -7  -1   9   17.36   12.36
  -7  -1   9   20.32   10.58
  -7  -1   9    9.40   10.24
  -7  -1   9   22.35   11.35
   7   1  -9   28.45   14.22
   7   1  -9   18.54   11.09
   7   1  -9   15.49   12.02
   7   1  -9   21.17   12.11
  -7  -1   8    9.14    9.57
  -7  -1   8    7.54    8.89
  -7  -1   8   13.38   10.16
  -7  -1   8   18.29   10.41
  -7  -1   8    7.28    9.14
  -7  -1   8   13.72   10.08
   7   1  -8   14.73   10.08
   7   1  -8   10.84    8.89
   7   1  -8    6.86    9.40
   7   1  -8   15.32   10.33
   7   1  -8   16.68   10.50
  -7  -1   7   63.67   15.07
  -7  -1   7   41.91   11.35
  -7  -1   7   50.46   13.72
  -7  -1   7   51.65   12.36
  -7  -1   7   55.37   14.22
  -7  -1   7   -0.17    3.81
  -7  -1   7   50.71   13.21
  -7  -1   7   44.20   13.04
  -7  -1   7   51.56   14.22
   7   1  -7   46.57   11.94
   7   1  -7   45.72   13.72
   7   1  -7   52.83   12.53
   7   1  -7   50.29   13.38
   7   1  -7   39.88   13.97
   7   1  -7   46.65   13.21
   7   1  -7   44.87   13.21
  -7  -1   6  271.86   22.35
  -7  -1   6  290.82   24.55
  -7  -1   6    1.02    3.39
  -7  -1   6  231.98   22.44
  -7  -1   6  261.53   23.88
  -7  -1   6  238.84   21.50
  -7  -1   6  283.37   23.88
   7   1  -6  283.37   20.91
   7   1  -6  295.23   25.06
   7   1  -6  303.35   21.00
   7   1  -6  235.11   22.69
   7   1  -6  290.91   23.88
   7   1  -6  270.17   24.04
  -7  -1   5   43.69   11.09
  -7  -1   5   47.92   13.38
  -7  -1   5   50.21   11.77
  -7  -1   5   40.98   12.78
  -7  -1   5   34.46   10.92
  -7  -1   5   40.55   11.77
  -7  -1   5   38.35   11.68
  -7  -1   5   41.06    4.83
   7   1  -5   41.66   11.18
   7   1  -5   55.12   14.48
   7   1  -5   36.24   11.26
   7   1  -5   36.58   12.36
   7   1  -5   37.59   12.45
  -7  -1   4   20.23    7.79
  -7  -1   4   22.77   10.67
  -7  -1   4   19.73    8.55
  -7  -1   4   21.34    9.99
  -7  -1   4   22.35    9.31
  -7  -1   4    3.98    7.54
  -7  -1   4   18.71    5.08
  -7  -1   4   16.17    9.06
   7   1  -4   15.83    8.13
   7   1  -4   18.88    9.91
   7   1  -4    9.57    7.28
   7   1  -4   16.59    9.74
   7   1  -4   26.50   10.67
  -7  -1   3   96.60   11.94
  -7  -1   3   97.70   17.44
  -7  -1   3   98.21   15.41
  -7  -1   3  119.38   19.05
  -7  -1   3  101.60   16.93
  -7  -1   3  104.48   17.61
  -7  -1   3   97.70    9.74
  -7  -1   3  107.78   17.86
   7   1  -3   97.11   15.75
   7   1  -3   99.74   17.61
   7   1  -3   61.04   13.80
   7   1  -3   83.82   16.17
   7   1  -3   97.70   17.44
  -7  -1   2   60.79   10.50
  -7  -1   2   76.11   14.90
  -7  -1   2   48.77   11.77
  -7  -1   2   73.91   14.99
  -7  -1   2   60.87   13.38
  -7  -1   2   76.88   11.09
  -7  -1   2   72.73   14.56
   7   1  -2   70.53   14.22
   7   1  -2   56.98   13.29
   7   1  -2   54.35   13.46
   7   1  -2   64.43   15.16
   7   1  -2   57.57   13.55
  -7  -1   1   62.40   10.24
  -7  -1   1   55.37   13.63
  -7  -1   1   55.20   12.45
  -7  -1   1   72.56   15.16
  -7  -1   1   46.23   12.78
  -7  -1   1   61.38   11.01
  -7  -1   1   49.02   12.78
   7   1  -1   39.88   11.60
   7   1  -1   62.23   14.14
   7   1  -1   49.11   12.53
   7   1  -1   36.24   12.19
  -7  -1   0   61.89   16.42
  -7  -1   0   60.62   13.46
  -7  -1   0   47.67   11.85
  -7  -1   0   51.31   13.55
  -7  -1   0   46.14   11.85
  -7  -1   0   56.39   11.51
  -7  -1   0   62.40   13.46
   7   1   0   52.58   12.45
   7   1   0   44.03   12.11
   7   1   0   41.06   12.78
   7   1   0   57.83   13.55
  -7  -1  -1    9.57    7.28
  -7  -1  -1   11.85    8.81
  -7  -1  -1    7.87    8.38
  -7  -1  -1    7.45    7.96
  -7  -1  -1    5.59    7.11
  -7  -1  -1   15.41    8.55
   7   1   1   11.60    9.23
   7   1   1   10.75    6.86
   7   1   1    5.25    7.87
   7   1   1   11.60    9.57
   7   1   1   10.24    7.87
  -7  -1  -2  143.51   17.44
  -7  -1  -2  164.42   19.98
  -7  -1  -2  166.87   18.71
  -7  -1  -2  149.09   17.86
  -7  -1  -2  192.19   18.96
  -7  -1  -2  148.42   17.53
   7   1   2  161.96   22.94
   7   1   2  105.58   17.10
   7   1   2  127.51   20.40
   7   1   2  140.71   21.17
   7   1   2  147.99   18.29
  -7  -1  -3    0.25    6.94
  -7  -1  -3    3.81    8.81
  -7  -1  -3   14.22    9.82
  -7  -1  -3    0.85    8.47
  -7  -1  -3    1.27    7.70
  -7  -1  -3    2.96    7.03
   7   1   3   -1.35    8.47
   7   1   3   -0.59    6.43
   7   1   3   -4.74    6.43
   7   1   3    5.50    9.23
   7   1   3    6.86    8.89
  -7  -1  -4  206.24   20.66
  -7  -1  -4  169.92   25.57
  -7  -1  -4  221.65   20.66
  -7  -1  -4  175.51   24.81
  -7  -1  -4  202.35   21.76
  -7  -1  -4  170.26   19.13
   7   1   4  179.49   21.25
   7   1   4  178.47   20.07
   7   1   4  144.95   17.02
   7   1   4  147.99   22.94
   7   1   4  174.58   24.81
   7   1   4  179.74   20.40
  -7  -1  -5   13.89   11.68
  -7  -1  -5   19.47   11.60
   7   1   5   14.99   11.94
   7   1   5   20.23   11.01
   7   1   5   18.71   11.60
  -7  -1  -6   77.81   19.30
  -7  -1  -6   90.59   19.47
   7   1   6   49.36   17.86
   7   1   6   76.88   17.95
   7   1   6   64.26   17.27
  -7  -1  -7   43.86   17.78
  -7  -1  -7   47.16   15.66
   7   1   7   19.90   14.56
   7   1   7   24.89   12.45
  -7  -1  -8    0.59   12.78
  -7  -1  -8   -1.19    9.91
   7   1   8   -0.51   12.28
   7   1   8    2.29   10.08
  -7  -2  12   50.63   20.66
  -7  -2  12   52.07    9.82
   7   2 -12   56.39   21.25
   7   2 -12   88.05   22.94
  -7  -2  11   96.09   22.69
  -7  -2  11  115.40   24.13
  -7  -2  11  105.75   10.67
   7   2 -11  140.88   27.69
   7   2 -11  133.43   25.74
   7   2 -11  104.48   23.20
  -7  -2  10   12.11   12.45
  -7  -2  10    4.06   10.08
  -7  -2  10    6.94    4.57
   7   2 -10   11.35   11.35
   7   2 -10    1.19   10.16
  -7  -2   9  187.19   27.18
  -7  -2   9  150.11   22.94
  -7  -2   9  158.24   24.89
  -7  -2   9  146.13   23.71
  -7  -2   9  134.53    8.55
   7   2  -9  136.99   22.27
   7   2  -9  167.38   24.21
   7   2  -9  141.47   23.96
   7   2  -9  140.63   22.10
  -7  -2   8    6.43    9.31
  -7  -2   8   16.09    9.91
  -7  -2   8    8.55    9.65
  -7  -2   8   -1.27    7.87
  -7  -2   8    1.44    2.71
   7   2  -8   12.28    9.82
   7   2  -8    0.25    8.30
   7   2  -8    0.85    8.97
   7   2  -8   -0.08    7.62
   7   2  -8    5.59    9.48
  -7  -2   7  341.20   26.42
  -7  -2   7  372.19   28.19
  -7  -2   7  325.03   27.60
  -7  -2   7  358.72   27.60
  -7  -2   7  298.61   11.18
   7   2  -7  250.61   24.47
   7   2  -7  427.56   27.26
   7   2  -7  288.88   25.57
   7   2  -7  350.60   26.58
   7   2  -7  304.79   26.42
  -7  -2   6   34.37   11.85
  -7  -2   6   47.50   13.97
  -7  -2   6   36.07   10.50
  -7  -2   6   41.15   13.21
  -7  -2   6   22.44   10.16
  -7  -2   6   39.37   12.19
  -7  -2   6   33.61    5.76
   7   2  -6   47.67   12.95
   7   2  -6   35.81   13.04
   7   2  -6   24.89   10.33
   7   2  -6   35.90   12.11
   7   2  -6   39.37   12.53
   7   2  -6   32.85   12.19
  -7  -2   5  102.95   16.85
  -7  -2   5   95.59   18.12
  -7  -2   5  100.16   14.65
  -7  -2   5  104.31   18.29
  -7  -2   5   78.23   16.93
  -7  -2   5  103.38   18.20
  -7  -2   5   94.06    8.97
   7   2  -5  109.30   15.66
   7   2  -5  100.24   18.46
   7   2  -5   91.44   17.53
   7   2  -5  109.64   18.54
   7   2  -5  115.31   19.98
  -7  -2   4   91.78   14.82
  -7  -2   4   71.46   15.66
  -7  -2   4    1.35    3.39
  -7  -2   4   75.52   16.26
  -7  -2   4   85.68   17.44
  -7  -2   4   71.03   15.75
  -7  -2   4   75.86    9.23
   7   2  -4   92.03   14.56
   7   2  -4   56.05   14.56
   7   2  -4   67.56   15.41
   7   2  -4   90.93   16.51
   7   2  -4   60.70   15.16
  -7  -2   3   13.97    7.62
  -7  -2   3   15.92    9.91
  -7  -2   3   18.03    8.21
  -7  -2   3   11.60    9.57
  -7  -2   3   16.51   10.16
  -7  -2   3   12.11    9.14
  -7  -2   3   13.21    6.01
   7   2  -3   16.93    8.13
   7   2  -3    4.91    8.89
   7   2  -3   10.24    8.64
   7   2  -3   14.14    9.48
   7   2  -3   11.43    9.65
  -7  -2   2   49.19   11.01
  -7  -2   2   48.09   13.29
  -7  -2   2   37.08   10.84
  -7  -2   2   49.27   13.63
  -7  -2   2   47.07   13.21
  -7  -2   2   34.04   10.84
  -7  -2   2   34.04    8.89
   7   2  -2   29.89   10.08
   7   2  -2   40.72   12.70
   7   2  -2   34.20   11.94
   7   2  -2   37.00   11.68
   7   2  -2   41.15   12.70
  -7  -2   1  196.34   16.09
  -7  -2   1  175.17   19.64
  -7  -2   1  197.86   19.05
  -7  -2   1  188.46   20.32
  -7  -2   1  168.48   19.39
  -7  -2   1  205.65   17.10
   7   2  -1  183.64   18.46
   7   2  -1  147.82   21.50
   7   2  -1  154.68   17.61
   7   2  -1  190.67   21.25
   7   2  -1  176.10   20.15
  -7  -2   0   86.70   13.38
  -7  -2   0   73.24   15.92
  -7  -2   0   68.83   14.90
  -7  -2   0   76.96   15.92
  -7  -2   0   54.69   14.22
  -7  -2   0   70.10   12.87
   7   2   0   76.71   15.41
   7   2   0   61.55   14.73
   7   2   0   60.28   14.31
   7   2   0   62.82   15.58
   7   2   0   64.85   14.73
  -7  -2  -1  150.03   15.58
  -7  -2  -1  164.42   19.05
  -7  -2  -1  146.89   17.27
  -7  -2  -1  145.96   18.20
  -7  -2  -1  147.74   21.76
  -7  -2  -1  175.51   18.03
   7   2   1  135.89   20.91
   7   2   1  146.72   21.00
   7   2   1  131.06   20.57
   7   2   1  135.63   21.59
   7   2   1  136.73   19.90
  -7  -2  -2   24.13    9.31
  -7  -2  -2   15.24    9.14
  -7  -2  -2   14.39   10.08
  -7  -2  -2   19.56   10.08
  -7  -2  -2   13.89   10.16
  -7  -2  -2   20.57    9.99
   7   2   2   19.05   10.50
   7   2   2   23.03   10.33
   7   2   2   13.29    8.04
   7   2   2   19.56   10.16
   7   2   2   16.00   10.67
   7   2   2   14.14    9.31
  -7  -2  -3  176.10   18.96
  -7  -2  -3  162.56   24.64
  -7  -2  -3  179.07   19.64
  -7  -2  -3  168.06   23.62
  -7  -2  -3  200.15   21.42
   7   2   3  145.03   22.44
   7   2   3  149.01   21.08
   7   2   3  123.36   18.63
   7   2   3  182.45   21.17
   7   2   3  147.40   23.11
   7   2   3  159.59   18.80
  -7  -2  -4    5.59    7.62
  -7  -2  -4    9.40   10.50
  -7  -2  -4   16.09   11.26
  -7  -2  -4   12.36   10.41
  -7  -2  -4   15.58   10.92
   7   2   4    0.68    6.43
   7   2   4   14.05    9.82
   7   2   4    1.86    5.42
   7   2   4    7.79    9.23
   7   2   4    9.31   11.26
  -7  -2  -5   64.51   16.68
  -7  -2  -5   65.62   16.68
   7   2   5   57.32   16.26
   7   2   5   63.58   16.09
   7   2   5   45.21   15.41
  -7  -2  -6   83.73   21.50
  -7  -2  -6   81.53   19.05
   7   2   6   83.23   20.15
   7   2   6   73.83   18.46
   7   2   6   63.75   17.44
  -7  -2  -7   -4.15   11.85
  -7  -2  -7    3.64   10.84
   7   2   7    6.52    9.57
   7   2   7   -5.59    8.38
  -7  -2  -8  113.37   26.92
   7   2   8   52.75   18.29
  -7  -3  11    6.10   12.19
  -7  -3  11   -2.03    9.65
  -7  -3  11    5.84    5.84
   7   3 -11   -0.51   10.92
   7   3 -11   10.58   13.80
  -7  -3  10   64.43   18.88
  -7  -3  10   49.27   14.99
  -7  -3  10   59.27   18.29
  -7  -3  10   40.89    8.38
   7   3 -10   56.22   16.51
   7   3 -10   61.89   18.12
   7   3 -10   60.20   18.20
  -7  -3   9   21.25   12.70
  -7  -3   9    2.62    8.55
  -7  -3   9    9.31   10.58
  -7  -3   9   12.95    9.06
  -7  -3   9   10.58    5.33
   7   3  -9    1.69    9.57
   7   3  -9   13.97   11.18
   7   3  -9   11.26   10.16
   7   3  -9    6.77    9.82
  -7  -3   8   49.27   14.99
  -7  -3   8   46.48   14.65
  -7  -3   8   56.05   16.51
  -7  -3   8   56.05   16.42
  -7  -3   8   41.49    7.62
   7   3  -8   38.78   14.22
   7   3  -8   55.96   17.36
   7   3  -8   55.20   15.58
  -7  -3   7   55.88   14.82
  -7  -3   7   66.89   16.09
  -7  -3   7   49.78   15.24
  -7  -3   7   54.02   14.90
  -7  -3   7   52.92    8.64
   7   3  -7   58.59   16.17
   7   3  -7   46.40   15.66
   7   3  -7   56.56   14.14
   7   3  -7   45.89   15.07
  -7  -3   6    4.40    7.45
  -7  -3   6   -2.29    7.45
  -7  -3   6    5.00    7.62
  -7  -3   6    2.71    6.10
  -7  -3   6    1.44    4.23
   7   3  -6   -1.95    7.96
   7   3  -6   -1.95    5.59
   7   3  -6    4.83    7.70
   7   3  -6   -7.54    6.52
   7   3  -6   -3.39    7.54
  -7  -3   5  114.97   18.20
  -7  -3   5  157.14   23.03
  -7  -3   5  139.36   21.93
  -7  -3   5  103.80   19.64
  -7  -3   5  116.75   20.57
  -7  -3   5  107.02   11.43
   7   3  -5  119.29   20.66
   7   3  -5  127.42   21.42
   7   3  -5  109.05   18.96
   7   3  -5  116.16   20.40
  -7  -3   4   20.83    9.23
  -7  -3   4   18.88   10.08
  -7  -3   4   27.52    9.31
  -7  -3   4   26.16   11.51
  -7  -3   4   13.29   10.33
  -7  -3   4   23.03   10.24
  -7  -3   4   32.26    8.38
   7   3  -4   31.58    9.65
   7   3  -4   30.65   12.87
   7   3  -4   19.56   10.08
   7   3  -4   18.88   10.67
   7   3  -4   23.79   11.85
  -7  -3   3   31.66   10.24
  -7  -3   3   36.32   12.45
  -7  -3   3   -1.69    2.96
  -7  -3   3   12.53    9.74
  -7  -3   3   16.09    9.91
  -7  -3   3   28.62   11.85
  -7  -3   3   13.21    6.77
   7   3  -3   24.21    9.06
   7   3  -3   27.09   10.75
   7   3  -3   19.56    9.40
   7   3  -3   23.20   10.41
   7   3  -3   22.77   10.16
  -7  -3   2  102.44   16.17
  -7  -3   2  116.75   19.22
  -7  -3   2  131.32   15.66
  -7  -3   2  146.89   21.84
  -7  -3   2  129.03   20.83
  -7  -3   2  127.00   19.64
  -7  -3   2  124.37   14.48
   7   3  -2  148.25   19.90
   7   3  -2  105.83   18.80
   7   3  -2   97.62   18.03
   7   3  -2  136.90   21.34
   7   3  -2  118.87   19.98
  -7  -3   1   15.49    9.14
  -7  -3   1   17.53   10.24
  -7  -3   1   10.50    8.30
  -7  -3   1    6.27    8.64
  -7  -3   1    6.27    7.11
  -7  -3   1   11.18    7.45
   7   3  -1    9.57    8.38
   7   3  -1   15.49    9.91
   7   3  -1   11.60    7.79
   7   3  -1   14.99   10.75
   7   3  -1   21.08   10.75
  -7  -3   0  156.97   16.68
  -7  -3   0  190.75   20.66
  -7  -3   0  176.36   19.22
  -7  -3   0  174.58   20.07
  -7  -3   0  153.33   18.29
  -7  -3   0  171.36   17.86
   7   3   0  148.59   18.03
   7   3   0  152.74   22.01
   7   3   0  140.80   21.42
   7   3   0  160.36   23.79
   7   3   0  152.40   21.93
  -7  -3  -1   -4.83    7.11
  -7  -3  -1    1.10    7.62
  -7  -3  -1    3.30    7.54
  -7  -3  -1   -2.96    6.94
  -7  -3  -1   -3.73    7.54
  -7  -3  -1   -0.59    7.03
   7   3   1    1.19    7.62
   7   3   1   10.50    9.06
   7   3   1    1.44    5.50
   7   3   1    2.79    6.94
   7   3   1   -2.54    7.28
  -7  -3  -2  147.49   18.46
  -7  -3  -2  152.57   18.71
  -7  -3  -2  153.07   23.11
  -7  -3  -2  157.39   19.05
  -7  -3  -2  141.39   21.93
  -7  -3  -2  182.28   21.25
   7   3   2  109.13   19.98
   7   3   2  130.64   20.49
   7   3   2  119.29   19.90
   7   3   2  140.12   23.45
   7   3   2  153.58   21.42
  -7  -3  -3    7.45    8.64
  -7  -3  -3   12.70    9.99
  -7  -3  -3   19.47   12.02
  -7  -3  -3   14.14   10.08
  -7  -3  -3   18.80   11.51
  -7  -3  -3   16.68   11.18
   7   3   3   11.43    8.81
   7   3   3   12.02   10.08
   7   3   3    9.99    9.23
   7   3   3    5.25   10.67
   7   3   3   16.09   10.92
  -7  -3  -4    9.74   10.75
  -7  -3  -4   16.00   11.09
   7   3   4    6.27    8.64
   7   3   4    4.32    8.89
   7   3   4    9.14   11.01
  -7  -3  -5  144.69   26.16
  -7  -3  -5  108.79   20.49
   7   3   5  111.08   24.04
   7   3   5  117.43   21.34
  -7  -3  -6   21.17   15.16
   7   3   6   25.15   15.07
   7   3   6   18.80   14.73
  -7  -3  -7   54.78   20.07
   7   3   7   56.98   20.23
  -7  -4  11   59.94   20.49
  -7  -4  11   38.01   16.51
  -7  -4  11   40.39   10.41
   7   4 -11   47.07   17.27
   7   4 -11   54.10   19.64
  -7  -4  10   15.49   13.80
  -7  -4  10    9.06   10.33
  -7  -4  10   19.05   13.29
  -7  -4  10   13.63    6.94
   7   4 -10   22.44   12.70
   7   4 -10   16.34   13.72
  -7  -4   9   37.08   14.90
  -7  -4   9   26.58   12.36
  -7  -4   9   18.20   12.87
  -7  -4   9   35.90   14.73
  -7  -4   9   24.55    7.79
   7   4  -9   36.83   14.39
   7   4  -9   33.27   15.83
  -7  -4   8  212.76   25.15
  -7  -4   8  237.57   25.74
  -7  -4   8  237.48   26.84
  -7  -4   8  209.46   23.88
  -7  -4   8  209.29   15.92
   7   4  -8  207.68   28.96
   7   4  -8  196.93   23.62
  -7  -4   7   38.18   13.63
  -7  -4   7   26.84   12.36
  -7  -4   7   52.32   16.17
  -7  -4   7   32.51   13.89
  -7  -4   7   26.42    7.87
   7   4  -7   23.37   13.21
   7   4  -7   47.75   16.34
   7   4  -7   40.81   12.87
   7   4  -7   31.33   12.95
  -7  -4   6  315.80   26.75
  -7  -4   6  266.69   26.16
  -7  -4   6  260.17   26.33
  -7  -4   6  283.03   27.09
  -7  -4   6  267.54   17.95
   7   4  -6  284.14   27.60
   7   4  -6  286.51   27.69
   7   4  -6  272.96   24.47
   7   4  -6  306.83   28.19
  -7  -4   5   30.90   11.43
  -7  -4   5   19.90   11.18
  -7  -4   5   24.13   12.45
  -7  -4   5   26.75   10.84
  -7  -4   5   17.53    7.62
   7   4  -5   16.09   11.43
   7   4  -5   14.22   10.16
   7   4  -5   17.36   10.08
   7   4  -5   20.83   11.26
   7   4  -5   17.61   11.35
  -7  -4   4  123.53   19.13
  -7  -4   4  107.78   19.81
  -7  -4   4  105.66   19.39
  -7  -4   4  107.78   20.23
  -7  -4   4   97.03   14.22
   7   4  -4  119.38   21.67
   7   4  -4  100.67   18.54
   7   4  -4   89.91   18.54
   7   4  -4  110.49   20.40
  -7  -4   3    5.84    7.28
  -7  -4   3   11.77    7.20
  -7  -4   3    2.37    6.69
  -7  -4   3   -0.68    9.14
  -7  -4   3    4.74    9.06
  -7  -4   3   10.08    7.62
   7   4  -3    6.94    6.94
   7   4  -3   -0.51    9.06
   7   4  -3    4.91    8.55
   7   4  -3   13.63   10.16
   7   4  -3    8.21   10.24
  -7  -4   2  236.05   22.10
  -7  -4   2  167.21   16.85
  -7  -4   2  242.14   24.04
  -7  -4   2  229.19   23.96
  -7  -4   2  227.24   23.45
  -7  -4   2  248.49   20.83
   7   4  -2  238.92   20.57
   7   4  -2  215.90   22.01
   7   4  -2  223.01   22.86
   7   4  -2  176.78   22.10
   7   4  -2  214.20   21.93
  -7  -4   1  153.84   18.29
  -7  -4   1  140.12   17.27
  -7  -4   1  140.88   22.10
  -7  -4   1  128.18   20.83
  -7  -4   1  150.70   18.37
   7   4  -1  114.72   17.78
   7   4  -1  129.88   21.17
   7   4  -1  128.35   21.00
   7   4  -1  129.37   22.10
   7   4  -1  121.07   20.40
  -7  -4   0   79.25   16.09
  -7  -4   0   80.52   16.26
  -7  -4   0   78.91   16.93
  -7  -4   0   85.68   17.86
  -7  -4   0   74.76   15.07
   7   4   0   77.30   16.09
   7   4   0   78.57   17.36
   7   4   0   70.86   15.83
   7   4   0   78.15   17.86
   7   4   0   59.35   15.58
  -7  -4  -1   21.76   10.58
  -7  -4  -1   25.74   11.43
  -7  -4  -1   28.87   11.60
  -7  -4  -1   23.62   11.43
  -7  -4  -1   17.78   10.58
   7   4   1   19.90    9.31
   7   4   1   24.21   11.51
   7   4   1   16.09    9.74
   7   4   1   23.28   13.29
   7   4   1   25.57   11.77
  -7  -4  -2   50.97   14.48
  -7  -4  -2   43.94   14.39
  -7  -4  -2   36.24   12.02
  -7  -4  -2   45.89   13.89
  -7  -4  -2   62.06   15.49
   7   4   2   71.54   17.27
   7   4   2   44.79   14.14
   7   4   2   58.59   15.24
   7   4   2   48.94   15.32
   7   4   2   49.70   14.56
  -7  -4  -3   30.56   12.78
  -7  -4  -3   31.92   13.55
  -7  -4  -3   20.49   11.94
   7   4   3   21.34   11.68
   7   4   3   24.30   11.94
   7   4   3   31.58   15.16
  -7  -4  -4  278.80   28.11
  -7  -4  -4  236.05   27.43
  -7  -4  -4  213.78   24.21
   7   4   4  194.14   28.96
  -7  -4  -5    3.05    8.89
   7   4   5    3.81   11.77
   7   4   5   -0.68   12.11
  -7  -4  -6   12.53   13.46
   7   4   6   14.56   12.19
   7   4   6   11.60   13.38
  -7  -5  11   57.15   19.64
  -7  -5  11   56.56   19.98
  -7  -5  11   38.61   16.85
  -7  -5  11   50.54   12.02
   7   5 -11   41.15   17.36
   7   5 -11   48.43   20.07
  -7  -5  10   39.96   16.93
  -7  -5  10   37.51   16.17
  -7  -5  10   33.70   15.58
  -7  -5  10   28.36    9.99
   7   5 -10   33.10   15.66
   7   5 -10   43.26   18.12
  -7  -5   9  145.71   25.65
  -7  -5   9  163.49   26.42
  -7  -5   9  170.68   27.69
  -7  -5   9  165.27   16.93
   7   5  -9  132.16   24.13
   7   5  -9  142.74   27.18
  -7  -5   8   25.82   13.89
  -7  -5   8   13.38   11.68
  -7  -5   8   26.67   12.45
  -7  -5   8   15.24   10.84
  -7  -5   8   17.19    8.21
   7   5  -8   16.09   13.04
   7   5  -8   31.41   13.63
  -7  -5   7   92.71   19.47
  -7  -5   7  141.90   23.96
  -7  -5   7  103.97   21.08
  -7  -5   7  141.22   24.21
  -7  -5   7  124.88   14.90
   7   5  -7  105.92   22.44
   7   5  -7   84.24   19.30
   7   5  -7  123.19   20.40
  -7  -5   6  160.27   24.04
  -7  -5   6  159.09   25.65
  -7  -5   6  168.23   25.99
  -7  -5   6  148.50   24.98
  -7  -5   6  147.15   16.09
   7   5  -6  137.41   24.38
   7   5  -6  134.45   24.55
   7   5  -6  173.14   21.59
  -7  -5   5   23.62   12.11
  -7  -5   5   14.48   10.84
  -7  -5   5   20.49   10.84
  -7  -5   5   15.07   11.09
  -7  -5   5   19.39    8.89
   7   5  -5   14.22   11.60
   7   5  -5   17.69    9.82
   7   5  -5   15.83   11.94
   7   5  -5   11.26   10.67
   7   5  -5    9.65   11.35
  -7  -5   4   59.43   15.24
  -7  -5   4   62.91   16.26
  -7  -5   4   75.18   17.53
  -7  -5   4   70.95   17.78
  -7  -5   4   51.22   12.45
   7   5  -4   63.92   16.85
   7   5  -4   65.28   16.26
   7   5  -4   75.52   17.19
   7   5  -4   49.61   14.65
  -7  -5   3  214.20   22.77
  -7  -5   3  185.67   23.11
  -7  -5   3  213.61   24.13
  -7  -5   3  196.59   23.37
  -7  -5   3  225.63   20.32
   7   5  -3  165.18   25.31
   7   5  -3  179.32   21.67
   7   5  -3  181.78   26.33
   7   5  -3  157.22   24.13
  -7  -5   2   46.57   14.14
  -7  -5   2   40.13   13.97
  -7  -5   2   45.97   14.99
  -7  -5   2   28.87   11.60
  -7  -5   2   40.39   12.02
   7   5  -2   30.48   16.26
   7   5  -2   48.00   15.92
   7   5  -2   27.85   11.94
   7   5  -2   34.54   14.99
   7   5  -2   36.74   14.56
  -7  -5   1   35.73   12.87
  -7  -5   1   44.03   12.36
  -7  -5   1   45.21   14.48
  -7  -5   1   40.22   13.29
  -7  -5   1   34.46   12.11
   7   5  -1   41.32   12.11
   7   5  -1   38.61   14.22
   7   5  -1   39.96   13.29
   7   5  -1   33.44   15.16
   7   5  -1   29.63   13.29
  -7  -5   0  103.04   19.30
  -7  -5   0   85.26   16.93
  -7  -5   0  126.66   21.84
  -7  -5   0  104.31   19.73
  -7  -5   0  102.44   18.54
   7   5   0   72.98   16.26
   7   5   0   91.27   19.64
   7   5   0  107.27   19.47
   7   5   0   88.05   20.57
   7   5   0   96.94   19.13
  -7  -5  -1   35.98   13.63
  -7  -5  -1   32.77   12.53
  -7  -5  -1   44.45   13.97
  -7  -5  -1   31.16   13.04
  -7  -5  -1   23.20   11.77
   7   5   1   33.53   12.70
   7   5   1   25.48   12.45
   7   5   1   33.02   12.28
   7   5   1   31.24   14.90
   7   5   1   18.96   12.02
  -7  -5  -2    3.73   10.16
  -7  -5  -2    1.35    8.89
  -7  -5  -2    4.06    9.23
  -7  -5  -2    2.46    8.81
  -7  -5  -2    0.34   10.58
   7   5   2    5.50    7.79
   7   5   2    0.17    9.06
   7   5   2   -1.10    7.37
   7   5   2   -4.83    7.45
  -7  -5  -3  109.98   21.42
  -7  -5  -3  109.13   21.59
  -7  -5  -3   87.63   27.01
   7   5   3   85.43   21.67
  -7  -5  -4    0.59   12.70
  -7  -5  -4    0.59   10.75
   7   5   4  -12.45    8.04
   7   5   4   -9.65   11.09
  -7  -5  -5   40.89   17.19
  -7  -5  -5   30.90   15.92
   7   5   5   23.03   12.87
   7   5   5   14.31   14.22
  -7  -6  10   74.34   21.84
  -7  -6  10   65.11   19.30
  -7  -6  10   85.09   23.11
  -7  -6  10   72.64   14.73
   7   6 -10   67.22   20.40
   7   6 -10   81.96   22.10
  -7  -6   9   32.26   15.16
  -7  -6   9   14.31   12.36
  -7  -6   9   28.96   15.83
  -7  -6   9   20.49    9.91
   7   6  -9   26.42   16.09
   7   6  -9   36.74   16.59
  -7  -6   8   74.76   20.49
  -7  -6   8   56.30   15.92
  -7  -6   8   86.95   20.57
  -7  -6   8   64.18   18.96
  -7  -6   8   79.67   15.32
   7   6  -8   75.18   20.57
   7   6  -8   54.10   17.61
  -7  -6   7  287.44   29.72
  -7  -6   7  323.00   31.50
  -7  -6   7  274.48   30.23
  -7  -6   7  321.22   31.66
  -7  -6   7  311.40   24.04
   7   6  -7  333.83   32.51
   7   6  -7  305.39   31.24
   7   6  -7  255.35   25.99
  -7  -6   6   34.88   13.12
  -7  -6   6   23.62   13.04
  -7  -6   6   26.16   14.65
  -7  -6   6   32.77   15.07
  -7  -6   6   23.45   10.41
   7   6  -6   27.01   13.72
   7   6  -6   23.03   14.14
   7   6  -6   27.60   13.38
  -7  -6   5  166.71   25.65
  -7  -6   5  166.11   26.67
  -7  -6   5  193.29   28.53
  -7  -6   5  182.88   27.77
  -7  -6   5  178.98   19.81
   7   6  -5  189.82   23.62
   7   6  -5  166.03   26.42
   7   6  -5  136.06   23.54
  -7  -6   4    1.86    9.74
  -7  -6   4   -0.93    8.81
  -7  -6   4   -3.56    6.60
  -7  -6   4   -8.97    8.13
  -7  -6   4   -1.27    8.04
   7   6  -4   11.68   10.16
   7   6  -4    1.44    6.35
   7   6  -4    0.76    9.65
   7   6  -4   -4.23    9.65
  -7  -6   3  143.42   23.62
  -7  -6   3  157.82   25.23
  -7  -6   3  167.81   25.57
  -7  -6   3  155.19   24.13
  -7  -6   3  136.40   20.07
   7   6  -3  119.29   23.20
   7   6  -3  120.22   21.84
   7   6  -3  105.41   19.98
   7   6  -3  142.49   24.47
  -7  -6   2   59.27   16.59
  -7  -6   2   93.89   20.07
  -7  -6   2   77.89   18.46
  -7  -6   2   85.09   18.80
  -7  -6   2  105.24   19.39
   7   6  -2   63.08   17.61
   7   6  -2   82.63   18.20
   7   6  -2   65.78   19.56
  -7  -6   1   92.62   19.90
  -7  -6   1   91.86   19.22
  -7  -6   1  101.09   19.73
  -7  -6   1   79.84   17.19
   7   6  -1   73.49   18.46
   7   6  -1   62.65   16.00
   7   6  -1   70.10   19.81
  -7  -6   0   49.36   15.83
  -7  -6   0   49.36   14.14
  -7  -6   0   48.17   15.32
  -7  -6   0   53.08   15.16
  -7  -6   0   55.46   15.66
   7   6   0   26.75   11.94
   7   6   0   38.95   14.65
   7   6   0   34.04   12.36
   7   6   0   41.23   17.19
  -7  -6  -1   40.39   15.58
  -7  -6  -1   28.79   12.70
  -7  -6  -1   26.92   13.80
  -7  -6  -1   25.99   12.53
  -7  -6  -1   28.28   17.27
   7   6   1   25.57   12.87
   7   6   1   32.17   13.63
   7   6   1   22.01   11.51
   7   6   1   28.62   15.75
  -7  -6  -2  -10.75    9.74
  -7  -6  -2   -3.05    9.57
   7   6   2   -1.35    8.81
   7   6   2    2.71   12.62
  -7  -6  -3   37.59   16.93
  -7  -6  -3   32.68   14.82
   7   6   3   36.91   15.32
   7   6   3   27.52   16.51
  -7  -6  -4    0.68   13.97
  -7  -6  -4    6.77   12.78
   7   6   4    2.37   11.18
   7   6   4   -3.30   12.11
  -7  -7   9   20.66   15.16
  -7  -7   9   20.15   13.12
  -7  -7   9   41.06   18.12
  -7  -7   9   23.11   11.01
   7   7  -9   21.50   16.09
   7   7  -9   25.06   16.34
  -7  -7   8   21.67   14.31
  -7  -7   8   13.97   12.78
  -7  -7   8   21.17   15.24
  -7  -7   8   16.00   10.84
   7   7  -8    9.65   13.72
   7   7  -8   14.56   13.97
  -7  -7   7    7.20   11.85
  -7  -7   7    2.54   10.16
  -7  -7   7   15.24   14.05
  -7  -7   7   14.05   12.78
  -7  -7   7   14.65   10.24
   7   7  -7   19.98   14.65
   7   7  -7    4.66   11.35
  -7  -7   6   80.43   21.00
  -7  -7   6   48.94   17.61
  -7  -7   6   58.84   18.63
  -7  -7   6   73.49   19.05
  -7  -7   6   46.73   13.72
   7   7  -6   45.72   17.53
   7   7  -6   44.36   15.83
   7   7  -6   78.74   19.22
  -7  -7   5   80.85   19.81
  -7  -7   5   86.61   21.59
  -7  -7   5   72.73   20.74
  -7  -7   5  102.11   22.61
  -7  -7   5   81.96   17.36
   7   7  -5   71.20   18.96
   7   7  -5   75.01   18.88
   7   7  -5   95.76   22.01
   7   7  -5   68.83   18.71
  -7  -7   4  129.37   23.79
  -7  -7   4  116.33   23.96
  -7  -7   4  139.10   24.81
  -7  -7   4  158.41   26.08
  -7  -7   4  116.16   19.98
   7   7  -4  122.09   24.47
   7   7  -4  111.50   22.27
   7   7  -4  132.25   24.81
  -7  -7   3   78.74   19.81
  -7  -7   3   79.84   20.15
  -7  -7   3   82.97   20.07
  -7  -7   3   79.75   19.05
  -7  -7   3   80.01   17.19
   7   7  -3   77.89   20.15
   7   7  -3   63.33   17.53
   7   7  -3   77.47   18.96
   7   7  -3   63.58   19.90
  -7  -7   2   25.82   14.39
  -7  -7   2   24.30   13.29
  -7  -7   2   45.21   15.83
  -7  -7   2   29.72   13.55
  -7  -7   2   34.20   13.80
   7   7  -2   14.48   12.28
   7   7  -2   23.88   12.62
   7   7  -2   37.85   14.48
   7   7  -2   13.38   13.80
  -7  -7   1   52.32   17.78
  -7  -7   1   65.62   18.71
  -7  -7   1   49.44   15.92
  -7  -7   1   41.15   15.58
   7   7  -1   28.19   13.72
   7   7  -1   34.12   13.97
   7   7  -1   40.81   17.44
  -7  -7   0  -10.16    9.82
  -7  -7   0   -2.88    9.40
  -7  -7   0   -1.52    9.14
   7   7   0    4.91   10.92
   7   7   0   16.34   14.99
  -7  -7  -1   15.49   13.80
  -7  -7  -1   10.33   13.63
   7   7   1   26.16   19.05
   7   7   1   12.19   15.07
  -7  -7  -2   32.17   17.19
  -7  -7  -2   43.18   16.59
   7   7   2   21.93   13.21
   7   7   2   15.16   15.32
  -7  -8   7  -10.75   10.67
  -7  -8   7   11.43   13.38
  -7  -8   7    4.57    9.99
  -7  -8   7    4.74   10.92
   7   8  -7   -0.17   13.29
   7   8  -7   -0.59   10.75
  -7  -8   6   70.44   20.57
  -7  -8   6   60.62   19.13
  -7  -8   6   74.25   21.93
  -7  -8   6   90.34   22.61
  -7  -8   6   60.20   16.59
   7   8  -6   55.03   18.46
   7   8  -6   57.57   17.53
   7   8  -6   52.92   17.86
   7   8  -6   43.09   17.10
  -7  -8   5   27.35   14.99
  -7  -8   5   20.91   12.62
  -7  -8   5   11.60   13.38
  -7  -8   5   20.83   14.31
  -7  -8   5    9.65   10.33
   7   8  -5   20.91   16.00
   7   8  -5   22.94   13.38
   7   8  -5    9.40   12.19
   7   8  -5   18.20   14.14
  -7  -8   4  129.54   26.58
  -7  -8   4  125.64   24.47
  -7  -8   4  127.59   24.64
  -7  -8   4  128.27   22.86
   7   8  -4  107.19   21.76
   7   8  -4  136.06   24.81
   7   8  -4  140.20   26.50
  -7  -8   3   33.78   16.51
  -7  -8   3   50.29   18.80
  -7  -8   3   53.08   18.71
  -7  -8   3   58.42   17.53
  -7  -8   3   58.42   17.86
   7   8  -3   55.03   18.71
   7   8  -3   40.47   14.90
   7   8  -3   48.34   16.00
   7   8  -3   56.30   19.30
  -7  -8   2  237.57   29.38
  -7  -8   2  280.07   30.06
  -7  -8   2  265.93   28.62
  -7  -8   2  256.28   29.29
   7   8  -2  168.65   28.62
   7   8  -2  201.16   29.12
   7   8  -2  239.26   27.85
   7   8  -2  224.36   33.87
  -7  -8   1   49.11   17.86
  -7  -8   1   35.90   16.51
   7   8  -1   31.58   16.26
   7   8  -1   33.95   17.61
  -7  -8   0  145.20   28.11
  -7  -8   0  174.07   28.70
   7   8   0   97.20   23.62
  -8   9   2   38.35   17.02
  -8   9   2   36.07   16.34
  -8   9   2   58.84   20.49
  -8   9   2   56.22   18.37
  -8   9   2   70.95   22.77
  -8   9   2   59.77   17.36
   8  -9  -2   51.48   17.95
   8  -9  -2   34.80   14.56
   8  -9  -2   36.07   17.19
  -8   9   1   24.64   14.82
  -8   9   1   22.44   15.07
  -8   9   1   49.02   17.02
  -8   9   1   28.79   15.83
  -8   9   1   47.58   19.90
  -8   9   1   49.61   16.42
   8  -9  -1   28.53   16.51
   8  -9  -1   20.07   11.68
   8  -9  -1   35.05   17.10
  -8   9   0    4.40   11.18
  -8   9   0   16.59   13.89
  -8   9   0   18.12   14.39
  -8   9   0   19.73   13.72
  -8   9   0   18.46   15.24
  -8   9   0   28.19   13.80
   8  -9   0   12.11   15.16
   8  -9   0   10.67   12.19
   8  -9   0   10.24   11.18
  -8   9  -1   10.75   13.29
  -8   9  -1   11.09   13.21
  -8   9  -1    1.61   12.45
  -8   9  -1   -1.44   12.70
  -8   9  -1   11.68   12.36
   8  -9   1    8.64   13.55
   8  -9   1    8.55   13.38
  -8   9  -2   48.68   18.80
  -8   9  -2   43.52   17.02
  -8   9  -2   41.66   16.51
  -8   9  -2   46.40   18.37
  -8   9  -2   72.22   20.07
   8  -9   2   60.54   19.64
   8  -9   2   32.00   17.36
  -8   9  -3   32.51   17.44
  -8   9  -3   43.60   17.53
  -8   9  -3   31.07   17.61
  -8   9  -3   49.27   17.78
   8  -9   3   35.05   16.93
   8  -9   3   34.54   17.44
  -8   9  -4   64.60   21.34
  -8   9  -4   71.88   20.15
  -8   9  -4   47.84   17.44
  -8   9  -4   64.77   19.81
   8  -9   4   59.77   19.47
   8  -9   4   35.98   18.20
   8  -9   4   60.28   19.56
  -8   8   4   17.61   11.85
  -8   8   4   22.10   13.89
  -8   8   4   35.22   17.36
  -8   8   4   18.03   13.55
  -8   8   4   26.50   17.27
  -8   8   4   24.47   11.77
   8  -8  -4   22.77   17.19
   8  -8  -4   18.20   14.22
   8  -8  -4   18.54   14.56
  -8   8   3   50.38   18.37
  -8   8   3   67.90   19.30
  -8   8   3   76.20   21.59
  -8   8   3   81.79   21.00
  -8   8   3   80.18   23.11
  -8   8   3   70.70   16.76
   8  -8  -3   50.71   19.47
   8  -8  -3   47.16   17.36
  -8   8   2    4.15    8.72
  -8   8   2   11.35   12.11
  -8   8   2   14.56   14.05
  -8   8   2   11.01   12.45
  -8   8   2    6.69   10.75
  -8   8   2   12.36   10.75
   8  -8  -2    3.30    9.31
   8  -8  -2   -0.42    9.91
   8  -8  -2   -2.79   10.41
  -8   8   1   34.37   15.16
  -8   8   1   37.76   16.68
  -8   8   1   53.17   18.03
  -8   8   1   49.19   16.42
  -8   8   1   60.03   20.49
  -8   8   1   39.96   14.31
   8  -8  -1   36.15   14.73
   8  -8  -1   36.49   15.92
  -8   8   0   94.32   20.74
  -8   8   0  116.08   24.21
  -8   8   0   98.63   22.18
  -8   8   0   88.81   19.90
  -8   8   0   88.64   23.45
  -8   8   0   95.50   19.56
   8  -8   0   87.04   20.32
   8  -8   0   81.45   20.83
  -8   8  -1   -0.76   11.18
  -8   8  -1    5.59   11.35
  -8   8  -1   -2.71    9.40
  -8   8  -1    3.89   11.85
  -8   8  -1   14.56   11.85
   8  -8   1   -1.44   11.43
   8  -8   1   14.65   12.87
  -8   8  -2   21.76   14.82
  -8   8  -2   26.58   13.63
  -8   8  -2   30.56   15.16
  -8   8  -2   42.08   15.92
   8  -8   2   27.77   14.90
   8  -8   2   18.37   13.89
  -8   8  -3   15.32   12.78
  -8   8  -3   20.49   11.60
  -8   8  -3   17.86   11.94
  -8   8  -3   10.84   12.45
  -8   8  -3   30.99   15.24
   8  -8   3   21.08   14.22
   8  -8   3    9.40   12.45
   8  -8   3   17.53   12.95
  -8   8  -4  112.35   24.98
  -8   8  -4  153.33   26.50
  -8   8  -4   81.45   20.23
  -8   8  -4  139.36   25.15
  -8   8  -4  123.27   23.37
   8  -8   4   99.99   22.35
   8  -8   4   79.58   21.25
   8  -8   4  110.15   23.79
  -8   8  -5   48.77   18.54
  -8   8  -5   40.72   16.26
  -8   8  -5   31.92   15.83
   8  -8   5   39.28   16.42
   8  -8   5   35.64   16.51
   8  -8   5   29.29   16.26
  -8   8  -6   36.91   17.27
  -8   8  -6   76.96   27.01
  -8   8  -6   38.69   17.02
   8  -8   6   20.83   15.07
   8  -8   6   47.58   19.30
  -8   7   6   20.15   13.46
  -8   7   6   31.75   16.93
  -8   7   6   31.50   15.24
  -8   7   6   46.14   18.80
  -8   7   6   26.58   10.58
   8  -7  -6   45.72   19.13
   8  -7  -6   40.72   17.53
  -8   7   5    7.96   10.50
  -8   7   5    3.56   12.70
  -8   7   5   19.47   14.14
  -8   7   5    7.11   12.70
  -8   7   5   14.90    9.14
   8  -7  -5   14.05   12.62
   8  -7  -5   11.68   12.28
  -8   7   4  114.55   24.21
  -8   7   4  170.18   26.25
  -8   7   4  170.43   29.80
  -8   7   4  146.30   28.02
  -8   7   4  157.14   18.71
   8  -7  -4  179.66   30.90
   8  -7  -4  122.85   24.30
   8  -7  -4  121.49   23.79
  -8   7   3   28.87   14.05
  -8   7   3   34.54   14.31
  -8   7   3   27.94   13.21
  -8   7   3   22.52   12.19
  -8   7   3   36.74   16.93
  -8   7   3   34.80   11.68
   8  -7  -3   20.57   14.48
   8  -7  -3   12.95   10.08
   8  -7  -3   29.29   14.56
  -8   7   2  182.11   28.62
  -8   7   2  222.08   26.50
  -8   7   2  232.24   27.85
  -8   7   2  269.49   27.85
  -8   7   2  224.45   32.68
  -8   7   2  274.57   23.79
   8  -7  -2  219.96   26.67
  -8   7   1  118.53   22.69
  -8   7   1  150.87   26.16
  -8   7   1  153.33   25.82
  -8   7   1  187.28   22.86
  -8   7   1  152.06   27.43
  -8   7   1  182.37   20.66
   8  -7  -1  150.87   26.50
   8  -7  -1  123.53   23.45
  -8   7   0   35.98   15.07
  -8   7   0   54.19   17.44
  -8   7   0   45.80   14.22
  -8   7   0   40.89   16.09
  -8   7   0   48.51   14.14
   8  -7   0   38.95   16.00
   8  -7   0   27.94   14.48
  -8   7  -1   43.09   16.59
  -8   7  -1   83.14   19.73
  -8   7  -1   51.73   14.39
  -8   7  -1   53.59   17.02
  -8   7  -1   56.39   15.07
   8  -7   1   45.97   14.82
   8  -7   1   41.82   16.51
   8  -7   1   61.30   15.66
  -8   7  -2   31.33   14.73
  -8   7  -2   28.45   14.14
  -8   7  -2   34.04   13.55
  -8   7  -2   27.26   14.65
  -8   7  -2   34.29   13.97
   8  -7   2   27.69   13.72
   8  -7   2   19.81   12.95
   8  -7   2   29.38   13.55
  -8   7  -3   77.38   20.91
  -8   7  -3   65.19   18.46
  -8   7  -3   89.15   19.90
  -8   7  -3   73.49   19.30
  -8   7  -3   86.87   19.47
   8  -7   3   68.24   19.13
   8  -7   3   45.72   15.49
   8  -7   3   54.78   16.85
  -8   7  -4   16.26   13.80
  -8   7  -4   26.25   13.89
  -8   7  -4   23.20   13.29
  -8   7  -4   26.25   13.55
  -8   7  -4   29.80   13.72
   8  -7   4   19.64   13.38
   8  -7   4   31.66   15.24
   8  -7   4   13.97   12.78
  -8   7  -5  104.98   23.28
  -8   7  -5  134.53   24.55
  -8   7  -5   81.53   20.66
   8  -7   5  107.78   22.77
   8  -7   5   89.41   21.17
   8  -7   5   99.90   23.45
  -8   7  -6  111.42   24.13
  -8   7  -6  161.29   26.67
  -8   7  -6  117.85   24.04
   8  -7   6  108.20   22.94
   8  -7   6   96.60   22.52
   8  -7   6  102.28   24.55
  -8   7  -7  123.10   25.15
  -8   7  -7   90.93   21.42
  -8   7  -7   87.37   22.86
   8  -7   7  124.12   25.23
   8  -7   7   85.77   21.00
   8  -7   7  109.13   25.82
  -8   6   7   62.23   21.17
  -8   6   7   80.60   22.10
  -8   6   7   66.63   18.88
  -8   6   7   48.00   18.12
  -8   6   7   74.67   13.80
   8  -6  -7   95.50   24.81
   8  -6  -7   42.59   19.30
  -8   6   6   -1.10   11.85
  -8   6   6   15.32   13.80
  -8   6   6   19.81   13.55
  -8   6   6   -3.30   10.75
  -8   6   6   15.92    8.55
   8  -6  -6    8.55   13.04
   8  -6  -6    9.31    9.74
  -8   6   5   32.77   16.26
  -8   6   5   39.37   14.65
  -8   6   5   40.39   17.02
  -8   6   5   50.97   16.26
  -8   6   5   40.05   16.51
  -8   6   5   52.41   12.19
   8  -6  -5   54.61   19.30
   8  -6  -5   38.61   15.58
   8  -6  -5   38.44   15.49
  -8   6   4   -0.59   10.24
  -8   6   4   -4.91    9.82
  -8   6   4    0.76    8.13
  -8   6   4    0.68    9.31
  -8   6   4   -7.03    9.82
  -8   6   4    3.39    7.11
   8  -6  -4    4.40    9.31
   8  -6  -4    6.27    9.06
   8  -6  -4   -1.69    8.89
  -8   6   3   48.09   16.09
  -8   6   3   56.98   17.02
  -8   6   3   70.53   19.22
  -8   6   3   91.61   18.29
  -8   6   3   67.65   19.90
  -8   6   3   99.90   16.17
   8  -6  -3   84.75   21.34
   8  -6  -3   62.57   16.09
  -8   6   2   78.82   19.39
  -8   6   2   93.22   19.47
  -8   6   2  111.59   22.77
  -8   6   2   84.50   16.51
  -8   6   2   92.20   21.42
  -8   6   2   89.07   15.75
   8  -6  -2   65.70   18.54
   8  -6  -2   61.89   17.19
  -8   6   1   32.68   13.72
  -8   6   1   40.13   14.05
  -8   6   1   48.85   15.41
  -8   6   1   42.08   13.38
  -8   6   1   36.07   15.16
  -8   6   1   47.24   12.53
   8  -6  -1   46.73   16.93
   8  -6  -1   46.73   15.92
  -8   6   0   55.54   17.10
  -8   6   0   63.75   17.78
  -8   6   0   49.61   14.22
  -8   6   0   44.62   16.76
  -8   6   0   70.61   15.24
   8  -6   0   65.28   18.71
   8  -6   0   50.63   16.26
   8  -6   0   54.02   15.32
  -8   6  -1    1.27    9.91
  -8   6  -1   -5.84    8.30
  -8   6  -1    6.60    8.55
  -8   6  -1   -3.81    8.72
  -8   6  -1   11.35    9.48
   8  -6   1    6.43   10.08
   8  -6   1   -2.46    8.64
   8  -6   1   -7.70    7.45
  -8   6  -2   17.78   12.53
  -8   6  -2   20.07   12.78
  -8   6  -2   32.85   12.70
  -8   6  -2   23.96   13.29
  -8   6  -2   34.20   12.95
   8  -6   2   23.03   11.18
   8  -6   2   25.23   13.63
   8  -6   2   23.28   12.02
  -8   6  -3   19.05   12.02
  -8   6  -3   19.64   12.45
  -8   6  -3   21.67   12.02
  -8   6  -3   17.95   11.09
  -8   6  -3   22.10   12.19
   8  -6   3   18.54   12.53
   8  -6   3   11.09   11.43
   8  -6   3   23.79   13.72
  -8   6  -4   20.66   12.87
  -8   6  -4   26.33   12.02
  -8   6  -4   17.69   12.02
  -8   6  -4   29.63   13.12
  -8   6  -4   20.32   12.19
   8  -6   4   15.41   12.19
   8  -6   4    7.54   10.08
   8  -6   4   16.09   12.87
   8  -6   4   32.00   13.80
  -8   6  -5   53.25   17.19
  -8   6  -5   70.86   18.54
  -8   6  -5   71.71   19.30
  -8   6  -5   75.10   18.96
   8  -6   5   56.73   17.53
   8  -6   5   62.23   17.69
   8  -6   5   56.13   17.02
  -8   6  -6   54.27   18.54
  -8   6  -6   61.81   18.37
  -8   6  -6   40.64   16.93
   8  -6   6   41.23   16.34
   8  -6   6   34.80   14.48
   8  -6   6   33.36   16.59
  -8   6  -7  129.96   24.89
  -8   6  -7  175.17   28.36
  -8   6  -7  109.22   25.06
   8  -6   7  125.13   24.98
   8  -6   7  103.38   22.52
   8  -6   7   99.90   23.11
  -8   5   8  109.13   25.40
  -8   5   8  113.11   24.47
  -8   5   8  124.12   24.98
  -8   5   8   90.08   21.76
  -8   5   8  113.70   15.24
   8  -5  -8  118.62   26.25
   8  -5  -8   72.13   21.34
  -8   5   7    4.66    9.57
  -8   5   7   -6.35   10.16
  -8   5   7    0.93    9.23
  -8   5   7   -2.88    9.14
  -8   5   7    3.89    6.18
   8  -5  -7   -6.60    6.86
   8  -5  -7   -8.13    9.91
  -8   5   6   22.35   13.12
  -8   5   6    9.65    9.65
  -8   5   6   19.64   12.02
  -8   5   6   31.07   12.95
  -8   5   6   19.30   13.72
  -8   5   6   13.89    7.62
   8  -5  -6   25.31   13.21
   8  -5  -6   15.16   11.18
   8  -5  -6   25.06   12.45
  -8   5   5   25.31   13.97
  -8   5   5   35.81   13.38
  -8   5   5   29.97   13.63
  -8   5   5   45.13   14.22
  -8   5   5   50.54   17.44
  -8   5   5   48.17   10.33
  -8   5   5   45.21   14.39
   8  -5  -5   39.79   16.76
   8  -5  -5   24.81   13.55
   8  -5  -5   34.29   13.29
  -8   5   4   17.27   12.28
  -8   5   4   26.67   12.78
  -8   5   4   28.79   11.94
  -8   5   4   35.90   13.29
  -8   5   4   28.45   14.31
  -8   5   4   28.87    8.89
  -8   5   4   40.13   13.63
   8  -5  -4   34.04   14.99
   8  -5  -4   28.19   12.87
  -8   5   3  198.45   29.04
  -8   5   3  232.83   23.71
  -8   5   3  252.89   26.67
  -8   5   3  270.93   23.54
  -8   5   3  240.87   25.57
  -8   5   3  294.72   19.90
  -8   5   3  217.76   24.13
   8  -5  -3  280.33   28.53
   8  -5  -3  200.57   24.13
  -8   5   2   11.18   10.24
  -8   5   2   14.48   10.75
  -8   5   2   18.80   11.60
  -8   5   2    0.93    4.40
  -8   5   2   20.91    9.57
  -8   5   2   21.67   12.36
  -8   5   2   20.57    9.06
  -8   5   2   19.81   11.09
   8  -5  -2   19.13   12.87
   8  -5  -2   17.10   11.85
   8  -5  -2   10.92    9.65
  -8   5   1  247.81   25.91
  -8   5   1  275.33   26.92
  -8   5   1  244.09   22.35
  -8   5   1  212.51   25.31
  -8   5   1  300.73   21.67
  -8   5   1  249.08   25.48
   8  -5  -1  278.97   27.60
   8  -5  -1  172.55   25.65
   8  -5  -1  239.77   23.28
  -8   5   0    6.94    7.87
  -8   5   0    1.86    7.20
  -8   5   0    9.57    8.55
  -8   5   0    2.54    9.31
  -8   5   0    6.69    7.70
  -8   5   0   10.24    8.21
   8  -5   0   17.27   10.41
   8  -5   0   11.35    8.89
   8  -5   0   10.84    9.91
  -8   5  -1   59.43   15.92
  -8   5  -1  103.21   20.49
  -8   5  -1  109.47   19.30
  -8   5  -1   82.12   19.05
  -8   5  -1  119.63   18.54
  -8   5  -1   83.65   18.12
   8  -5   1  106.42   20.91
   8  -5   1   67.73   17.19
   8  -5   1   72.64   17.27
  -8   5  -2    2.03    7.37
  -8   5  -2   19.05   12.11
  -8   5  -2   14.56    8.97
  -8   5  -2   14.05   10.92
  -8   5  -2   17.69   10.24
  -8   5  -2   12.02   10.08
   8  -5   2   16.51   12.62
   8  -5   2    6.35    9.40
   8  -5   2    0.93    9.06
  -8   5  -3   12.45    9.48
  -8   5  -3    6.77   10.24
  -8   5  -3   11.35   10.41
  -8   5  -3   13.46   10.58
  -8   5  -3   16.26   10.84
  -8   5  -3   17.86   10.75
   8  -5   3   14.39   12.36
   8  -5   3   12.53   10.16
   8  -5   3   12.19   11.18
   8  -5   3   24.55   13.97
  -8   5  -4   24.72   12.87
  -8   5  -4   29.72   13.63
  -8   5  -4   18.63   10.33
  -8   5  -4   16.85   11.35
  -8   5  -4   35.22   14.05
   8  -5   4   25.82   13.38
   8  -5   4   15.16   10.75
   8  -5   4   10.58   11.51
   8  -5   4   16.00   11.94
  -8   5  -5    5.50   10.24
  -8   5  -5    3.73    9.99
  -8   5  -5   -1.44    7.11
  -8   5  -5   -7.11    9.06
  -8   5  -5   -0.17    9.82
   8  -5   5   -6.35    5.84
   8  -5   5   -0.25    8.47
   8  -5   5   -6.27    6.35
   8  -5   5   -3.89    9.99
  -8   5  -6   12.70   12.19
  -8   5  -6   34.46   13.72
  -8   5  -6   23.03   14.65
   8  -5   6    8.04    9.40
   8  -5   6   17.10   11.68
   8  -5   6   15.83   13.89
  -8   5  -7   58.93   18.12
  -8   5  -7   66.38   18.03
  -8   5  -7   47.07   16.59
   8  -5   7   43.86   16.93
   8  -5   7   36.32   14.31
   8  -5   7   45.38   18.12
  -8   5  -8   47.33   18.37
  -8   5  -8   36.91   18.03
   8  -5   8   47.24   18.71
   8  -5   8   23.62   13.89
  -8   4   9  109.05   25.57
  -8   4   9  130.38   25.40
  -8   4   9  170.35   14.39
   8  -4  -9  160.02   28.96
   8  -4  -9  120.39   26.33
  -8   4   8   12.02   12.70
  -8   4   8   21.42   13.04
  -8   4   8   45.55   16.09
  -8   4   8   16.76   14.48
  -8   4   8   39.79    8.30
   8  -4  -8   21.93   12.53
   8  -4  -8   13.12   13.89
  -8   4   7   21.67   14.48
  -8   4   7   25.65   12.53
  -8   4   7   29.38   12.45
  -8   4   7   12.02   12.36
  -8   4   7   30.31    7.62
   8  -4  -7   44.11   16.85
   8  -4  -7   22.18   12.11
  -8   4   6   52.32   16.26
  -8   4   6   74.76   17.36
  -8   4   6   53.34   16.93
  -8   4   6  100.41   19.39
  -8   4   6   67.39   19.13
  -8   4   6   82.21   10.58
  -8   4   6   66.29   16.34
   8  -4  -6   75.18   18.54
   8  -4  -6   78.23   19.73
   8  -4  -6   62.99   15.58
   8  -4  -6   56.47   15.49
  -8   4   5   34.88   14.31
  -8   4   5   39.03   13.72
  -8   4   5   52.07   15.92
  -8   4   5   66.72   15.16
  -8   4   5   55.20   17.69
  -8   4   5   58.33    9.65
  -8   4   5   55.12   15.41
   8  -4  -5   57.32   17.78
   8  -4  -5   41.23   13.89
  -8   4   4  177.63   21.67
  -8   4   4  198.62   23.03
  -8   4   4  206.92   23.96
  -8   4   4  187.53   19.98
  -8   4   4  191.60   27.94
  -8   4   4  232.83   15.58
   8  -4  -4  210.39   23.28
   8  -4  -4  190.92   22.44
  -8   4   3   27.01   12.62
  -8   4   3   29.80   11.26
  -8   4   3   51.73   14.22
  -8   4   3   47.92   12.87
  -8   4   3   41.99   15.83
  -8   4   3   53.42   10.24
  -8   4   3   39.96   13.89
   8  -4  -3   45.80   15.32
   8  -4  -3   36.83   13.29
   8  -4  -3   33.95   11.43
  -8   4   2   26.84   11.18
  -8   4   2   27.94   12.19
  -8   4   2   19.90    9.82
  -8   4   2   32.85   11.35
  -8   4   2   27.18   11.51
  -8   4   2   37.17    9.48
  -8   4   2   43.60   13.80
   8  -4  -2   20.49   10.58
   8  -4  -2   25.48   10.67
   8  -4  -2   22.77   11.94
  -8   4   1   49.44   14.90
  -8   4   1   38.61   13.55
  -8   4   1   39.62   11.94
  -8   4   1   49.36   14.73
  -8   4   1   48.85   10.92
  -8   4   1   39.45   13.21
   8  -4  -1   55.62   15.92
   8  -4  -1   28.70   12.28
   8  -4  -1   27.69   11.77
  -8   4   0    9.74    9.06
  -8   4   0   27.69   11.18
  -8   4   0   22.27   10.50
  -8   4   0   20.91   11.85
  -8   4   0   29.89   10.41
  -8   4   0   27.52   12.36
   8  -4   0    9.82    8.64
   8  -4   0   12.02   10.08
   8  -4   0   11.26    9.74
  -8   4  -1   21.17   11.68
  -8   4  -1   24.30   11.85
  -8   4  -1   21.17   10.75
  -8   4  -1   20.49   11.43
  -8   4  -1   18.71    9.14
  -8   4  -1   17.02   10.92
   8  -4   1   10.50   11.01
   8  -4   1   21.84   11.09
   8  -4   1   21.50   11.35
   8  -4   1   22.77   12.70
  -8   4  -2   -0.17    8.81
  -8   4  -2    1.52    9.14
  -8   4  -2    0.76    6.01
  -8   4  -2    1.52    8.04
  -8   4  -2    7.87    8.55
  -8   4  -2    2.37    8.72
   8  -4   2    5.16    9.91
   8  -4   2    3.73    8.47
   8  -4   2   -6.94    7.87
   8  -4   2    1.10    9.14
  -8   4  -3   41.91   14.48
  -8   4  -3   36.07   13.63
  -8   4  -3   42.59   14.48
  -8   4  -3   27.26   11.94
  -8   4  -3   46.57   13.72
  -8   4  -3   27.09   12.45
   8  -4   3   22.27   11.35
   8  -4   3   19.47   11.18
   8  -4   3   30.65   13.80
   8  -4   3   27.01   12.28
  -8   4  -4   30.39   13.04
  -8   4  -4   25.23   13.12
  -8   4  -4   16.59   10.24
  -8   4  -4   26.92   12.28
  -8   4  -4   26.16   12.28
  -8   4  -4   26.08   12.28
   8  -4   4   15.24    9.99
   8  -4   4    9.82    9.74
   8  -4   4    7.45   10.41
   8  -4   4   35.47   13.80
  -8   4  -5    3.64    9.82
  -8   4  -5   15.07   11.68
  -8   4  -5   19.47   10.84
  -8   4  -5   17.95   12.19
  -8   4  -5   14.14   10.67
   8  -4   5   10.16    9.99
   8  -4   5   20.66   10.75
   8  -4   5   19.81   11.51
   8  -4   5   33.44   14.22
  -8   4  -6   37.68   14.22
  -8   4  -6   55.71   17.78
  -8   4  -6   26.92   14.14
   8  -4   6   39.54   16.00
   8  -4   6   37.08   14.14
   8  -4   6   26.50   14.05
  -8   4  -7   27.77   15.41
  -8   4  -7   21.34   13.12
   8  -4   7   20.74   14.31
   8  -4   7    6.35   11.43
  -8   4  -8  103.04   23.88
  -8   4  -8   59.52   19.13
   8  -4   8   53.42   19.13
   8  -4   8   54.19   19.98
  -8   3   9   25.65   15.32
  -8   3   9   20.57   13.21
  -8   3   9   16.26   13.12
  -8   3   9   15.24    5.25
   8  -3  -9    5.59   11.51
   8  -3  -9    7.62   12.78
  -8   3   8   18.54   11.77
  -8   3   8    7.20   11.09
  -8   3   8    6.35   10.84
  -8   3   8    2.79   10.92
  -8   3   8   14.73    4.66
   8  -3  -8    7.28    8.89
   8  -3  -8   14.22   12.78
  -8   3   7   53.00   16.26
  -8   3   7  105.58   19.73
  -8   3   7   69.26   18.46
  -8   3   7   78.57   17.53
  -8   3   7   88.56   19.64
  -8   3   7   76.62    7.11
   8  -3  -7   72.90   18.03
   8  -3  -7   55.37   16.51
   8  -3  -7   70.02   17.02
  -8   3   6   65.28   17.36
  -8   3   6   55.37   14.99
  -8   3   6   67.31   17.02
  -8   3   6   78.65   16.26
  -8   3   6   79.16   18.71
  -8   3   6   73.83   16.17
   8  -3  -6   84.92   19.81
   8  -3  -6   68.83   17.69
   8  -3  -6   81.96   17.53
   8  -3  -6   77.64   16.76
  -8   3   5  132.08   23.45
  -8   3   5  110.91   19.73
  -8   3   5  166.37   24.47
  -8   3   5   10.75    6.27
  -8   3   5  177.29   19.64
  -8   3   5  146.39   23.96
  -8   3   5  153.16   22.27
   8  -3  -5  188.97   23.03
   8  -3  -5  124.80   21.00
   8  -3  -5  151.47   18.88
   8  -3  -5  197.61   22.44
  -8   3   4    8.38    9.82
  -8   3   4   15.32   10.24
  -8   3   4    7.03    9.06
  -8   3   4    5.08    8.04
  -8   3   4   18.12   11.18
  -8   3   4   10.41    9.06
   8  -3  -4    9.91   10.08
   8  -3  -4    7.11    9.31
   8  -3  -4    9.48    8.64
  -8   3   3   54.86   15.83
  -8   3   3   56.89   15.75
  -8   3   3   78.31   17.69
  -8   3   3   83.06   16.26
  -8   3   3   72.64   17.78
  -8   3   3   57.15   14.99
   8  -3  -3   74.67   17.44
   8  -3  -3   59.77   15.32
   8  -3  -3   72.90   15.66
  -8   3   2   29.97   12.11
  -8   3   2   36.91   13.12
  -8   3   2   21.25   10.41
  -8   3   2   31.83   13.21
  -8   3   2   39.62   13.63
   8  -3  -2   37.17   12.78
   8  -3  -2   22.61   11.18
   8  -3  -2   26.16   11.51
  -8   3   1   11.85    9.91
  -8   3   1   12.70    9.82
  -8   3   1    9.40    8.89
  -8   3   1   11.09    9.91
  -8   3   1   -4.32    7.45
   8  -3  -1   11.01   10.58
   8  -3  -1   -1.69    7.87
   8  -3  -1   10.67    9.31
   8  -3  -1   16.17   11.26
  -8   3   0   43.09   14.05
  -8   3   0   46.73   13.46
  -8   3   0   21.25   10.92
  -8   3   0   38.86   13.97
  -8   3   0   41.99   10.58
  -8   3   0   42.42   13.72
   8  -3   0   45.13   13.29
   8  -3   0   24.04   11.68
   8  -3   0   42.93   13.63
   8  -3   0   54.44   16.00
  -8   3  -1  110.15   19.64
  -8   3  -1  145.20   22.61
  -8   3  -1  133.18   20.66
  -8   3  -1  118.95   21.00
  -8   3  -1  147.99   17.10
  -8   3  -1   85.60   17.78
   8  -3   1  116.75   21.25
   8  -3   1   70.95   16.26
   8  -3   1  116.84   20.66
   8  -3   1  136.65   21.93
  -8   3  -2  167.64   24.04
  -8   3  -2  230.37   24.47
  -8   3  -2  204.13   21.76
  -8   3  -2  229.53   23.54
  -8   3  -2  254.42   22.27
  -8   3  -2  194.14   22.18
   8  -3   2  206.41   23.62
   8  -3   2  146.98   22.27
   8  -3   2  180.84   25.40
   8  -3   2  226.82   24.04
  -8   3  -3   13.97   10.84
  -8   3  -3   18.29   11.60
  -8   3  -3   21.50   12.19
  -8   3  -3   18.20   11.09
  -8   3  -3   20.40   10.75
  -8   3  -3   16.09   10.24
   8  -3   3   13.72   10.75
   8  -3   3   10.41    8.64
   8  -3   3    7.87    9.48
   8  -3   3   20.23   12.19
  -8   3  -4    1.19    8.55
  -8   3  -4    1.02    7.20
  -8   3  -4   -4.57    8.13
  -8   3  -4    1.44    8.89
  -8   3  -4    0.76    7.87
   8  -3   4    6.60    8.55
   8  -3   4    2.03    8.13
   8  -3   4   -1.27    8.30
   8  -3   4    8.72    9.91
  -8   3  -5   61.38   16.17
  -8   3  -5   79.67   19.81
  -8   3  -5   64.35   17.78
  -8   3  -5   73.91   17.44
  -8   3  -5   73.49   17.36
   8  -3   5   84.07   19.56
   8  -3   5   58.33   15.24
   8  -3   5   59.10   17.44
   8  -3   5   80.01   18.20
  -8   3  -6    2.79   10.16
  -8   3  -6   12.53   12.28
  -8   3  -6   17.69   12.70
   8  -3   6    0.42   10.67
   8  -3   6    3.81    8.81
   8  -3   6   10.24   10.92
  -8   3  -7   83.73   21.59
  -8   3  -7   71.46   20.40
   8  -3   7   69.09   20.23
   8  -3   7   48.26   16.59
  -8   3  -8   18.71   12.28
  -8   3  -8    8.97   13.97
   8  -3   8   15.32   12.11
   8  -3   8    9.06   12.28
  -8   2  10    6.77   11.94
  -8   2  10    2.46   11.09
   8  -2 -10    4.15   11.18
   8  -2 -10    8.21   12.45
   8  -2 -10   21.76   14.14
  -8   2   9    3.89   10.67
  -8   2   9   22.52   12.78
  -8   2   9   26.16   13.38
   8  -2  -9   27.09   13.63
   8  -2  -9   17.44   12.62
   8  -2  -9   23.37   13.80
  -8   2   8  129.71   24.64
  -8   2   8  163.74   25.57
  -8   2   8  161.46   23.88
  -8   2   8  147.49   24.81
   8  -2  -8  149.01   24.72
   8  -2  -8  114.72   21.76
   8  -2  -8  156.71   24.04
   8  -2  -8  184.91   27.77
  -8   2   7   18.03   11.94
  -8   2   7   25.65   12.70
  -8   2   7   21.67   10.58
  -8   2   7   26.75   12.11
  -8   2   7   23.88   11.01
  -8   2   7   20.91   12.45
  -8   2   7   30.06   13.12
   8  -2  -7   23.37   12.28
   8  -2  -7   18.71    9.82
   8  -2  -7   12.02   10.58
   8  -2  -7   22.10   12.53
   8  -2  -7   16.17   11.60
  -8   2   6   14.56    9.31
  -8   2   6   12.78    9.82
  -8   2   6   24.21   11.77
  -8   2   6   21.42   10.75
  -8   2   6    1.69    5.16
  -8   2   6   30.23   12.19
  -8   2   6   27.85   12.78
  -8   2   6   19.30    2.37
  -8   2   6   15.92   10.33
   8  -2  -6   14.73    9.99
   8  -2  -6   26.75   11.09
   8  -2  -6   14.56    9.31
   8  -2  -6   23.03   12.87
   8  -2  -6   24.21   11.68
  -8   2   5   46.99   15.07
  -8   2   5   71.63   16.85
  -8   2   5   51.14   14.65
  -8   2   5   58.33   15.58
  -8   2   5   55.03   13.80
  -8   2   5   43.01   14.22
  -8   2   5   62.57    6.10
  -8   2   5   64.35   15.66
   8  -2  -5   69.68   16.68
   8  -2  -5   32.77   13.04
   8  -2  -5   53.42   14.05
   8  -2  -5   72.39   17.69
   8  -2  -5   81.53   17.19
  -8   2   4   60.70   15.75
  -8   2   4   46.65   14.14
  -8   2   4   63.75   15.49
  -8   2   4   69.59   16.17
  -8   2   4   51.22   13.46
  -8   2   4   66.12   16.85
  -8   2   4   64.94    7.62
  -8   2   4   61.97   15.32
   8  -2  -4   72.22   16.93
   8  -2  -4   39.79   13.12
   8  -2  -4   54.02   13.97
   8  -2  -4   77.98   18.12
   8  -2  -4   78.31   17.19
  -8   2   3  151.47   22.44
  -8   2   3  143.76   17.86
  -8   2   3  173.82   21.17
  -8   2   3  165.86   17.95
  -8   2   3  162.73   23.71
  -8   2   3  175.43   12.62
  -8   2   3  169.67   19.39
   8  -2  -3  175.68   19.73
   8  -2  -3  104.90   19.22
   8  -2  -3  152.14   21.59
   8  -2  -3  163.06   20.07
   8  -2  -3  188.21   20.40
  -8   2   2    5.67    7.11
  -8   2   2    5.33    7.11
  -8   2   2   10.50    9.82
  -8   2   2    2.62    7.54
  -8   2   2    6.86    9.31
  -8   2   2    6.43    5.42
  -8   2   2    7.45    7.70
   8  -2  -2   12.11    9.74
   8  -2  -2   10.16    7.79
   8  -2  -2    5.25    8.21
   8  -2  -2    4.23    7.79
  -8   2   1   91.01   17.78
  -8   2   1   63.33   14.56
  -8   2   1   77.98   16.85
  -8   2   1   91.44   17.10
  -8   2   1   65.53   15.92
  -8   2   1   98.63   13.55
  -8   2   1   73.32   16.68
   8  -2  -1   79.50   17.36
   8  -2  -1   57.32   15.07
   8  -2  -1   78.31   16.76
   8  -2  -1   87.46   18.46
  -8   2   0   58.42   15.66
  -8   2   0   56.39   15.32
  -8   2   0   47.24   13.80
  -8   2   0   44.53   14.39
  -8   2   0   48.85   11.09
  -8   2   0   55.88   15.07
   8  -2   0   46.90   14.99
   8  -2   0   49.70   14.56
   8  -2   0   47.92   14.05
   8  -2   0   61.13   16.42
  -8   2  -1   81.11   17.44
  -8   2  -1   89.24   18.20
  -8   2  -1   57.57   15.24
  -8   2  -1   70.70   17.02
  -8   2  -1   52.49   14.56
   8  -2   1   69.59   16.85
   8  -2   1   53.85   14.39
   8  -2   1   65.78   15.24
   8  -2   1   66.46   16.34
  -8   2  -2    1.86    8.30
  -8   2  -2    6.43    9.06
  -8   2  -2    4.15    8.38
  -8   2  -2    6.69    9.48
  -8   2  -2    3.64    7.79
   8  -2   2   -1.95    6.10
   8  -2   2   -1.78    6.86
   8  -2   2    1.35    8.72
   8  -2   2    4.32    9.48
  -8   2  -3   55.46   15.24
  -8   2  -3   62.31   16.68
  -8   2  -3   49.44   14.31
  -8   2  -3   80.01   16.76
  -8   2  -3   62.40   15.66
   8  -2   3   52.49   16.42
   8  -2   3   58.08   14.73
   8  -2   3   52.15   15.49
   8  -2   3   63.41   16.09
  -8   2  -4  144.01   22.61
  -8   2  -4  141.14   23.88
  -8   2  -4  138.93   23.11
  -8   2  -4  199.98   22.10
  -8   2  -4  169.75   20.66
   8  -2   4  157.90   25.40
   8  -2   4  131.40   20.91
   8  -2   4   93.30   20.32
   8  -2   4  154.94   23.96
  -8   2  -5   -3.89    8.13
  -8   2  -5    7.11    8.81
  -8   2  -5    5.59    8.38
  -8   2  -5   15.16   11.18
  -8   2  -5    5.00    8.97
   8  -2   5    6.43    8.64
   8  -2   5   11.60    9.31
   8  -2   5    4.83    9.82
   8  -2   5    6.35    9.74
  -8   2  -6   48.09   15.41
  -8   2  -6   48.17   16.76
   8  -2   6   41.82   16.93
   8  -2   6   31.50   12.70
  -8   2  -7    8.13   12.53
  -8   2  -7    2.12    8.89
   8  -2   7  -10.08    9.23
   8  -2   7    5.76   10.67
  -8   2  -8    5.08   12.70
  -8   2  -8    5.76    9.74
   8  -2   8   -2.88   11.77
   8  -2   8    0.08   10.67
  -8   1  10    1.27   12.53
  -8   1  10    9.65   12.28
   8  -1 -10    4.57   12.28
   8  -1 -10   10.24   11.60
  -8   1   9  180.84   26.92
  -8   1   9  197.86   23.20
  -8   1   9  168.74   25.48
   8  -1  -9  200.15   34.04
   8  -1  -9  243.58   25.57
   8  -1  -9  165.77   25.48
   8  -1  -9  235.88   25.99
  -8   1   8    5.67    9.99
  -8   1   8   24.30   11.43
  -8   1   8   17.78   11.18
  -8   1   8    5.84    9.57
  -8   1   8   11.77    9.99
  -8   1   8   15.66   10.16
  -8   1   8   12.62   10.84
  -8   1   8   -3.39   10.16
   8  -1  -8   21.93   12.02
   8  -1  -8   17.69   11.01
   8  -1  -8    5.16    8.89
   8  -1  -8   17.69   11.68
   8  -1  -8   16.17   10.58
   8  -1  -8   19.73   11.09
   8  -1  -8   18.12   11.09
   8  -1  -8   13.89   12.11
  -8   1   7    1.78    8.21
  -8   1   7    6.27    9.40
  -8   1   7   13.38   10.08
  -8   1   7    9.06    9.48
  -8   1   7    0.08    7.87
  -8   1   7    1.61    7.11
  -8   1   7    9.91   10.67
  -8   1   7   -3.47    8.04
   8  -1  -7    9.57    9.65
   8  -1  -7   -0.68    8.38
   8  -1  -7    6.52    9.23
   8  -1  -7    2.46    9.82
   8  -1  -7   12.36   14.14
   8  -1  -7   10.92    9.23
   8  -1  -7    9.82    9.57
   8  -1  -7    8.72   10.16
   8  -1  -7    5.00    8.97
  -8   1   6   98.63   19.56
  -8   1   6   75.69   17.53
  -8   1   6  106.17   19.13
  -8   1   6  107.61   19.39
  -8   1   6   97.11   18.03
  -8   1   6   89.58   17.53
  -8   1   6   84.75   18.96
  -8   1   6   94.74   18.37
   8  -1  -6  106.00   19.39
   8  -1  -6   87.20   18.46
   8  -1  -6   76.03   16.51
   8  -1  -6  106.42   20.40
   8  -1  -6   80.26   17.44
  -8   1   5   82.21   17.53
  -8   1   5   90.42   17.36
  -8   1   5  117.60   20.07
  -8   1   5  103.55   17.86
  -8   1   5   89.66   18.29
  -8   1   5  111.59    6.43
  -8   1   5   97.03   18.88
   8  -1  -5  103.97   18.54
   8  -1  -5   92.88   17.86
   8  -1  -5  102.53   18.46
   8  -1  -5  107.19   20.40
   8  -1  -5  122.43   20.49
  -8   1   4  469.04   31.66
  -8   1   4  497.91   30.48
  -8   1   4  534.23   33.53
  -8   1   4  468.20   30.14
  -8   1   4  447.71   31.66
  -8   1   4  526.45   17.10
  -8   1   4  498.85   32.17
   8  -1  -4  513.83   31.75
   8  -1  -4  357.88   27.18
   8  -1  -4  442.88   29.72
   8  -1  -4  494.10   32.93
   8  -1  -4  447.71   31.07
  -8   1   3  121.16   19.98
  -8   1   3  106.76   18.54
  -8   1   3  104.39   18.63
  -8   1   3  109.81   18.46
  -8   1   3   94.23   18.96
  -8   1   3  119.80   10.92
  -8   1   3  101.60   18.46
   8  -1  -3   92.62   17.78
   8  -1  -3  114.64   19.47
   8  -1  -3  108.62   18.80
   8  -1  -3  140.20   22.52
   8  -1  -3  108.88   19.39
  -8   1   2  726.59   37.59
  -8   1   2  707.97   36.58
  -8   1   2  779.09   39.71
  -8   1   2  684.77   35.56
  -8   1   2  676.81   37.42
  -8   1   2  785.18   26.92
  -8   1   2  644.30   35.31
   8  -1  -2  786.37   37.93
   8  -1  -2  558.20   33.95
   8  -1  -2  642.44   35.31
   8  -1  -2  811.00   40.64
   8  -1  -2  752.50   38.18
  -8   1   1    6.52    8.97
  -8   1   1    6.35    8.72
  -8   1   1   11.77    7.96
  -8   1   1    5.84    8.72
  -8   1   1   13.72   11.01
  -8   1   1    7.28    6.35
  -8   1   1   10.24    8.97
   8  -1  -1    8.47    9.48
   8  -1  -1    9.91    9.06
   8  -1  -1    4.23    8.47
   8  -1  -1   -4.32    7.70
   8  -1  -1    8.89    9.23
  -8   1   0  249.34   23.96
  -8   1   0  249.93   23.96
  -8   1   0  232.07   22.10
  -8   1   0  217.00   21.42
  -8   1   0  189.82   20.74
  -8   1   0  272.45   19.98
  -8   1   0  230.80   23.03
   8  -1   0  237.06   23.88
   8  -1   0  223.09   22.52
   8  -1   0  166.28   20.66
   8  -1   0  192.27   22.35
   8  -1   0  219.71   23.28
  -8   1  -1  203.87   22.27
  -8   1  -1  214.54   21.67
  -8   1  -1  224.45   23.20
  -8   1  -1  194.73   21.00
  -8   1  -1  245.02   20.49
  -8   1  -1  214.88   22.44
   8  -1   1  178.39   20.23
   8  -1   1  171.87   20.40
   8  -1   1  202.09   21.25
   8  -1   1  235.37   22.77
   8  -1   1  216.06   23.11
  -8   1  -2  127.25   21.08
  -8   1  -2  136.23   21.59
  -8   1  -2  129.45   20.83
  -8   1  -2   98.80   19.81
  -8   1  -2  142.91   17.44
  -8   1  -2  109.39   19.05
   8  -1   2  109.30   20.74
   8  -1   2  104.31   19.05
   8  -1   2  113.87   20.15
   8  -1   2  126.32   21.59
   8  -1   2  124.12   21.00
  -8   1  -3   50.12   14.31
  -8   1  -3   57.23   16.42
  -8   1  -3   52.15   14.82
  -8   1  -3   54.19   14.14
   8  -1   3   47.75   15.92
   8  -1   3   45.47   13.89
   8  -1   3   30.90   12.95
   8  -1   3   50.97   15.32
   8  -1   3   55.29   14.56
  -8   1  -4    0.25    7.62
  -8   1  -4    6.60    8.30
  -8   1  -4    2.46    9.31
  -8   1  -4   15.07   10.16
   8  -1   4    6.18    8.64
   8  -1   4    3.13    7.45
   8  -1   4    1.78    8.38
   8  -1   4   11.51   10.41
   8  -1   4   12.53    9.99
  -8   1  -5   47.24   14.05
  -8   1  -5   55.71   17.36
  -8   1  -5   32.77   13.21
  -8   1  -5   50.88   16.68
   8  -1   5   33.61   14.90
   8  -1   5   27.43   11.60
   8  -1   5   35.56   14.05
   8  -1   5   51.90   15.66
  -8   1  -6   62.06   19.30
  -8   1  -6   31.66   16.17
   8  -1   6   40.98   15.32
   8  -1   6   36.24   13.38
  -8   1  -7    8.38   13.29
  -8   1  -7    9.23   10.84
   8  -1   7    7.28   12.95
   8  -1   7    9.31   12.11
  -8   1  -8    1.78   13.29
  -8   1  -8   15.58   14.14
   8  -1   8    1.44   12.70
   8  -1   8   -0.17   10.75
  -8   0  11   -0.34   12.45
  -8   0  11   16.26   14.22
   8   0 -11   14.14   14.39
   8   0 -11   27.52   15.66
  -8   0  10   66.89   19.47
  -8   0  10   82.21   20.32
   8   0 -10  119.97   23.79
   8   0 -10  110.32   21.84
  -8   0   9   28.36   13.72
  -8   0   9   31.16   13.12
  -8   0   9   22.18   11.77
   8   0  -9   28.11   14.22
   8   0  -9   30.48   13.80
   8   0  -9   21.76   11.43
   8   0  -9   26.58   13.21
  -8   0   8   21.00   12.87
  -8   0   8   46.99   21.50
  -8   0   8   33.10   12.70
  -8   0   8   27.69   16.09
  -8   0   8   31.33   13.89
  -8   0   8   50.97   15.16
  -8   0   8   28.87   13.04
  -8   0   8   31.92   12.87
   8   0  -8   34.63   14.31
   8   0  -8   53.17   15.24
   8   0  -8   29.89   13.04
   8   0  -8   28.11   12.02
   8   0  -8   41.15   13.38
   8   0  -8   23.28   12.02
   8   0  -8   19.05   12.95
   8   0  -8   26.50   12.53
   8   0  -8   34.80   13.29
  -8   0   7  100.24   18.46
  -8   0   7   94.74   18.46
  -8   0   7  137.92   22.44
  -8   0   7  103.71   18.12
  -8   0   7  115.48   20.23
  -8   0   7  126.40   21.00
  -8   0   7  118.36   20.32
  -8   0   7   92.71   19.05
   8   0  -7  138.00   21.00
   8   0  -7  106.00   18.54
   8   0  -7  123.53   21.50
   8   0  -7  107.10   19.47
   8   0  -7   95.42   18.54
   8   0  -7   97.11   19.05
   8   0  -7  124.97   21.25
  -8   0   6  143.59   22.77
  -8   0   6  108.88   18.03
  -8   0   6  130.30   21.50
  -8   0   6  148.67   23.03
  -8   0   6  106.68   19.30
  -8   0   6  116.58   20.83
  -8   0   6  155.78   23.71
   8   0  -6  112.43   19.22
   8   0  -6   91.27   18.03
   8   0  -6   92.20   19.05
   8   0  -6  106.00   19.56
   8   0  -6  114.55   20.66
   8   0  -6   93.47   18.46
  -8   0   5   70.02   16.76
  -8   0   5   45.13   12.87
  -8   0   5   38.18   12.95
  -8   0   5   55.37   14.90
  -8   0   5   53.85   14.31
  -8   0   5   60.20   16.26
  -8   0   5   54.19    6.18
  -8   0   5   41.66   13.72
   8   0  -5   59.35   14.39
   8   0  -5   38.52   13.80
   8   0  -5   48.85   14.48
   8   0  -5   40.81   13.46
   8   0  -5   59.77   15.41
   8   0  -5   70.78   16.85
  -8   0   4   44.28   12.87
  -8   0   4   78.23   15.83
  -8   0   4   78.40   17.27
  -8   0   4   70.27   16.42
  -8   0   4   79.25   17.95
  -8   0   4   82.12    8.81
  -8   0   4   67.05   16.00
   8   0  -4   92.45   17.10
   8   0  -4   60.87   16.09
   8   0  -4   51.48   14.22
   8   0  -4   74.34   17.10
   8   0  -4   70.36   16.59
  -8   0   3  247.22   22.94
  -8   0   3  242.90   22.01
  -8   0   3  246.21   23.96
  -8   0   3  218.01   22.27
  -8   0   3  175.34   20.23
  -8   0   3  243.24   15.16
  -8   0   3  203.03   20.91
   8   0  -3  225.04   20.66
   8   0  -3  175.00   21.00
   8   0  -3  212.00   22.44
   8   0  -3  199.47   21.34
   8   0  -3  206.41   21.25
  -8   0   2   62.48   15.75
  -8   0   2   72.64   15.41
  -8   0   2   64.09   15.66
  -8   0   2   47.50   13.72
  -8   0   2   73.07   16.51
  -8   0   2   54.69   10.33
  -8   0   2   89.74   17.44
   8   0  -2   75.61   16.34
   8   0  -2   65.62   16.00
   8   0  -2   61.30   15.41
   8   0  -2   67.73   16.09
   8   0  -2   53.85   14.90
  -8   0   1  333.24   27.26
  -8   0   1  376.50   27.43
  -8   0   1  382.35   27.77
  -8   0   1  341.71   26.42
  -8   0   1  414.77   22.77
  -8   0   1  379.81   28.36
   8   0  -1  362.03   26.25
   8   0  -1  304.96   24.89
   8   0  -1  327.74   26.84
   8   0  -1  377.69   29.21
   8   0  -1  341.88   27.52
  -8   0   0  357.88   27.85
  -8   0   0  378.88   27.35
  -8   0   0  372.69   27.35
  -8   0   0  328.33   26.16
  -8   0   0  378.62   23.62
  -8   0   0  329.85   26.58
   8   0   0  334.43   26.92
   8   0   0  362.53   27.69
   8   0   0  317.83   25.74
   8   0   0  377.35   29.21
   8   0   0  341.62   27.43
  -8   0  -1   53.08   14.48
  -8   0  -1   61.38   15.75
  -8   0  -1   54.86   14.65
  -8   0  -1   41.74   12.95
  -8   0  -1   50.97   12.62
  -8   0  -1   43.94   13.72
   8   0   1   48.60   13.72
   8   0   1   32.34   12.36
   8   0   1   43.43   13.80
   8   0   1   45.04   14.73
   8   0   1   47.50   13.89
  -8   0  -2  165.35   23.62
  -8   0  -2  155.11   23.54
  -8   0  -2  159.68   22.94
  -8   0  -2  154.94   23.88
  -8   0  -2  169.33   19.05
  -8   0  -2  136.14   20.83
   8   0   2  172.72   25.48
   8   0   2  138.85   20.57
   8   0   2  153.67   23.11
   8   0   2  153.58   23.62
   8   0   2  154.85   22.52
  -8   0  -3   53.17   14.73
  -8   0  -3   56.30   14.99
  -8   0  -3   58.00   14.82
  -8   0  -3   39.96   13.55
  -8   0  -3   68.83   16.26
  -8   0  -3   60.03   14.73
   8   0   3   71.12   17.53
   8   0   3   44.79   13.04
   8   0   3   47.92   15.16
   8   0   3   56.81   16.26
   8   0   3   66.63   15.92
  -8   0  -4   66.80   15.66
  -8   0  -4   67.31   17.53
  -8   0  -4   54.10   15.58
  -8   0  -4   50.88   13.80
   8   0   4   51.14   17.27
   8   0   4   42.08   13.12
   8   0   4   46.31   14.48
   8   0   4   56.98   16.59
   8   0   4   69.34   16.09
  -8   0  -5    4.66   10.58
  -8   0  -5   -0.34    6.35
   8   0   5    2.46   10.16
   8   0   5   -0.76    8.64
   8   0   5    9.06   11.35
  -8   0  -6   30.65   13.89
  -8   0  -6   27.18   14.39
   8   0   6   29.72   13.80
   8   0   6   24.13   12.53
  -8   0  -7   -3.05   11.60
  -8   0  -7    5.08   11.94
   8   0   7   -1.52   11.60
   8   0   7    2.71   10.50
  -8  -1  11   59.94   19.81
   8   1 -11   49.53   19.30
  -8  -1  10  131.99   25.48
  -8  -1  10  167.38   26.92
   8   1 -10  159.00   27.09
   8   1 -10  123.70   22.77
   8   1 -10  131.99   24.38
  -8  -1   9   21.59   14.48
  -8  -1   9   28.62   12.53
  -8  -1   9   16.85   12.45
  -8  -1   9   19.56   12.02
   8   1  -9   42.50   17.02
   8   1  -9   33.44   13.55
   8   1  -9   25.48   11.85
   8   1  -9   24.64   12.36
   8   1  -9   20.07   13.04
  -8  -1   8  159.34   24.47
  -8  -1   8  186.35   26.25
  -8  -1   8  149.52   23.37
  -8  -1   8  158.49   24.38
  -8  -1   8  157.65   24.81
   8   1  -8  117.26   21.25
   8   1  -8  153.33   23.88
   8   1  -8  146.72   24.64
   8   1  -8  155.11   22.86
   8   1  -8  150.28   23.79
  -8  -1   7   63.92   15.92
  -8  -1   7   49.02   15.16
  -8  -1   7   51.90   15.49
  -8  -1   7   49.02   14.14
  -8  -1   7   65.53   16.51
  -8  -1   7   50.38    4.15
   8   1  -7   63.16   17.02
   8   1  -7   51.98   14.99
   8   1  -7   65.53   17.19
   8   1  -7   50.54   14.99
   8   1  -7   76.96   18.12
  -8  -1   6  120.31   18.12
  -8  -1   6  146.47   22.52
  -8  -1   6  165.60   18.12
  -8  -1   6  169.24   24.64
  -8  -1   6  149.77   23.37
  -8  -1   6  143.00   22.52
  -8  -1   6  138.60    8.38
   8   1  -6  153.24   18.71
   8   1  -6  172.38   25.48
   8   1  -6  141.56   22.52
   8   1  -6  128.78   21.59
   8   1  -6  172.89   24.81
  -8  -1   5   24.72    9.82
  -8  -1   5   20.83   11.35
  -8  -1   5   28.70   10.67
  -8  -1   5   14.73   10.33
  -8  -1   5   23.20   11.51
  -8  -1   5   18.88   11.01
  -8  -1   5   23.88    5.76
   8   1  -5   25.74   10.33
   8   1  -5   17.86   11.51
   8   1  -5   24.04   11.85
   8   1  -5   19.30   11.68
   8   1  -5   18.12   11.77
  -8  -1   4   40.47   13.38
  -8  -1   4   31.24   10.67
  -8  -1   4   20.23   10.92
  -8  -1   4   20.66   11.77
  -8  -1   4   34.46   12.70
  -8  -1   4   37.17    7.62
  -8  -1   4   38.52   13.21
   8   1  -4   32.26   11.35
   8   1  -4   40.98   14.14
   8   1  -4   25.40   11.77
   8   1  -4   28.19   11.26
   8   1  -4   27.52   12.62
  -8  -1   3   82.04   17.69
  -8  -1   3   74.34   15.07
  -8  -1   3   72.56   16.85
  -8  -1   3   79.08   17.53
  -8  -1   3   68.32   10.58
  -8  -1   3   73.07   16.93
   8   1  -3   58.76   13.97
   8   1  -3   64.77   16.59
   8   1  -3   70.27   16.68
   8   1  -3   74.59   17.27
   8   1  -3   65.53   16.51
  -8  -1   2   15.83   10.41
  -8  -1   2   22.44   10.08
  -8  -1   2   14.90   10.16
  -8  -1   2    1.78    9.48
  -8  -1   2   11.60    6.94
  -8  -1   2   25.57   11.43
   8   1  -2   14.14    9.06
   8   1  -2   19.56   11.43
   8   1  -2   -1.78    7.96
   8   1  -2   20.32   11.18
   8   1  -2   20.49   11.35
  -8  -1   1  304.29   25.31
  -8  -1   1  332.82   25.99
  -8  -1   1  307.67   25.48
  -8  -1   1  273.64   24.30
  -8  -1   1  343.74   21.93
  -8  -1   1  288.96   25.57
   8   1  -1  243.33   22.61
   8   1  -1  267.88   23.96
   8   1  -1  237.74   23.37
   8   1  -1  247.31   23.11
   8   1  -1  280.07   24.98
   8   1  -1  281.00   25.82
  -8  -1   0   -0.51    7.45
  -8  -1   0    0.51    7.28
  -8  -1   0   -5.33    7.45
  -8  -1   0   -2.20    5.76
  -8  -1   0    3.39    7.28
  -8  -1   0    5.50    8.30
   8   1   0    5.16    6.77
   8   1   0    2.54    7.45
   8   1   0    0.68    7.54
   8   1   0    7.96   10.41
   8   1   0    6.86    9.57
  -8  -1  -1  262.04   24.72
  -8  -1  -1  241.63   24.04
  -8  -1  -1  284.73   25.65
  -8  -1  -1  220.30   22.61
  -8  -1  -1  303.10   23.79
  -8  -1  -1  232.40   23.11
   8   1   1  229.78   23.88
   8   1   1  180.08   20.83
   8   1   1  215.30   22.35
   8   1   1  220.04   24.55
   8   1   1  286.34   25.91
  -8  -1  -2    1.27    8.55
  -8  -1  -2    8.55    9.57
  -8  -1  -2    3.30    9.06
  -8  -1  -2    8.97   10.75
  -8  -1  -2   13.12   10.08
  -8  -1  -2    9.48    8.64
   8   1   2   11.60   11.01
   8   1   2    7.79    9.48
   8   1   2    6.18    7.70
   8   1   2   11.35   10.08
   8   1   2   -0.68    7.11
   8   1   2   11.77   10.41
  -8  -1  -3   33.19   12.45
  -8  -1  -3   31.75   12.45
  -8  -1  -3   27.60   11.94
  -8  -1  -3   25.99   12.87
  -8  -1  -3   30.23   12.36
  -8  -1  -3   35.22   12.36
   8   1   3   11.94    9.57
   8   1   3   20.57   11.18
   8   1   3   23.79   10.50
   8   1   3   25.06   12.11
   8   1   3   30.82   14.31
   8   1   3   27.77   12.11
  -8  -1  -4    2.62    8.21
  -8  -1  -4    9.65    9.06
  -8  -1  -4    0.17    7.87
  -8  -1  -4   -2.37    9.48
  -8  -1  -4    1.10    9.23
   8   1   4   -3.22    9.74
   8   1   4   -5.67    8.81
   8   1   4    5.84    7.54
   8   1   4    1.19    6.77
   8   1   4    3.30   10.41
  -8  -1  -5    4.23    8.55
  -8  -1  -5   -8.04    9.40
   8   1   5    4.91   11.60
   8   1   5    0.00    8.89
   8   1   5    4.40   11.26
  -8  -1  -6    6.10   12.02
  -8  -1  -6   11.60   10.92
   8   1   6    7.20   12.95
   8   1   6   13.97   11.51
   8   1   6   12.02   14.31
  -8  -1  -7   33.78   15.58
  -8  -1  -7   13.55   13.97
   8   1   7   18.96   15.66
   8   1   7   19.73   13.72
  -8  -2  11  113.03   24.64
  -8  -2  11  140.97   27.35
  -8  -2  11  101.34   10.16
   8   2 -11  133.26   26.16
   8   2 -11  110.23   24.21
  -8  -2  10   26.58   15.24
  -8  -2  10   25.06   14.48
  -8  -2  10   41.74   14.65
  -8  -2  10   32.93    6.35
   8   2 -10   23.11   14.56
   8   2 -10   38.10   15.16
  -8  -2   9   98.80   21.34
  -8  -2   9   85.43   19.13
  -8  -2   9  100.84   21.93
  -8  -2   9   97.36   21.34
  -8  -2   9   83.14    7.96
   8   2  -9   82.46   19.64
   8   2  -9   89.32   20.49
   8   2  -9   85.93   21.08
  -8  -2   8   -1.35    8.13
  -8  -2   8   -3.05    8.38
  -8  -2   8    2.37    9.74
  -8  -2   8   -0.76    8.30
  -8  -2   8    2.96    3.56
   8   2  -8   10.75   10.50
   8   2  -8   -1.86    9.74
   8   2  -8    7.20   11.51
   8   2  -8   -2.29    8.97
  -8  -2   7  170.68   20.57
  -8  -2   7  233.42   25.23
  -8  -2   7  189.90   27.09
  -8  -2   7  156.88   24.98
  -8  -2   7  164.42   25.23
  -8  -2   7  152.57   10.58
   8   2  -7  137.41   23.11
   8   2  -7  159.85   24.55
   8   2  -7  161.12   26.16
   8   2  -7  185.50   23.11
   8   2  -7  173.90   25.57
  -8  -2   6   77.30   15.75
  -8  -2   6   42.08   14.73
  -8  -2   6   56.47   15.83
  -8  -2   6   54.52   14.90
  -8  -2   6   60.20   15.16
  -8  -2   6   72.56    9.48
   8   2  -6   79.92   18.80
   8   2  -6   88.81   18.80
   8   2  -6   49.11   15.66
   8   2  -6   59.18   16.34
  -8  -2   5   45.55   12.62
  -8  -2   5   50.46   15.24
  -8  -2   5    9.06    5.93
  -8  -2   5   36.24   13.12
  -8  -2   5   33.10   13.55
  -8  -2   5   57.74   16.09
  -8  -2   5   39.20    8.04
   8   2  -5   36.15   11.01
   8   2  -5   35.90   14.39
   8   2  -5   33.27   13.38
   8   2  -5   34.97   13.21
   8   2  -5   46.23   15.07
  -8  -2   4   45.89   11.77
  -8  -2   4   40.98   14.22
  -8  -2   4   51.90   12.53
  -8  -2   4   45.89   14.48
  -8  -2   4   24.81   12.45
  -8  -2   4   39.79   12.78
  -8  -2   4   56.47   10.24
   8   2  -4   45.04   12.28
   8   2  -4   55.12   16.26
   8   2  -4   40.55   14.22
   8   2  -4   36.74   13.55
   8   2  -4   48.43   15.41
  -8  -2   3   17.19    8.38
  -8  -2   3   30.31   12.45
  -8  -2   3   28.36   10.50
  -8  -2   3   22.27   10.08
  -8  -2   3   19.39   11.35
  -8  -2   3   21.42   11.68
  -8  -2   3   23.96    7.96
   8   2  -3   24.04   10.84
   8   2  -3   25.65   12.87
   8   2  -3   16.93   11.26
   8   2  -3   24.30   12.45
   8   2  -3   21.67   11.51
  -8  -2   2   56.73   14.99
  -8  -2   2   51.65   13.21
  -8  -2   2   50.71   15.41
  -8  -2   2   65.11   15.58
  -8  -2   2   59.52   12.19
   8   2  -2   49.02   13.63
   8   2  -2   34.20   12.28
   8   2  -2   30.06   12.36
   8   2  -2   51.73   15.75
   8   2  -2   48.51   13.72
  -8  -2   1   -3.98    7.87
  -8  -2   1    7.11    8.30
  -8  -2   1    2.62    9.14
  -8  -2   1   -0.85    5.50
  -8  -2   1    0.08    7.03
   8   2  -1    4.57    8.30
   8   2  -1   14.14   10.24
   8   2  -1    3.05    6.35
   8   2  -1   -0.17    8.89
   8   2  -1   -3.22    8.47
  -8  -2   0   85.68   18.03
  -8  -2   0   71.88   16.34
  -8  -2   0   65.62   16.17
  -8  -2   0   48.26   13.63
  -8  -2   0   67.39   14.65
   8   2   0   52.41   15.07
   8   2   0   45.80   14.48
   8   2   0   58.93   15.66
   8   2   0   59.01   17.19
   8   2   0   46.57   14.90
  -8  -2  -1  217.67   23.28
  -8  -2  -1  188.38   22.10
  -8  -2  -1  231.81   23.88
  -8  -2  -1  188.04   23.28
  -8  -2  -1  228.00   22.18
   8   2   1  180.84   21.93
   8   2   1  187.28   22.18
   8   2   1  169.67   20.32
   8   2   1  167.13   20.07
   8   2   1  190.33   27.43
   8   2   1  210.22   23.28
  -8  -2  -2   25.40   11.68
  -8  -2  -2   15.83   11.51
  -8  -2  -2   34.20   12.95
  -8  -2  -2   26.50   10.92
  -8  -2  -2   32.51   12.53
   8   2   2   16.34    9.74
   8   2   2   33.44   12.78
   8   2   2   23.11   11.01
   8   2   2   30.73   12.45
   8   2   2   13.63   12.36
   8   2   2   27.26   12.45
  -8  -2  -3  233.84   24.47
  -8  -2  -3  209.04   25.15
  -8  -2  -3  234.10   24.81
  -8  -2  -3  158.92   25.23
  -8  -2  -3  244.60   25.48
   8   2   3  166.45   25.82
   8   2   3  194.05   23.20
   8   2   3  180.84   20.49
   8   2   3  167.04   25.23
   8   2   3  179.07   27.60
   8   2   3  222.25   24.64
  -8  -2  -4   24.72   13.55
  -8  -2  -4   27.01   13.80
   8   2   4   33.95   13.63
   8   2   4   25.99   13.12
   8   2   4   44.79   17.02
  -8  -2  -5   83.90   21.08
  -8  -2  -5   91.52   21.17
   8   2   5   71.37   19.39
   8   2   5   43.35   16.17
  -8  -2  -6   26.16   13.72
  -8  -2  -6   12.70   13.12
   8   2   6    3.64   12.45
   8   2   6   11.85   11.26
   8   2   6    8.47   14.22
  -8  -3  11    2.20   12.87
  -8  -3  11    0.00   13.21
  -8  -3  11    2.20    5.50
   8   3 -11    5.33   12.95
  -8  -3  10    6.86   11.94
  -8  -3  10   12.45   11.68
  -8  -3  10    5.76   12.02
  -8  -3  10    6.77    5.76
   8   3 -10   11.85   12.53
   8   3 -10   10.75   13.29
  -8  -3   9   62.65   17.69
  -8  -3   9   54.69   16.76
  -8  -3   9   40.64   14.82
  -8  -3   9   59.86   17.61
  -8  -3   9   30.56    7.62
   8   3  -9   34.63   15.07
   8   3  -9   42.59   14.65
   8   3  -9   42.25   16.59
  -8  -3   8  102.36   20.83
  -8  -3   8   95.08   20.57
  -8  -3   8   88.98   20.74
  -8  -3   8   60.45   16.42
  -8  -3   8   62.06    9.65
   8   3  -8   79.58   19.64
   8   3  -8  102.36   22.10
   8   3  -8   79.16   19.64
   8   3  -8   62.14   20.32
  -8  -3   7  147.66   23.54
  -8  -3   7  143.85   24.47
  -8  -3   7  109.22   22.01
  -8  -3   7  127.34   23.54
  -8  -3   7  118.78   11.94
   8   3  -7  106.59   22.10
   8   3  -7  124.71   23.54
   8   3  -7  124.46   24.04
   8   3  -7  127.25   21.42
  -8  -3   6   49.44   13.80
  -8  -3   6   37.76   13.04
  -8  -3   6   26.16   13.04
  -8  -3   6   30.90   12.19
  -8  -3   6   27.18    7.96
   8   3  -6   37.68   15.58
   8   3  -6   47.16   15.83
   8   3  -6   33.36   12.78
   8   3  -6   31.33   12.78
   8   3  -6   46.57   23.79
  -8  -3   5  321.30   25.23
  -8  -3   5  340.27   29.46
  -8  -3   5  352.21   28.96
  -8  -3   5  343.82   29.80
  -8  -3   5  279.39   27.26
  -8  -3   5  330.11   19.90
   8   3  -5  267.63   27.35
   8   3  -5  267.03   26.84
   8   3  -5  345.86   29.04
   8   3  -5  316.99   29.12
  -8  -3   4   50.29   13.12
  -8  -3   4   34.37   14.22
  -8  -3   4   33.70   10.75
  -8  -3   4   54.95   15.66
  -8  -3   4   35.47   14.14
  -8  -3   4   37.08   14.14
  -8  -3   4   36.83    9.65
   8   3  -4   37.17   11.35
   8   3  -4   42.25   15.07
   8   3  -4   40.55   14.31
   8   3  -4   45.72   15.58
   8   3  -4   40.05   14.65
  -8  -3   3  140.54   17.27
  -8  -3   3  179.49   25.74
  -8  -3   3  152.65   17.61
  -8  -3   3  144.52   23.28
  -8  -3   3  158.32   24.81
  -8  -3   3  132.42   22.35
  -8  -3   3  177.12   17.19
   8   3  -3  129.88   18.88
   8   3  -3  149.52   24.21
   8   3  -3  109.89   20.57
   8   3  -3  121.32   22.10
   8   3  -3  170.26   24.81
  -8  -3   2   53.08   13.63
  -8  -3   2   46.57   14.82
  -8  -3   2   51.48   13.12
  -8  -3   2   35.64   13.80
  -8  -3   2   39.37   12.78
  -8  -3   2   54.78   12.70
   8   3  -2   42.84   12.62
   8   3  -2   30.14   12.87
   8   3  -2   18.80   10.75
   8   3  -2   35.47   14.65
   8   3  -2   42.76   14.90
  -8  -3   1   11.18   10.50
  -8  -3   1    7.70    8.55
  -8  -3   1    3.89    9.14
  -8  -3   1    1.35    9.40
  -8  -3   1    5.84    8.04
   8   3  -1    9.82    9.14
   8   3  -1    7.79   10.08
   8   3  -1    4.40    6.86
   8   3  -1   10.50   11.18
   8   3  -1    9.31   10.58
  -8  -3   0  189.73   22.61
  -8  -3   0  185.92   21.42
  -8  -3   0  181.94   25.48
  -8  -3   0  183.64   22.77
  -8  -3   0  188.46   20.32
   8   3   0  144.27   22.35
   8   3   0  165.01   24.64
   8   3   0  114.21   20.74
   8   3   0  173.14   27.35
   8   3   0  151.63   23.71
  -8  -3  -1   19.98   11.35
  -8  -3  -1    5.42    9.48
  -8  -3  -1    8.38    9.23
  -8  -3  -1   11.35    8.97
  -8  -3  -1   14.56    9.99
   8   3   1    2.54    8.89
   8   3   1    7.54    9.91
   8   3   1   10.75    9.57
   8   3   1   11.26    9.65
   8   3   1    3.73    9.23
  -8  -3  -2  126.74   21.50
  -8  -3  -2  140.80   24.13
  -8  -3  -2  115.91   20.23
  -8  -3  -2  108.29   21.50
  -8  -3  -2  154.34   23.03
   8   3   2  134.45   23.03
   8   3   2  112.94   20.40
   8   3   2  106.34   20.66
   8   3   2  113.96   23.03
   8   3   2  118.02   21.34
  -8  -3  -3    1.19    9.48
  -8  -3  -3   12.02    9.48
  -8  -3  -3    8.38   10.58
  -8  -3  -3    1.69    9.99
  -8  -3  -3    0.85    9.40
   8   3   3    3.98    7.87
   8   3   3    3.47    9.14
   8   3   3   13.29   10.41
   8   3   3    1.02    8.47
   8   3   3   10.08   12.87
  -8  -3  -4  159.59   27.77
  -8  -3  -4  152.40   24.89
   8   3   4  122.76   25.06
   8   3   4  151.30   24.89
   8   3   4  166.37   27.69
  -8  -3  -5   38.44   17.19
  -8  -3  -5   43.77   16.09
   8   3   5   34.80   16.26
   8   3   5   36.91   14.56
   8   3   5   32.93   16.68
  -8  -3  -6  116.08   24.72
   8   3   6   85.26   23.88
  -8  -4  10  109.98   24.13
  -8  -4  10   98.72   21.93
  -8  -4  10   98.13   23.03
  -8  -4  10  103.97   14.56
   8   4 -10  102.44   23.37
   8   4 -10  112.27   25.06
  -8  -4   9    5.76   11.51
  -8  -4   9   21.76   13.38
  -8  -4   9   22.27   14.14
  -8  -4   9   16.17   13.04
  -8  -4   9   17.53    7.70
   8   4  -9   15.75   13.29
   8   4  -9   26.58   15.16
  -8  -4   8   61.30   17.10
  -8  -4   8  107.44   22.44
  -8  -4   8   85.00   21.25
  -8  -4   8   85.93   19.98
  -8  -4   8   59.35   11.01
   8   4  -8   71.71   20.23
   8   4  -8   82.04   20.57
   8   4  -8   91.86   21.17
  -8  -4   7   18.46   11.35
  -8  -4   7    2.54    9.74
  -8  -4   7    4.57   10.75
  -8  -4   7   17.69   13.12
  -8  -4   7   10.16    7.03
   8   4  -7    7.87   12.19
   8   4  -7   12.45   11.68
   8   4  -7   15.16   13.38
   8   4  -7   14.48   11.26
  -8  -4   6  273.55   26.25
  -8  -4   6  294.04   28.87
  -8  -4   6  314.87   30.73
  -8  -4   6  273.04   28.36
  -8  -4   6  295.56   20.40
   8   4  -6  234.01   25.74
   8   4  -6  267.20   28.02
   8   4  -6  278.04   29.12
   8   4  -6  246.37   25.65
  -8  -4   5   16.26   10.33
  -8  -4   5    9.91    9.99
  -8  -4   5    6.27   10.33
  -8  -4   5    3.22    9.65
  -8  -4   5    5.93    7.28
   8   4  -5    7.54   11.43
   8   4  -5    3.56    9.48
   8   4  -5    4.40    9.40
  -8  -4   4  216.83   23.28
  -8  -4   4  187.53   27.43
  -8  -4   4  207.34   23.62
  -8  -4   4  205.23   25.06
  -8  -4   4  185.75   18.12
   8   4  -4  178.22   26.75
   8   4  -4  181.10   21.76
   8   4  -4  208.28   25.06
  -8  -4   3  115.82   19.73
  -8  -4   3  106.17   21.50
  -8  -4   3   99.57   19.64
  -8  -4   3   85.34   19.39
  -8  -4   3  108.46   16.93
   8   4  -3   77.72   18.20
   8   4  -3  100.84   19.64
   8   4  -3   79.42   18.96
  -8  -4   2  107.19   18.96
  -8  -4   2  146.39   18.12
  -8  -4   2  120.73   22.44
  -8  -4   2  126.57   22.61
  -8  -4   2  127.42   18.96
   8   4  -2   92.03   17.61
   8   4  -2  115.40   22.52
   8   4  -2  109.39   20.66
   8   4  -2  132.08   24.13
   8   4  -2  103.21   21.84
  -8  -4   1  231.56   23.37
  -8  -4   1  211.83   21.93
  -8  -4   1  186.77   23.28
  -8  -4   1  218.35   25.06
  -8  -4   1  204.97   21.00
   8   4  -1  193.04   21.08
   8   4  -1  207.51   24.81
   8   4  -1  179.74   25.99
   8   4  -1  212.00   26.42
   8   4  -1  209.38   24.89
  -8  -4   0   13.29   10.50
  -8  -4   0    9.91   10.24
  -8  -4   0   13.63   11.01
  -8  -4   0    6.18    8.30
  -8  -4   0    9.82   10.50
   8   4   0   22.94   11.35
   8   4   0   -0.51    8.89
   8   4   0    5.93    8.81
   8   4   0   -0.68    9.82
   8   4   0    9.82   10.16
  -8  -4  -1  104.22   20.15
  -8  -4  -1  156.80   24.38
  -8  -4  -1  100.75   20.32
  -8  -4  -1  138.00   22.52
   8   4   1  108.71   21.00
   8   4   1  115.91   21.42
   8   4   1  121.24   22.18
   8   4   1  123.95   24.98
   8   4   1  144.01   23.88
  -8  -4  -2   24.30   12.45
  -8  -4  -2   35.22   13.72
  -8  -4  -2   14.22   12.28
  -8  -4  -2   37.25   14.90
   8   4   2   16.76   12.36
   8   4   2   31.41   13.38
   8   4   2   31.58   13.29
   8   4   2   27.09   15.24
  -8  -4  -3   83.39   19.73
  -8  -4  -3   89.58   19.64
   8   4   3   60.37   17.19
   8   4   3   69.76   18.54
   8   4   3   53.17   18.46
  -8  -4  -4   79.75   20.57
  -8  -4  -4   94.66   20.83
   8   4   4   55.62   18.03
   8   4   4   62.48   18.12
   8   4   4   53.85   19.22
  -8  -4  -5   37.51   17.10
   8   4   5   35.31   15.07
   8   4   5   39.79   19.22
  -8  -5  10    4.83   14.05
  -8  -5  10   10.24   13.21
  -8  -5  10    5.16   12.95
  -8  -5  10   11.26    8.38
   8   5 -10    6.94   13.38
   8   5 -10    8.89   13.80
  -8  -5   9   23.62   15.16
  -8  -5   9   26.84   14.99
  -8  -5   9   22.94   13.46
  -8  -5   9   29.55   14.14
  -8  -5   9   23.37    9.40
   8   5  -9   38.18   16.85
   8   5  -9   43.43   16.51
  -8  -5   8   72.81   19.13
  -8  -5   8   46.40   16.76
  -8  -5   8   60.37   18.37
  -8  -5   8   62.31   18.37
  -8  -5   8   45.30   11.77
   8   5  -8   59.10   19.47
   8   5  -8   96.52   21.93
   8   5  -8   43.52   15.75
  -8  -5   7   78.99   19.05
  -8  -5   7   64.26   17.95
  -8  -5   7   66.89   18.20
  -8  -5   7   66.80   19.56
  -8  -5   7   53.59   12.70
   8   5  -7   53.68   19.13
   8   5  -7   63.16   17.61
   8   5  -7   59.60   18.03
   8   5  -7   64.68   17.44
  -8  -5   6   48.09   15.66
  -8  -5   6   55.12   17.53
  -8  -5   6   52.24   18.37
  -8  -5   6   87.29   21.76
  -8  -5   6   58.42   13.38
   8   5  -6   61.81   19.64
   8   5  -6   54.78   17.61
   8   5  -6   54.19   17.10
   8   5  -6   45.13   15.92
  -8  -5   5   44.11   14.90
  -8  -5   5   44.20   15.75
  -8  -5   5   32.77   13.46
  -8  -5   5   41.66   14.31
  -8  -5   5   30.65   11.01
   8   5  -5   31.07   13.89
   8   5  -5   32.68   12.53
   8   5  -5   38.35   14.22
   8   5  -5   39.37   15.83
  -8  -5   4   56.98   15.66
  -8  -5   4   69.93   18.96
  -8  -5   4   80.94   19.64
  -8  -5   4   69.17   17.53
  -8  -5   4   65.02   14.56
   8   5  -4   41.49   16.09
   8   5  -4   51.56   15.83
   8   5  -4   65.19   18.20
  -8  -5   3   39.96   13.80
  -8  -5   3   41.82   15.66
  -8  -5   3   38.61   15.49
  -8  -5   3   22.01   12.62
  -8  -5   3   38.69   12.62
   8   5  -3   33.10   14.99
   8   5  -3   37.34   14.48
   8   5  -3   33.61   15.49
  -8  -5   2   98.13   19.05
  -8  -5   2  137.67   24.47
  -8  -5   2   91.27   19.64
  -8  -5   2   91.86   20.32
  -8  -5   2  110.66   19.13
   8   5  -2   96.43   20.57
   8   5  -2   80.85   17.95
   8   5  -2   90.42   20.49
  -8  -5   1   45.30   15.58
  -8  -5   1   35.22   13.04
  -8  -5   1   38.18   14.39
  -8  -5   1   35.22   13.04
  -8  -5   1   40.72   13.55
   8   5  -1   30.73   11.94
   8   5  -1   34.46   15.16
   8   5  -1   23.79   12.19
   8   5  -1   25.40   14.48
  -8  -5   0    5.59    9.74
  -8  -5   0    3.47    8.89
  -8  -5   0   13.55   10.84
  -8  -5   0    2.03   10.50
  -8  -5   0    6.35   10.33
   8   5   0   10.24    9.23
   8   5   0   10.58   11.18
   8   5   0   13.38   10.41
   8   5   0   12.11   11.94
  -8  -5  -1   36.32   14.39
  -8  -5  -1   31.41   13.97
  -8  -5  -1   30.48   13.29
  -8  -5  -1   44.28   16.00
  -8  -5  -1   28.28   13.38
   8   5   1   35.56   14.22
   8   5   1   29.12   15.24
   8   5   1   23.88   12.28
   8   5   1   18.46   15.41
  -8  -5  -2   13.29   11.60
  -8  -5  -2    6.94   10.92
   8   5   2   18.46   12.36
   8   5   2   15.07   12.11
   8   5   2    8.64   13.80
  -8  -5  -3   72.81   19.98
   8   5   3   55.54   18.80
   8   5   3   43.26   18.46
  -8  -6   9   16.26   14.56
  -8  -6   9   14.90   13.04
  -8  -6   9   21.08   13.89
  -8  -6   9   16.59   12.87
  -8  -6   9   13.55    9.91
   8   6  -9   12.45   14.90
   8   6  -9    7.96   11.26
  -8  -6   8   51.39   16.59
  -8  -6   8   32.43   15.58
  -8  -6   8   41.40   16.76
  -8  -6   8   52.66   17.44
  -8  -6   8   27.43   11.35
   8   6  -8   52.66   19.22
   8   6  -8   44.87   15.66
   8   6  -8   45.13   17.61
  -8  -6   7   89.83   21.84
  -8  -6   7  113.54   24.55
  -8  -6   7   78.06   20.57
  -8  -6   7   90.93   23.03
  -8  -6   7   72.98   15.41
   8   6  -7   76.88   21.00
   8   6  -7   51.90   16.85
   8   6  -7   89.49   22.86
   8   6  -7   72.47   19.22
  -8  -6   6   18.46   12.62
  -8  -6   6   21.08   13.21
  -8  -6   6   11.60   13.80
  -8  -6   6   18.96   13.38
  -8  -6   6    8.97    9.31
   8   6  -6    5.16   13.04
   8   6  -6   21.93   13.04
   8   6  -6   25.65   15.58
   8   6  -6   -1.27   10.24
  -8  -6   5  112.69   22.77
  -8  -6   5  100.41   22.61
  -8  -6   5   90.93   20.83
  -8  -6   5  128.18   25.15
  -8  -6   5  106.17   18.37
   8   6  -5  120.99   25.40
   8   6  -5   78.48   18.71
   8   6  -5   80.09   20.57
   8   6  -5  121.07   23.79
  -8  -6   4    3.39    9.82
  -8  -6   4   18.29   13.55
  -8  -6   4    2.12   11.01
  -8  -6   4    2.79    8.64
  -8  -6   4    7.70    9.14
   8   6  -4    2.12   12.19
   8   6  -4   14.05   10.84
   8   6  -4   14.22   10.84
   8   6  -4    5.16   11.01
  -8  -6   3   77.64   18.63
  -8  -6   3   72.81   19.56
  -8  -6   3   80.01   20.57
  -8  -6   3   92.54   20.91
  -8  -6   3   68.41   16.34
   8   6  -3   76.11   20.32
   8   6  -3   84.66   19.56
   8   6  -3   93.22   22.69
  -8  -6   2   49.95   16.42
  -8  -6   2   53.08   17.69
  -8  -6   2   48.00   15.58
  -8  -6   2   42.59   14.31
   8   6  -2   34.04   16.17
   8   6  -2   28.02   13.21
   8   6  -2   58.00   19.73
  -8  -6   1   44.11   15.66
  -8  -6   1   27.94   15.16
  -8  -6   1   24.13   13.72
  -8  -6   1   40.05   14.56
   8   6  -1   20.74   14.22
   8   6  -1   22.01   11.85
   8   6  -1   39.79   15.75
  -8  -6   0   73.49   18.80
  -8  -6   0   88.56   20.57
  -8  -6   0   85.93   20.40
  -8  -6   0   88.64   19.64
   8   6   0   83.39   20.57
   8   6   0   68.24   18.03
   8   6   0   67.14   20.57
  -8  -6  -1    3.05   11.43
  -8  -6  -1    3.56   10.08
  -8  -6  -1   -1.86    9.48
  -8  -6  -1   -0.93   10.67
   8   6   1  -11.35    7.79
   8   6   1   -0.85   10.41
   8   6   1   -6.43    7.45
   8   6   1  -17.53   11.35
  -8  -6  -2   54.52   19.56
  -8  -6  -2   58.33   18.37
   8   6   2   32.77   14.99
   8   6   2   37.59   19.22
  -8  -7   7    4.83   12.62
  -8  -7   7    9.99   12.78
  -8  -7   7    8.72   14.73
  -8  -7   7   -2.29   11.85
  -8  -7   7    8.55   10.33
   8   7  -7    3.47   13.38
   8   7  -7    0.76    9.82
   8   7  -7    8.89   14.56
  -8  -7   6   13.89   13.63
  -8  -7   6    3.56   11.01
  -8  -7   6    0.68   12.87
  -8  -7   6   21.76   14.31
  -8  -7   6   11.09   11.18
   8   7  -6   27.01   16.17
   8   7  -6   13.38   11.94
   8   7  -6   14.90   13.89
   8   7  -6   14.31   12.87
  -8  -7   5   17.53   14.56
  -8  -7   5    5.16   12.02
  -8  -7   5    2.12   11.60
  -8  -7   5    3.56   12.36
  -8  -7   5    2.46    9.82
   8   7  -5    1.61   11.51
   8   7  -5    2.62   10.16
   8   7  -5    1.78   12.11
   8   7  -5   -2.37   11.01
  -8  -7   4   -0.59   10.24
  -8  -7   4   -0.85   10.75
  -8  -7   4   -0.34   11.09
  -8  -7   4    4.40   11.26
  -8  -7   4    5.50   10.24
   8   7  -4    7.54   10.24
   8   7  -4   -3.56    8.47
   8   7  -4   -7.11    9.65
   8   7  -4    4.91   12.95
  -8  -7   3    5.42   12.62
  -8  -7   3   18.03   13.29
  -8  -7   3    3.98   12.28
  -8  -7   3   37.25   15.49
  -8  -7   3   20.74   12.62
   8   7  -3    8.04   10.58
   8   7  -3   15.58   12.02
   8   7  -3    9.91   12.53
   8   7  -3    7.03   14.14
  -8  -7   2   23.71   14.65
  -8  -7   2   12.78   13.12
  -8  -7   2   15.66   13.21
  -8  -7   2   12.19   12.02
   8   7  -2   27.69   15.07
   8   7  -2    8.21   10.41
   8   7  -2    3.22   11.09
   8   7  -2   29.04   17.86
  -8  -7   1   40.13   17.44
  -8  -7   1   33.95   16.34
  -8  -7   1   36.58   15.32
  -8  -7   1   27.94   15.24
   8   7  -1   34.63   15.83
   8   7  -1   30.82   13.97
   8   7  -1   30.73   17.95
  -8  -7   0    1.02   11.85
  -8  -7   0    5.33   11.85
   8   7   0   11.35   12.70
   8   7   0   18.46   17.19
  -9   8   2   26.50   15.41
  -9   8   2   39.96   17.19
  -9   8   2   35.22   16.59
  -9   8   2   31.41   17.86
  -9   8   2   25.15   13.29
   9  -8  -2   39.37   18.96
   9  -8  -2   12.62   13.80
   9  -8  -2   28.11   16.00
  -9   8   1    3.73   11.77
  -9   8   1   13.72   14.39
  -9   8   1   -6.35   12.19
  -9   8   1   -1.78    8.89
   9  -8  -1    7.28   14.73
   9  -8  -1    1.61   11.77
  -9   8   0   40.89   18.12
  -9   8   0   48.85   17.78
  -9   8   0   40.72   19.13
  -9   8   0   58.59   17.19
   9  -8   0   65.62   21.08
   9  -8   0   54.19   19.13
  -9   8  -1   23.37   15.07
  -9   8  -1   27.85   15.58
  -9   8  -1   23.71   15.92
  -9   8  -1   46.14   16.09
   9  -8   1   22.86   15.49
   9  -8   1   17.61   15.32
  -9   8  -2   51.22   19.98
  -9   8  -2   63.33   19.73
  -9   8  -2   39.96   17.69
  -9   8  -2   56.05   18.12
   9  -8   2   37.00   17.53
   9  -8   2   35.73   15.41
  -9   8  -3   24.98   16.17
  -9   8  -3   54.78   18.71
  -9   8  -3   39.79   15.66
  -9   8  -3   48.77   18.54
  -9   8  -3   38.86   16.85
   9  -8   3   32.68   17.36
   9  -8   3   28.96   17.19
   9  -8   3   24.04   15.92
  -9   7   4   31.41   14.82
  -9   7   4   56.39   18.29
  -9   7   4   48.43   18.71
  -9   7   4   52.83   21.50
  -9   7   4   46.57   13.63
   9  -7  -4   32.43   15.75
   9  -7  -4   30.48   14.99
   9  -7  -4   45.30   17.44
  -9   7   3    7.54   12.62
  -9   7   3   13.55   13.89
  -9   7   3   20.66   12.19
  -9   7   3    6.94   14.39
  -9   7   3   10.33    9.40
   9  -7  -3   17.27   15.83
   9  -7  -3    7.70   12.11
   9  -7  -3    9.82   11.94
  -9   7   2   15.16   12.95
  -9   7   2   30.31   16.09
  -9   7   2   21.67   12.87
  -9   7   2   33.02   17.69
  -9   7   2   36.07   13.04
   9  -7  -2   19.22   15.41
   9  -7  -2   22.01   14.65
  -9   7   1   36.15   15.75
  -9   7   1   47.33   16.17
  -9   7   1   28.53   16.68
  -9   7   1   45.89   14.22
   9  -7  -1   35.90   14.56
   9  -7  -1   40.89   17.10
  -9   7   0    8.30   12.78
  -9   7   0   13.21   10.84
  -9   7   0   14.73   13.80
  -9   7   0   15.32   11.43
   9  -7   0    5.50    9.23
   9  -7   0   -3.81   11.09
  -9   7  -1   73.49   20.74
  -9   7  -1   55.88   16.85
  -9   7  -1   45.89   14.56
  -9   7  -1   58.25   19.30
  -9   7  -1   59.01   16.42
   9  -7   1   70.95   20.66
   9  -7   1   55.71   18.96
   9  -7   1   67.90   18.20
  -9   7  -2   15.41   14.39
  -9   7  -2    3.30   11.68
  -9   7  -2   -0.17    8.97
  -9   7  -2   17.02   13.38
  -9   7  -2   19.30   12.87
   9  -7   2   18.12   14.48
   9  -7   2   14.48   13.55
   9  -7   2   -1.95   10.67
  -9   7  -3  215.64   32.77
  -9   7  -3  293.11   31.58
  -9   7  -3  240.87   27.77
  -9   7  -3  294.21   32.17
  -9   7  -3  296.16   30.31
   9  -7   3  248.32   30.14
   9  -7   3  212.68   32.60
   9  -7   3  228.68   32.17
  -9   7  -4   45.63   18.29
  -9   7  -4   61.64   19.30
  -9   7  -4   45.13   16.59
  -9   7  -4   41.49   17.61
  -9   7  -4   79.50   21.25
   9  -7   4   53.17   18.71
   9  -7   4   22.61   14.82
   9  -7   4   47.50   18.63
   9  -7   4   54.19   19.73
  -9   7  -5   43.69   18.46
  -9   7  -5   89.58   22.44
  -9   7  -5   41.57   17.27
   9  -7   5   61.04   20.57
   9  -7   5   39.37   17.95
   9  -7   5   44.62   19.05
  -9   6   6    6.35   12.28
  -9   6   6    9.57   14.05
  -9   6   6    3.13   13.04
  -9   6   6   16.93    9.06
   9  -6  -6   14.99   15.92
   9  -6  -6    0.25   11.51
  -9   6   5   38.86   17.69
  -9   6   5   51.98   17.44
  -9   6   5   25.57   15.49
  -9   6   5   56.56   19.98
  -9   6   5   42.16   11.77
   9  -6  -5   69.17   22.18
   9  -6  -5   30.23   15.66
   9  -6  -5   36.15   15.66
  -9   6   4   -8.64    9.65
  -9   6   4    0.85    9.57
  -9   6   4    0.85    7.87
  -9   6   4    4.06   12.36
  -9   6   4    2.79    6.94
   9  -6  -4   -1.19   11.60
   9  -6  -4    3.22    8.64
   9  -6  -4    6.86   11.77
  -9   6   3   60.28   19.05
  -9   6   3   74.84   19.47
  -9   6   3   60.28   19.05
  -9   6   3   66.21   19.13
  -9   6   3   83.56   15.41
   9  -6  -3   83.31   22.01
   9  -6  -3   75.69   19.56
  -9   6   2   15.75   10.58
  -9   6   2    8.81   11.94
  -9   6   2   22.10   13.46
  -9   6   2   16.76   14.39
  -9   6   2   23.28   10.92
   9  -6  -2   19.81   12.53
   9  -6  -2    4.40   10.33
  -9   6   1   37.59   15.92
  -9   6   1   39.03   16.00
  -9   6   1   34.04   16.93
  -9   6   1   39.54   12.70
   9  -6  -1   67.48   18.46
   9  -6  -1   36.07   16.00
  -9   6   0   21.50   13.04
  -9   6   0   23.79   14.22
  -9   6   0    0.25    8.64
  -9   6   0    9.65   13.21
  -9   6   0   13.21   10.16
   9  -6   0   -1.02    8.13
   9  -6   0    4.57   11.60
   9  -6   0   13.80   11.35
  -9   6  -1    7.28   11.35
  -9   6  -1   10.33   12.02
  -9   6  -1    0.34    8.64
  -9   6  -1    6.18   10.92
  -9   6  -1   -4.40    8.30
   9  -6   1    1.19   10.58
   9  -6   1   -4.83    8.04
   9  -6   1   -0.42    9.65
  -9   6  -2   62.65   18.03
  -9   6  -2   76.96   20.07
  -9   6  -2   56.39   16.93
  -9   6  -2   64.68   19.22
  -9   6  -2   91.86   20.15
   9  -6   2   58.08   19.05
   9  -6   2   54.69   17.53
   9  -6   2   63.75   18.46
   9  -6   2   75.35   20.57
  -9   6  -3   30.23   15.07
  -9   6  -3   84.24   20.83
  -9   6  -3   35.90   15.16
  -9   6  -3   40.89   16.26
  -9   6  -3   39.88   14.99
   9  -6   3   34.20   15.75
   9  -6   3   36.32   15.75
   9  -6   3   40.72   16.51
   9  -6   3   44.62   17.61
  -9   6  -4   61.81   19.47
  -9   6  -4   45.63   17.27
  -9   6  -4   61.38   17.27
  -9   6  -4   54.27   17.27
  -9   6  -4   64.68   18.88
   9  -6   4   51.73   16.34
   9  -6   4   18.88   13.89
   9  -6   4   55.20   18.20
   9  -6   4   50.80   17.36
  -9   6  -5   75.78   21.25
  -9   6  -5   97.62   21.93
  -9   6  -5   83.06   20.83
   9  -6   5   86.36   22.35
   9  -6   5   62.99   18.80
   9  -6   5   62.57   20.74
  -9   6  -6   24.55   15.41
  -9   6  -6   15.49   14.82
  -9   6  -6   11.68   14.90
   9  -6   6   12.95   14.39
   9  -6   6    0.17   11.01
   9  -6   6   24.81   14.65
  -9   5   7    2.37    8.64
  -9   5   7    5.67   13.63
  -9   5   7   -4.74   11.60
  -9   5   7    6.01    7.37
   9  -5  -7   14.39   12.36
   9  -5  -7    8.38   12.95
  -9   5   6   52.15   17.36
  -9   5   6   50.04   17.27
  -9   5   6   42.59   15.66
  -9   5   6   43.94   18.37
  -9   5   6   46.90   10.75
   9  -5  -6   41.40   16.42
   9  -5  -6   38.10   14.99
   9  -5  -6   39.88   15.66
  -9   5   5   65.28   20.32
  -9   5   5   61.89   17.95
  -9   5   5   76.96   20.32
  -9   5   5   70.27   20.83
  -9   5   5  102.95   14.99
   9  -5  -5   85.17   21.34
   9  -5  -5   55.79   18.12
   9  -5  -5   58.67   17.69
  -9   5   4   42.25   17.02
  -9   5   4   75.27   18.96
  -9   5   4   55.03   16.42
  -9   5   4   51.14   18.71
  -9   5   4   73.32   13.29
   9  -5  -4   38.86   17.19
   9  -5  -4   50.80   16.85
  -9   5   3   94.91   22.18
  -9   5   3   77.72   19.56
  -9   5   3  101.51   21.93
  -9   5   3   89.41   22.52
  -9   5   3  121.24   17.02
   9  -5  -3  103.46   22.77
   9  -5  -3   82.46   19.13
  -9   5   2   53.08   15.75
  -9   5   2   72.05   17.86
  -9   5   2   64.18   16.34
  -9   5   2   60.45   19.05
  -9   5   2   73.66   14.05
   9  -5  -2   73.49   18.29
   9  -5  -2   45.89   14.99
   9  -5  -2   57.15   15.41
  -9   5   1   42.84   15.83
  -9   5   1   51.65   15.83
  -9   5   1   68.32   16.09
  -9   5   1   44.36   16.93
  -9   5   1   67.39   14.82
   9  -5  -1   44.45   16.34
   9  -5  -1   43.09   15.32
   9  -5  -1   51.81   16.17
  -9   5   0    0.34    9.48
  -9   5   0    4.91   11.01
  -9   5   0   -0.68    8.64
  -9   5   0    0.00   10.33
  -9   5   0    7.62    9.06
   9  -5   0    9.48   12.11
   9  -5   0    0.76    9.99
   9  -5   0    7.79   10.41
  -9   5  -1   34.29   13.72
  -9   5  -1   35.39   14.82
  -9   5  -1   40.05   14.22
  -9   5  -1   59.60   17.95
  -9   5  -1   54.35   14.90
   9  -5   1   48.94   17.86
   9  -5   1   39.62   15.16
   9  -5   1   49.36   16.09
   9  -5   1   56.81   17.78
  -9   5  -2   10.24   11.85
  -9   5  -2   22.86   13.55
  -9   5  -2    9.48   10.24
  -9   5  -2   24.55   13.38
  -9   5  -2   19.56   12.36
   9  -5   2   12.28   12.19
   9  -5   2   12.78   11.60
   9  -5   2   14.65   10.75
   9  -5   2   18.63   12.95
  -9   5  -3    9.57   11.94
  -9   5  -3    7.03    9.14
  -9   5  -3    6.69    8.64
  -9   5  -3    4.23   11.18
  -9   5  -3   19.39   12.02
   9  -5   3   18.54   11.43
   9  -5   3   10.33   10.58
   9  -5   3   12.36   12.70
   9  -5   3   15.49   12.78
  -9   5  -4   60.37   17.69
  -9   5  -4   82.38   21.08
  -9   5  -4   65.95   18.80
  -9   5  -4   67.22   18.54
  -9   5  -4  101.43   21.34
   9  -5   4   76.79   20.57
   9  -5   4   43.77   15.49
   9  -5   4   70.86   18.88
   9  -5   4   76.37   19.64
  -9   5  -5   20.91   14.31
  -9   5  -5   25.15   14.82
  -9   5  -5   25.65   14.48
   9  -5   5   21.84   14.05
   9  -5   5   26.50   15.32
   9  -5   5   15.83   14.39
  -9   5  -6   48.43   18.88
  -9   5  -6   56.56   17.61
  -9   5  -6   49.19   17.36
   9  -5   6   34.46   17.02
   9  -5   6   36.07   15.92
   9  -5   6   47.58   18.37
  -9   4   8   28.62   14.90
  -9   4   8   35.05   17.53
  -9   4   8   39.20   17.10
  -9   4   8   34.37    8.30
   9  -4  -8   31.66   14.90
   9  -4  -8   22.69   16.00
  -9   4   7   23.37   14.65
  -9   4   7   18.29   14.31
  -9   4   7   28.11   14.65
  -9   4   7   24.04    7.37
   9  -4  -7   17.36   11.85
   9  -4  -7   13.97   13.04
  -9   4   6   39.54   14.90
  -9   4   6   42.50   15.49
  -9   4   6   32.00   15.16
  -9   4   6   49.27   17.61
  -9   4   6   52.07    9.74
   9  -4  -6   38.61   14.56
   9  -4  -6   28.28   14.90
   9  -4  -6   33.61   14.73
  -9   4   5   41.32   16.76
  -9   4   5   57.40   16.59
  -9   4   5   30.90   14.82
  -9   4   5   45.47   16.17
  -9   4   5   46.31    9.82
   9  -4  -5   49.02   17.44
   9  -4  -5   49.78   15.92
  -9   4   4   50.04   15.58
  -9   4   4   78.40   18.80
  -9   4   4   66.21   18.03
  -9   4   4   59.94   18.29
  -9   4   4  102.28   12.62
   9  -4  -4   65.45   17.44
   9  -4  -4   59.01   17.02
  -9   4   3   18.96   10.92
  -9   4   3   11.09   10.84
  -9   4   3   17.27   10.16
  -9   4   3   12.28   10.24
  -9   4   3   14.31    7.45
   9  -4  -3   13.04   11.26
   9  -4  -3   18.29   11.94
   9  -4  -3   15.07   10.16
  -9   4   2   56.56   16.42
  -9   4   2   62.31   17.44
  -9   4   2   49.87   14.39
  -9   4   2   76.54   19.90
  -9   4   2   68.24   12.95
   9  -4  -2   47.41   16.17
   9  -4  -2   44.70   15.16
   9  -4  -2   58.33   15.75
  -9   4   1   23.71   13.12
  -9   4   1   32.26   14.14
  -9   4   1   22.18   11.60
  -9   4   1   29.97   14.56
  -9   4   1   44.03   11.85
   9  -4  -1   23.88   13.89
   9  -4  -1   28.62   13.12
   9  -4  -1   38.69   14.22
   9  -4  -1   25.65   14.14
  -9   4   0   80.52   19.98
  -9   4   0   98.97   19.81
  -9   4   0   90.93   19.22
  -9   4   0   89.32   20.32
  -9   4   0  127.00   18.80
   9  -4   0  105.75   21.42
   9  -4   0   67.39   17.69
   9  -4   0   71.97   17.86
   9  -4   0  107.69   22.27
  -9   4  -1   58.08   17.53
  -9   4  -1   90.17   19.39
  -9   4  -1   66.72   16.42
  -9   4  -1   90.08   21.08
  -9   4  -1   78.23   16.09
   9  -4   1   78.74   19.22
   9  -4   1   65.53   17.36
   9  -4   1   63.75   16.59
   9  -4   1   88.05   20.91
  -9   4  -2   20.23   11.18
  -9   4  -2   25.06   11.77
  -9   4  -2   20.91   12.11
  -9   4  -2   17.02   12.36
  -9   4  -2   26.16   12.28
   9  -4   2    7.37    9.31
   9  -4   2   23.37   12.53
   9  -4   2    8.81   11.09
   9  -4   2   15.66   12.95
  -9   4  -3   27.01   12.36
  -9   4  -3   39.62   15.83
  -9   4  -3   16.34   12.45
  -9   4  -3   26.67   13.63
  -9   4  -3   20.23   12.53
   9  -4   3   15.24   12.70
   9  -4   3   22.77   12.45
   9  -4   3   28.96   14.48
   9  -4   3   27.01   13.89
  -9   4  -4   17.44   13.21
  -9   4  -4   24.47   14.31
  -9   4  -4   31.41   15.16
  -9   4  -4   23.20   13.63
  -9   4  -4   23.37   13.29
   9  -4   4   21.17   13.97
   9  -4   4   19.13   11.09
   9  -4   4   26.42   13.21
   9  -4   4   31.41   14.14
  -9   4  -5   22.86   13.89
  -9   4  -5   23.03   14.82
  -9   4  -5   31.41   15.83
  -9   4  -5   32.60   15.16
   9  -4   5   18.12   14.05
   9  -4   5   24.04   12.53
   9  -4   5   25.65   15.07
   9  -4   5   41.06   23.37
  -9   4  -6   64.94   18.20
  -9   4  -6   86.44   22.86
  -9   4  -6   75.35   20.23
   9  -4   6   59.77   19.98
   9  -4   6   48.43   16.17
   9  -4   6   61.81   20.32
  -9   4  -7   49.44   20.23
  -9   4  -7   55.29   20.83
   9  -4   7   23.62   13.72
   9  -4   7   29.63   17.02
  -9   3   8   17.78   13.63
  -9   3   8   22.10   14.65
  -9   3   8   19.39   13.46
  -9   3   8   20.15    5.59
   9  -3  -8   10.92   12.87
   9  -3  -8   24.55   14.05
   9  -3  -8   13.21   12.95
  -9   3   7   15.32   13.80
  -9   3   7   21.76   12.45
  -9   3   7   20.23   13.80
  -9   3   7   21.76   13.46
  -9   3   7   21.17    5.67
   9  -3  -7    9.57   12.02
   9  -3  -7    9.31   12.28
   9  -3  -7   18.71   13.21
   9  -3  -7   30.56   14.90
  -9   3   6   28.11   15.16
  -9   3   6   49.61   16.26
  -9   3   6   18.29   12.53
  -9   3   6   10.58   12.11
   9  -3  -6   34.97   15.32
   9  -3  -6   25.23   12.28
   9  -3  -6   28.45   15.24
  -9   3   5   15.92   12.95
  -9   3   5   26.67   12.87
  -9   3   5   13.72   11.01
  -9   3   5   15.24    9.48
  -9   3   5   15.32   12.70
   9  -3  -5   22.94   11.60
   9  -3  -5   18.54   12.28
   9  -3  -5   13.63   10.41
   9  -3  -5   19.56   14.22
  -9   3   4   32.00   13.97
  -9   3   4   22.69   12.11
  -9   3   4   38.27   12.70
  -9   3   4   33.53   15.07
   9  -3  -4   26.84   13.63
   9  -3  -4   21.17   12.36
   9  -3  -4   26.08   12.11
   9  -3  -4   49.53   16.93
  -9   3   3   58.25   16.93
  -9   3   3   76.96   17.61
  -9   3   3   66.21   16.00
  -9   3   3   50.80   17.10
  -9   3   3   69.09   27.77
   9  -3  -3   89.24   20.15
   9  -3  -3   58.00   16.93
   9  -3  -3   58.50   16.34
   9  -3  -3   79.33   19.73
  -9   3   2   64.18   18.12
  -9   3   2   81.02   18.88
  -9   3   2   82.04   17.27
  -9   3   2   97.20   21.42
  -9   3   2   60.96   18.29
   9  -3  -2   73.83   18.46
   9  -3  -2   54.44   16.00
   9  -3  -2   91.69   19.13
   9  -3  -2   88.81   21.34
  -9   3   1  133.69   23.28
  -9   3   1  128.94   22.86
  -9   3   1  118.78   21.17
  -9   3   1  131.32   24.13
  -9   3   1  106.34   22.69
   9  -3  -1  129.88   23.03
   9  -3  -1  107.27   20.66
   9  -3  -1  112.43   20.57
   9  -3  -1  143.59   25.15
  -9   3   0  119.89   22.35
  -9   3   0  112.69   21.67
  -9   3   0   95.25   18.71
  -9   3   0  121.58   23.71
  -9   3   0  136.90   19.56
  -9   3   0  102.19   23.11
   9  -3   0   88.31   19.39
   9  -3   0   77.47   18.54
   9  -3   0   72.30   18.20
   9  -3   0   94.91   20.91
  -9   3  -1   20.57   12.70
  -9   3  -1   19.30   12.02
  -9   3  -1   22.69   10.92
  -9   3  -1   25.57   13.55
  -9   3  -1   27.01   11.77
   9  -3   1   35.64   15.16
   9  -3   1    9.40    9.99
   9  -3   1   17.61   12.36
   9  -3   1   31.24   15.07
  -9   3  -2   64.09   17.78
  -9   3  -2   58.93   17.44
  -9   3  -2   67.99   18.20
  -9   3  -2   80.52   18.63
  -9   3  -2   80.43   16.93
   9  -3   2   55.12   15.58
   9  -3   2   48.60   15.24
   9  -3   2   53.68   16.85
   9  -3   2   76.45   19.30
  -9   3  -3   30.14   14.31
  -9   3  -3   42.59   16.42
  -9   3  -3   57.66   16.34
  -9   3  -3   45.63   14.31
   9  -3   3   36.83   15.07
   9  -3   3   34.97   13.38
   9  -3   3   30.65   14.56
   9  -3   3   39.54   15.75
  -9   3  -4   -3.64   10.50
  -9   3  -4   -1.69    9.65
  -9   3  -4   -0.42    7.70
  -9   3  -4   -7.03    8.89
   9  -3   4    0.93    8.30
   9  -3   4   -2.88    7.79
   9  -3   4    0.25   10.08
   9  -3   4    1.19   10.24
  -9   3  -5   85.77   20.07
  -9   3  -5   92.37   21.17
  -9   3  -5   75.44   19.47
  -9   3  -5  100.24   21.42
   9  -3   5   69.68   20.57
   9  -3   5   54.35   15.83
   9  -3   5   78.31   20.83
   9  -3   5   86.44   21.17
  -9   3  -6   67.14   20.66
  -9   3  -6   83.82   21.00
  -9   3  -6   57.74   19.81
   9  -3   6   45.55   18.63
   9  -3   6   53.34   18.54
  -9   3  -7  196.08   32.17
  -9   3  -7  125.90   26.75
   9  -3   7  127.42   26.58
   9  -3   7  117.60   25.65
  -9   2   9   39.79   17.27
  -9   2   9   27.77   14.99
   9  -2  -9   68.49   19.98
   9  -2  -9   41.82   16.17
  -9   2   8   32.60   15.41
  -9   2   8   43.94   16.00
  -9   2   8   28.87   14.65
   9  -2  -8   55.37   16.85
   9  -2  -8   65.28   20.23
   9  -2  -8   34.88   14.65
   9  -2  -8   35.64   15.16
  -9   2   7    6.35   11.35
  -9   2   7   17.19   11.60
  -9   2   7   22.69   12.70
  -9   2   7   28.45   13.63
  -9   2   7   26.33    4.23
   9  -2  -7   12.87   11.68
   9  -2  -7   15.41   11.94
   9  -2  -7   21.17   12.70
   9  -2  -7   29.12   15.58
  -9   2   6   19.39   12.62
  -9   2   6   29.72   13.55
  -9   2   6   24.30   12.62
  -9   2   6   25.31   12.78
  -9   2   6   20.23   11.09
  -9   2   6   14.48   11.35
  -9   2   6   26.92    5.25
   9  -2  -6   24.13   13.63
   9  -2  -6   19.05   11.77
   9  -2  -6   30.39   12.36
   9  -2  -6   18.71   13.04
  -9   2   5   23.45   13.29
  -9   2   5   30.56   13.12
  -9   2   5   37.08   14.39
  -9   2   5   28.62   11.85
  -9   2   5    7.70   11.43
  -9   2   5   39.03    7.28
   9  -2  -5   35.05   14.65
   9  -2  -5   24.55   12.36
   9  -2  -5   29.29   12.28
   9  -2  -5   34.12   14.99
  -9   2   4   26.75   13.29
  -9   2   4   32.85   13.12
  -9   2   4   33.10   12.95
  -9   2   4   18.29   10.50
  -9   2   4   25.31   13.63
  -9   2   4   33.27    7.79
  -9   2   4   28.96   13.29
   9  -2  -4   19.81   12.02
   9  -2  -4   16.42   10.33
   9  -2  -4   23.88   11.94
   9  -2  -4   38.35   14.99
   9  -2  -4   26.25   13.29
  -9   2   3  217.00   24.98
  -9   2   3  234.52   24.81
  -9   2   3  249.25   26.08
  -9   2   3  174.66   21.50
  -9   2   3  155.02   25.31
  -9   2   3  242.06   16.51
  -9   2   3  169.41   24.98
   9  -2  -3  176.86   25.74
   9  -2  -3  168.82   25.23
   9  -2  -3  194.73   23.03
   9  -2  -3  211.24   29.63
   9  -2  -3  221.40   25.31
  -9   2   2    9.31   10.16
  -9   2   2   12.62    8.81
  -9   2   2    5.00    9.82
  -9   2   2    5.08    9.14
  -9   2   2   16.34   12.53
  -9   2   2   11.18    6.94
  -9   2   2   13.38   10.67
   9  -2  -2    9.82   10.58
   9  -2  -2    5.76    9.74
   9  -2  -2   10.92    8.55
   9  -2  -2    2.96   10.84
   9  -2  -2   20.15   11.94
  -9   2   1   26.75   11.43
  -9   2   1   32.26   13.46
  -9   2   1   38.01   13.21
  -9   2   1   26.75   12.19
  -9   2   1   36.24   15.16
  -9   2   1   43.35   10.75
  -9   2   1   43.69   14.05
   9  -2  -1   37.17   13.46
   9  -2  -1   38.69   13.46
   9  -2  -1   35.14   13.46
   9  -2  -1   43.09   15.92
   9  -2  -1   45.72   13.97
  -9   2   0    0.51    8.81
  -9   2   0    3.30    6.94
  -9   2   0    4.06    8.81
  -9   2   0    2.79   10.50
  -9   2   0    8.64    7.79
  -9   2   0    2.29    9.06
   9  -2   0    5.84   10.67
   9  -2   0   10.33    9.06
   9  -2   0    1.44    9.31
   9  -2   0   16.34   11.77
  -9   2  -1   80.94   18.63
  -9   2  -1  102.19   20.49
  -9   2  -1   58.00   16.76
  -9   2  -1   71.54   18.80
  -9   2  -1   71.03   17.53
   9  -2   1   98.63   20.07
   9  -2   1   61.04   15.58
   9  -2   1   66.97   17.61
   9  -2   1   84.24   19.90
  -9   2  -2   68.49   18.12
  -9   2  -2   87.80   19.05
  -9   2  -2   71.29   18.46
  -9   2  -2   73.91   19.39
   9  -2   2   94.23   21.25
   9  -2   2   54.10   15.66
   9  -2   2   64.43   17.86
   9  -2   2   60.37   17.69
  -9   2  -3    9.06   11.01
  -9   2  -3   12.02   11.26
  -9   2  -3   16.17   12.02
  -9   2  -3   23.03   12.19
   9  -2   3   24.55   13.89
   9  -2   3   15.07   10.41
   9  -2   3    1.86    9.14
   9  -2   3    3.56   11.18
  -9   2  -4   14.31   12.11
  -9   2  -4    7.79   11.68
  -9   2  -4   17.86   13.29
  -9   2  -4   13.12   12.11
   9  -2   4   10.84   13.21
   9  -2   4   19.73   11.35
   9  -2   4    8.81   11.43
   9  -2   4   17.44   12.87
  -9   2  -5   45.13   15.41
  -9   2  -5   33.36   15.92
  -9   2  -5   36.66   16.76
   9  -2   5   31.83   16.68
   9  -2   5   23.37   11.60
   9  -2   5   23.20   13.97
   9  -2   5   51.14   17.69
  -9   2  -6   11.26   14.05
  -9   2  -6   17.44   12.11
   9  -2   6   12.95   11.94
   9  -2   6   15.83   11.01
  -9   2  -7    8.13   13.97
  -9   2  -7    2.29   13.46
   9  -2   7   13.04   15.75
   9  -2   7    1.95   11.60
  -9   1   8    7.11   11.51
  -9   1   8   24.55   12.95
  -9   1   8   22.86   12.95
  -9   1   8   20.91   12.11
  -9   1   8   16.26   14.39
   9  -1  -8   28.96   13.55
   9  -1  -8   23.03   13.04
   9  -1  -8   16.26   11.09
   9  -1  -8   16.26   12.53
   9  -1  -8    5.08   12.95
  -9   1   7   55.37   16.51
  -9   1   7   39.54   13.38
  -9   1   7   41.23   15.24
  -9   1   7   46.40   14.56
  -9   1   7   43.01   15.75
   9  -1  -7   56.89   16.17
   9  -1  -7   37.76   15.07
   9  -1  -7   35.05   14.14
   9  -1  -7   50.71   15.41
   9  -1  -7   49.95   16.68
  -9   1   6   34.71   14.56
  -9   1   6   38.01   13.72
  -9   1   6   49.78   15.58
  -9   1   6   31.07   13.04
  -9   1   6   38.10   15.07
  -9   1   6   34.12    5.50
   9  -1  -6   28.11   12.53
   9  -1  -6   38.95   14.90
   9  -1  -6   40.72   14.56
   9  -1  -6   43.26   14.90
   9  -1  -6   33.02   15.07
  -9   1   5  138.51   23.79
  -9   1   5  159.93   23.88
  -9   1   5  160.52   25.15
  -9   1   5  141.64   22.77
  -9   1   5  146.81   24.81
  -9   1   5  168.48   11.35
  -9   1   5  149.60   26.42
   9  -1  -5  157.56   23.79
   9  -1  -5  121.16   22.18
   9  -1  -5  142.91   23.11
   9  -1  -5  163.15   25.82
  -9   1   4  342.38   29.97
  -9   1   4  412.57   30.90
  -9   1   4  418.07   32.43
  -9   1   4  335.87   28.45
  -9   1   4  379.64   31.92
  -9   1   4  442.04   19.39
  -9   1   4  395.55   31.58
   9  -1  -4  364.40   29.46
   9  -1  -4  277.70   26.25
   9  -1  -4  339.08   29.04
   9  -1  -4  390.47   32.34
   9  -1  -4  355.93   30.73
  -9   1   3   41.91   14.65
  -9   1   3   31.75   12.95
  -9   1   3   40.22   13.38
  -9   1   3   34.54   12.87
  -9   1   3   35.14   14.65
  -9   1   3   30.82    8.30
  -9   1   3   39.54   13.63
   9  -1  -3   32.85   13.29
   9  -1  -3   34.29   13.04
   9  -1  -3   29.21   12.02
   9  -1  -3   32.51   14.56
   9  -1  -3   53.00   16.17
  -9   1   2   80.52   18.88
  -9   1   2  124.97   21.67
  -9   1   2   98.04   19.81
  -9   1   2  126.24   21.42
  -9   1   2  124.63   22.94
  -9   1   2  131.32   14.22
  -9   1   2  112.35   20.66
   9  -1  -2  146.39   23.62
   9  -1  -2   90.76   19.39
   9  -1  -2  113.20   21.67
   9  -1  -2  126.91   23.28
   9  -1  -2   97.20   19.90
  -9   1   1   69.68   17.78
  -9   1   1   43.86   13.29
  -9   1   1   55.96   14.99
  -9   1   1   43.01   14.65
  -9   1   1   44.20   16.17
  -9   1   1   60.70   12.62
  -9   1   1   73.57   17.78
   9  -1  -1   57.49   16.76
   9  -1  -1   52.07   14.90
   9  -1  -1   51.73   15.92
   9  -1  -1   41.82   15.75
   9  -1  -1   56.89   16.00
  -9   1   0  188.29   26.92
  -9   1   0  204.72   23.79
  -9   1   0  192.02   22.10
  -9   1   0  160.78   25.31
  -9   1   0  220.47   20.07
  -9   1   0  144.61   23.28
   9  -1   0  184.65   21.67
   9  -1   0  156.88   24.13
   9  -1   0  173.22   25.91
   9  -1   0  231.90   25.99
   9  -1   0  183.72   26.67
  -9   1  -1  147.15   24.13
  -9   1  -1  132.50   23.37
  -9   1  -1  193.63   27.52
  -9   1  -1  136.14   23.96
  -9   1  -1  149.60   18.20
  -9   1  -1  149.26   23.79
   9  -1   1  130.98   23.20
   9  -1   1  127.25   22.35
   9  -1   1  124.37   22.18
   9  -1   1  139.61   24.13
   9  -1   1  147.15   23.37
  -9   1  -2   28.53   13.04
  -9   1  -2   39.03   14.99
  -9   1  -2   41.32   15.75
  -9   1  -2   49.70   13.97
  -9   1  -2   24.89   12.19
   9  -1   2   34.97   14.73
   9  -1   2   22.27   11.09
   9  -1   2   41.91   14.05
   9  -1   2   21.34   13.72
   9  -1   2   40.81   14.82
  -9   1  -3   48.34   15.58
  -9   1  -3   22.35   11.43
  -9   1  -3   43.35   14.56
  -9   1  -3   43.69   15.16
   9  -1   3   35.81   15.24
   9  -1   3   50.29   14.90
   9  -1   3   39.12   14.82
   9  -1   3   56.39   17.27
   9  -1   3   55.03   16.51
  -9   1  -4    9.99   10.84
  -9   1  -4    7.96   11.43
  -9   1  -4    4.32    8.04
  -9   1  -4    0.93    9.91
   9  -1   4   -4.49   10.67
   9  -1   4    0.93    6.77
   9  -1   4   -1.44    9.82
   9  -1   4   -0.85   10.33
  -9   1  -5   47.58   23.45
  -9   1  -5   41.15   16.76
  -9   1  -5   24.55   14.90
   9  -1   5   38.69   15.32
   9  -1   5   27.52   13.80
   9  -1   5   17.78   14.56
  -9   1  -6   20.07   15.07
  -9   1  -6   43.77   17.78
   9  -1   6   23.28   15.92
   9  -1   6   11.18   10.84
  -9   0   9   20.23   12.62
  -9   0   9   32.26   14.82
   9   0  -9    5.42   19.64
   9   0  -9   12.95   14.82
   9   0  -9    9.40   11.68
   9   0  -9   17.78   14.90
  -9   0   8   45.72   15.41
  -9   0   8   18.20   12.78
  -9   0   8   41.23   15.66
  -9   0   8   38.01   14.31
  -9   0   8   23.03   15.07
   9   0  -8   38.78   15.07
   9   0  -8   39.28   14.82
   9   0  -8   29.63   13.80
   9   0  -8   23.88   13.72
   9   0  -8   32.26   14.65
  -9   0   7  132.59   23.96
  -9   0   7  160.44   24.04
  -9   0   7  133.43   23.45
  -9   0   7  131.48   22.77
  -9   0   7  124.88   22.52
  -9   0   7  125.39   22.94
  -9   0   7  134.36    7.03
   9   0  -7  134.96   22.10
   9   0  -7  148.76   25.65
   9   0  -7  112.10   21.93
   9   0  -7  126.66   22.61
   9   0  -7  128.61   24.13
  -9   0   6   69.93   18.12
  -9   0   6   61.04   15.58
  -9   0   6   85.77   19.13
  -9   0   6   45.63   15.49
  -9   0   6   43.35   14.90
  -9   0   6   50.12   16.85
  -9   0   6   58.67    7.20
   9   0  -6   64.94   16.42
   9   0  -6   68.16   18.54
   9   0  -6   70.02   17.78
   9   0  -6   58.08   16.59
   9   0  -6   59.60   17.53
  -9   0   5  231.39   25.65
  -9   0   5  249.76   24.21
  -9   0   5  255.86   26.92
  -9   0   5  224.53   23.54
  -9   0   5  212.85   25.74
  -9   0   5  251.20   14.22
   9   0  -5  253.74   24.47
   9   0  -5  233.42   25.99
   9   0  -5  189.73   27.43
   9   0  -5  219.03   23.54
   9   0  -5  242.48   26.58
  -9   0   4   40.13   13.55
  -9   0   4   47.07   13.80
  -9   0   4   25.74   12.95
  -9   0   4   39.88   14.31
  -9   0   4   47.24   15.83
  -9   0   4   48.68    9.40
  -9   0   4   46.99   14.31
   9   0  -4   42.16   13.72
   9   0  -4   38.01   14.05
   9   0  -4   27.77   11.51
   9   0  -4   39.03   14.22
   9   0  -4   33.19   14.05
   9   0  -4   40.47   13.72
  -9   0   3  113.03   21.50
  -9   0   3   98.63   17.95
  -9   0   3  109.73   21.34
  -9   0   3  100.75   20.57
  -9   0   3  106.42   12.95
  -9   0   3   90.85   18.63
   9   0  -3  103.04   19.98
   9   0  -3   86.27   18.63
   9   0  -3  108.88   21.34
   9   0  -3  117.85   22.69
   9   0  -3   99.74   19.47
  -9   0   2   85.17   19.22
  -9   0   2   91.95   18.29
  -9   0   2  109.22   21.34
  -9   0   2   78.40   18.20
  -9   0   2   87.54   14.05
  -9   0   2   80.94   18.20
   9   0  -2   93.05   19.22
   9   0  -2   64.60   16.85
   9   0  -2   82.63   18.12
   9   0  -2   63.84   17.69
   9   0  -2   94.57   19.56
  -9   0   1  144.69   23.62
  -9   0   1  116.92   21.17
  -9   0   1  103.80   20.91
  -9   0   1   86.19   18.37
  -9   0   1  111.76   16.51
  -9   0   1  102.87   20.07
   9   0  -1   78.15   17.61
   9   0  -1   70.95   17.69
   9   0  -1   80.85   17.95
   9   0  -1  111.16   22.10
   9   0  -1  121.24   21.76
  -9   0   0  146.72   24.55
  -9   0   0  129.79   22.69
  -9   0   0  130.81   22.86
  -9   0   0  122.68   22.69
  -9   0   0  143.42   20.15
  -9   0   0  131.65   22.69
   9   0   0  106.17   19.98
   9   0   0   90.85   19.05
   9   0   0  116.41   21.76
   9   0   0  124.80   23.37
   9   0   0  108.88   21.25
  -9   0  -1   84.83   19.22
  -9   0  -1   55.79   16.51
  -9   0  -1   67.90   17.61
  -9   0  -1   70.44   18.12
  -9   0  -1   74.17   15.16
  -9   0  -1   61.55   16.42
   9   0   1   61.55   17.10
   9   0   1   50.21   15.41
   9   0   1   41.57   14.22
   9   0   1   70.27   18.37
   9   0   1   50.97   15.75
  -9   0  -2  123.36   22.44
  -9   0  -2  103.04   21.50
  -9   0  -2  143.93   23.71
  -9   0  -2  121.24   22.86
  -9   0  -2  133.26   21.00
  -9   0  -2  102.70   19.90
   9   0   2   98.80   21.59
   9   0   2  110.66   20.32
   9   0   2   69.68   18.03
   9   0   2   96.01   20.74
   9   0   2  109.05   20.66
  -9   0  -3    7.79   10.75
  -9   0  -3   10.84    9.74
  -9   0  -3   27.85   13.38
  -9   0  -3   15.32   11.18
  -9   0  -3   41.99   14.65
  -9   0  -3   26.75   13.29
   9   0   3   21.84   13.63
   9   0   3   22.69   11.43
   9   0   3    8.38    9.06
   9   0   3   21.25   13.29
   9   0   3   27.77   14.05
  -9   0  -4  104.82   21.17
  -9   0  -4   99.31   22.27
  -9   0  -4  118.53   23.96
   9   0   4   87.37   20.74
   9   0   4   73.91   18.29
   9   0   4   63.58   18.46
   9   0   4   81.79   19.90
  -9   0  -5   14.05   13.29
  -9   0  -5   15.75   13.89
   9   0   5   11.18   11.26
   9   0   5   23.20   14.14
   9   0   5   26.84   16.17
  -9   0  -6   -2.46   11.26
  -9   0  -6    3.13   12.87
   9   0   6  -11.60    9.65
   9   0   6    2.03   11.51
  -9  -1  10   82.21   21.25
  -9  -1  10   63.58   18.54
   9   1 -10   64.60   19.90
   9   1 -10   87.88   21.93
  -9  -1   9   82.97   20.57
  -9  -1   9   74.08   19.13
  -9  -1   9   72.30   19.13
   9   1  -9   83.99   21.17
   9   1  -9   97.79   22.27
   9   1  -9   74.34   19.56
   9   1  -9   96.09   22.35
  -9  -1   8  129.03   24.30
  -9  -1   8  154.51   25.57
  -9  -1   8  116.92   24.04
  -9  -1   8  126.66   23.62
  -9  -1   8   97.79    7.45
   9   1  -8  147.66   25.91
   9   1  -8   99.74   21.17
   9   1  -8  111.67   22.77
   9   1  -8   91.69   22.01
   9   1  -8  115.91   22.27
  -9  -1   7   46.40   15.83
  -9  -1   7   47.41   15.83
  -9  -1   7   45.13   15.58
  -9  -1   7   48.00   15.75
  -9  -1   7   51.31    7.28
   9   1  -7   40.89   16.00
   9   1  -7   61.21   17.44
   9   1  -7   45.38   16.09
   9   1  -7   50.80   16.51
   9   1  -7   42.50   16.00
  -9  -1   6  162.05   26.25
  -9  -1   6  141.39   25.57
  -9  -1   6  185.75   27.35
  -9  -1   6  135.63   22.86
  -9  -1   6  148.33   24.30
  -9  -1   6  151.21   11.60
   9   1  -6  138.85   21.25
   9   1  -6  133.60   23.71
   9   1  -6  126.91   22.69
   9   1  -6  130.13   22.77
   9   1  -6  121.58   23.03
  -9  -1   5   17.44   12.28
  -9  -1   5    9.65    8.89
  -9  -1   5   26.75   11.77
  -9  -1   5   10.75   10.75
  -9  -1   5    2.37    7.03
  -9  -1   5   12.02    6.27
   9   1  -5    9.99    9.65
   9   1  -5   10.16   12.19
   9   1  -5   19.81   11.85
   9   1  -5    5.84   10.33
   9   1  -5   16.42   11.85
  -9  -1   4   19.73   12.28
  -9  -1   4   30.65   11.60
  -9  -1   4   25.65   12.45
  -9  -1   4   18.37   11.51
  -9  -1   4   15.16    6.86
   9   1  -4   23.62   11.35
   9   1  -4   18.80   12.62
   9   1  -4   10.16   10.50
   9   1  -4   19.98   10.58
   9   1  -4   22.18   13.55
  -9  -1   3  164.84   25.40
  -9  -1   3  132.25   20.91
  -9  -1   3  156.97   24.98
  -9  -1   3  129.03   22.35
  -9  -1   3  174.24   16.17
  -9  -1   3  149.01   25.91
   9   1  -3  143.51   21.76
   9   1  -3  144.44   23.96
   9   1  -3  122.68   22.27
   9   1  -3  130.30   23.03
   9   1  -3  147.74   24.38
   9   1  -3  154.60   26.25
  -9  -1   2   22.77   12.87
  -9  -1   2   28.11   12.11
  -9  -1   2   31.07   12.11
  -9  -1   2   24.55   11.18
  -9  -1   2   25.06    9.40
  -9  -1   2   22.69   13.46
   9   1  -2   25.15   12.02
   9   1  -2   26.92   13.29
   9   1  -2   19.90   11.26
   9   1  -2   13.80   11.43
   9   1  -2   32.43   13.21
   9   1  -2   40.30   15.24
  -9  -1   1  114.13   21.34
  -9  -1   1  120.48   21.00
  -9  -1   1  123.95   22.18
  -9  -1   1  130.38   22.61
  -9  -1   1  140.80   17.10
  -9  -1   1  127.67   21.84
   9   1  -1  121.83   21.50
   9   1  -1  148.76   24.38
   9   1  -1  104.56   19.98
   9   1  -1  121.07   22.52
   9   1  -1  101.34   21.34
   9   1  -1  119.38   21.34
  -9  -1   0   26.25   12.87
  -9  -1   0   17.69   11.85
  -9  -1   0   10.41   11.18
  -9  -1   0   18.88   10.75
  -9  -1   0   28.96   11.01
  -9  -1   0   29.46   12.62
   9   1   0   20.15   10.50
   9   1   0   20.15   12.02
   9   1   0   26.08   10.50
   9   1   0   12.95    9.23
   9   1   0   18.88   12.87
   9   1   0   29.21   12.78
  -9  -1  -1   33.44   12.62
  -9  -1  -1   37.68   14.56
  -9  -1  -1   50.97   15.83
  -9  -1  -1   44.87   15.58
  -9  -1  -1   61.81   15.66
  -9  -1  -1   37.59   16.26
   9   1   1   45.63   15.92
   9   1   1   39.45   13.97
   9   1   1   30.48   12.36
   9   1   1   32.34   13.46
   9   1   1   41.40   14.56
   9   1   1   53.34   17.95
  -9  -1  -2   35.73   14.22
  -9  -1  -2   32.43   14.05
  -9  -1  -2   16.85   11.51
  -9  -1  -2   12.95   10.50
  -9  -1  -2   34.97   13.21
  -9  -1  -2   29.04   21.25
   9   1   2   26.67   14.31
   9   1   2   12.11   11.26
   9   1   2   36.91   13.63
   9   1   2    9.74   10.75
   9   1   2   33.70   15.75
   9   1   2   21.93   13.46
  -9  -1  -3   33.95   14.99
  -9  -1  -3   28.45   14.82
  -9  -1  -3   40.72   14.48
  -9  -1  -3   38.44   14.05
  -9  -1  -3   41.82   14.82
   9   1   3   18.29   13.12
   9   1   3   30.06   14.65
   9   1   3   31.24   12.62
   9   1   3   31.75   13.97
   9   1   3   32.51   15.75
  -9  -1  -4   85.77   21.50
  -9  -1  -4   75.35   19.98
   9   1   4   76.03   21.93
   9   1   4   61.81   18.20
   9   1   4   86.19   20.74
  -9  -1  -5   -4.91   10.41
  -9  -1  -5   -6.94   11.09
   9   1   5   -9.40    9.99
   9   1   5    1.10    9.91
   9   1   5   -8.89   10.08
  -9  -2  10   17.53   14.73
  -9  -2  10   25.48   14.82
  -9  -2  10   14.90    5.50
   9   2 -10    9.65   15.16
   9   2 -10   13.72   13.46
   9   2 -10    3.56   12.45
  -9  -2   9   84.50   20.83
  -9  -2   9   69.09   19.64
  -9  -2   9   81.19   20.91
  -9  -2   9   55.62    8.38
   9   2  -9   82.80   21.50
   9   2  -9   53.93   18.63
   9   2  -9   63.41   20.40
  -9  -2   8    6.69   10.84
  -9  -2   8    3.05   10.33
  -9  -2   8   -3.98    8.97
  -9  -2   8    6.10    4.83
   9   2  -8   -4.49   10.08
   9   2  -8   -8.72    9.06
   9   2  -8    0.85   12.02
   9   2  -8   11.94   12.11
  -9  -2   7   40.30   15.66
  -9  -2   7   36.58   14.82
  -9  -2   7   54.02   17.36
  -9  -2   7   35.47   13.72
  -9  -2   7   39.62    8.21
   9   2  -7   47.33   16.93
   9   2  -7   49.70   17.10
   9   2  -7   44.03   15.16
   9   2  -7   43.35   15.24
  -9  -2   6   53.51   17.10
  -9  -2   6   47.16   16.00
  -9  -2   6   28.62   13.80
  -9  -2   6   34.04   14.14
  -9  -2   6   41.57    8.81
   9   2  -6   48.34   17.27
   9   2  -6   61.38   18.03
   9   2  -6   43.01   15.83
  -9  -2   5    8.97   10.84
  -9  -2   5    1.35    9.65
  -9  -2   5   -2.54    8.97
  -9  -2   5    8.13    8.89
  -9  -2   5    4.06    5.76
   9   2  -5   -0.93   10.16
   9   2  -5    4.23    9.31
   9   2  -5    0.93   10.16
  -9  -2   4   68.92   18.96
  -9  -2   4   69.59   15.66
  -9  -2   4   96.01   20.74
  -9  -2   4   65.70   17.95
  -9  -2   4   65.53   18.12
  -9  -2   4   62.91   12.02
   9   2  -4   64.94   15.32
   9   2  -4   76.88   19.98
   9   2  -4   43.26   14.99
   9   2  -4   72.47   18.37
  -9  -2   3    9.57    9.06
  -9  -2   3    6.10    8.55
  -9  -2   3   11.18   11.01
  -9  -2   3   12.62   11.43
  -9  -2   3    6.60    7.37
   9   2  -3    8.72    9.06
   9   2  -3   19.22   11.09
   9   2  -3    6.01    9.99
   9   2  -3    9.99   11.68
  -9  -2   2  119.04   23.03
  -9  -2   2  130.98   21.25
  -9  -2   2  130.47   23.45
  -9  -2   2  105.58   21.42
  -9  -2   2  135.21   16.68
   9   2  -2  120.22   20.83
   9   2  -2  101.34   21.34
   9   2  -2   81.62   18.80
   9   2  -2   99.74   22.18
  -9  -2   1  143.08   24.47
  -9  -2   1  159.93   24.38
  -9  -2   1  126.07   23.37
  -9  -2   1  112.35   22.27
  -9  -2   1  144.27   17.61
   9   2  -1  123.27   21.84
   9   2  -1  137.24   24.04
   9   2  -1  109.39   21.50
   9   2  -1  128.27   24.47
  -9  -2   0   78.82   19.39
  -9  -2   0   56.30   15.66
  -9  -2   0   55.96   16.76
  -9  -2   0   73.66   17.86
  -9  -2   0   78.99   16.34
   9   2   0   72.30   18.63
   9   2   0   69.76   18.37
   9   2   0   54.35   15.66
   9   2   0   69.68   16.93
   9   2   0   62.48   18.29
  -9  -2  -1  172.97   26.33
  -9  -2  -1  161.88   25.40
  -9  -2  -1  197.86   28.36
  -9  -2  -1  131.32   24.38
  -9  -2  -1  197.44   23.11
   9   2   1  136.90   24.13
   9   2   1  150.79   24.55
   9   2   1  126.74   22.35
   9   2   1  133.18   23.96
   9   2   1  146.81   26.42
  -9  -2  -2   50.38   16.51
  -9  -2  -2   18.63   10.50
  -9  -2  -2   35.73   14.56
  -9  -2  -2   23.37   14.14
  -9  -2  -2   29.46   13.04
   9   2   2   25.65   13.89
   9   2   2   26.75   14.22
   9   2   2   30.99   12.45
   9   2   2   40.98   13.72
   9   2   2   34.97   16.00
  -9  -2  -3  105.32   20.83
  -9  -2  -3  102.19   22.94
  -9  -2  -3   92.88   19.73
  -9  -2  -3   83.31   20.91
  -9  -2  -3  149.01   24.98
   9   2   3   90.85   22.10
   9   2   3  108.54   21.42
   9   2   3   84.50   18.29
   9   2   3   75.69   19.05
   9   2   3   97.62   22.94
  -9  -2  -4   10.50   12.70
  -9  -2  -4    6.10   11.43
   9   2   4   11.43   10.92
   9   2   4    6.77   11.09
   9   2   4   -1.61   11.43
  -9  -2  -5   88.39   21.67
  -9  -2  -5   95.93   22.94
   9   2   5   76.03   21.25
   9   2   5   72.05   19.47
   9   2   5   69.85   20.83
  -9  -3   9   50.29   17.61
  -9  -3   9   57.57   18.37
  -9  -3   9   56.30   19.13
  -9  -3   9   37.93   16.34
  -9  -3   9   49.53    9.65
   9   3  -9   50.97   18.88
   9   3  -9   56.64   18.54
   9   3  -9   65.95   21.25
  -9  -3   8   14.82   12.02
  -9  -3   8   25.40   12.45
  -9  -3   8    7.96   12.36
  -9  -3   8   19.47   13.63
  -9  -3   8    8.30    6.10
   9   3  -8   26.58   15.92
   9   3  -8    1.61   11.77
   9   3  -8    3.73   12.78
   9   3  -8   12.87   12.78
  -9  -3   7  133.77   25.06
  -9  -3   7  106.76   22.94
  -9  -3   7  106.42   22.01
  -9  -3   7   91.86   13.21
   9   3  -7   94.99   22.77
   9   3  -7   83.82   21.25
   9   3  -7  104.22   23.03
   9   3  -7   83.23   19.56
  -9  -3   6    3.22   10.84
  -9  -3   6    0.08    7.45
  -9  -3   6   12.70   11.94
  -9  -3   6    5.08    6.60
   9   3  -6    2.12   11.18
   9   3  -6   11.09    9.40
   9   3  -6   -0.34   10.67
  -9  -3   5   68.58   19.05
  -9  -3   5   64.85   18.46
  -9  -3   5   69.34   18.20
  -9  -3   5   64.01   19.05
  -9  -3   5   71.88   12.70
   9   3  -5   72.30   19.81
   9   3  -5   67.90   18.46
   9   3  -5   68.07   18.80
  -9  -3   4   16.51   12.78
  -9  -3   4   28.79   13.89
  -9  -3   4   19.81   11.01
  -9  -3   4   21.34   12.87
  -9  -3   4   20.91    9.14
   9   3  -4   25.40   13.89
   9   3  -4   18.63   10.75
   9   3  -4   18.54   13.38
  -9  -3   3   34.88   13.38
  -9  -3   3   42.84   13.72
  -9  -3   3   43.18   14.56
  -9  -3   3   33.70   14.65
  -9  -3   3   40.89   12.19
   9   3  -3   38.35   12.62
   9   3  -3   31.41   13.29
   9   3  -3   26.58   13.55
   9   3  -3   38.86   15.66
  -9  -3   2   74.42   19.81
  -9  -3   2   74.67   17.02
  -9  -3   2   64.43   17.95
  -9  -3   2   54.78   17.10
  -9  -3   2   86.19   16.68
   9   3  -2   49.44   14.65
   9   3  -2   39.71   15.92
   9   3  -2   78.06   18.37
   9   3  -2   84.41   20.66
  -9  -3   1   69.93   18.63
  -9  -3   1   48.77   15.16
  -9  -3   1   52.58   17.19
  -9  -3   1   54.02   17.44
  -9  -3   1   71.03   16.09
   9   3  -1   37.34   13.72
   9   3  -1   36.66   15.24
   9   3  -1   51.22   15.66
   9   3  -1   53.08   17.86
  -9  -3   0  311.14   29.63
  -9  -3   0  315.46   28.53
  -9  -3   0  329.77   30.65
  -9  -3   0  319.19   30.90
  -9  -3   0  331.63   28.11
   9   3   0  271.44   27.01
   9   3   0  271.94   28.28
   9   3   0  229.78   26.42
   9   3   0  296.67   31.41
  -9  -3  -1   34.54   15.41
  -9  -3  -1   19.39   12.36
  -9  -3  -1   39.03   14.82
  -9  -3  -1   29.29   13.97
  -9  -3  -1   23.03   12.36
   9   3   1   27.85   13.63
   9   3   1   37.51   15.16
   9   3   1    4.32    8.13
   9   3   1   21.84   12.62
   9   3   1   21.34   15.75
  -9  -3  -2  165.01   26.16
  -9  -3  -2  130.64   24.64
  -9  -3  -2  164.08   26.42
  -9  -3  -2  168.14   27.94
  -9  -3  -2  152.40   24.30
   9   3   2  151.04   25.99
   9   3   2  157.90   25.74
   9   3   2  135.72   23.54
   9   3   2  140.29   24.81
   9   3   2  155.28   27.77
  -9  -3  -3   26.42   15.07
  -9  -3  -3   16.76   13.21
   9   3   3   16.93   11.77
   9   3   3   16.17   12.28
   9   3   3   26.58   16.00
  -9  -3  -4   97.03   23.96
  -9  -3  -4   97.62   23.62
   9   3   4   61.72   20.40
   9   3   4   47.41   16.85
   9   3   4   65.02   21.08
  -9  -4   9   29.72   17.02
  -9  -4   9   45.04   17.44
  -9  -4   9   15.24   14.31
  -9  -4   9   37.00   17.36
  -9  -4   9   27.94    9.48
   9   4  -9   32.60   17.02
   9   4  -9   38.35   17.53
   9   4  -9   19.13   16.17
  -9  -4   8  141.90   25.40
  -9  -4   8  146.89   26.50
  -9  -4   8  131.99   25.48
  -9  -4   8  121.32   24.72
  -9  -4   8  121.32   16.51
   9   4  -8  134.28   26.92
   9   4  -8  141.22   26.42
   9   4  -8  127.84   25.65
  -9  -4   7   17.69   12.19
  -9  -4   7   28.19   14.56
  -9  -4   7   10.50   10.67
  -9  -4   7   18.12   11.35
  -9  -4   7   13.29    8.13
   9   4  -7   13.38   14.14
   9   4  -7   13.46   11.51
   9   4  -7   12.11   12.36
   9   4  -7   24.30   13.80
  -9  -4   6  146.81   24.21
  -9  -4   6  113.79   23.62
  -9  -4   6  104.48   22.94
  -9  -4   6  128.78   24.47
  -9  -4   6  147.66   16.85
   9   4  -6  121.49   25.15
   9   4  -6  113.20   23.62
   9   4  -6  114.13   23.54
   9   4  -6  127.76   24.64
  -9  -4   5   29.46   15.07
  -9  -4   5   29.80   15.24
  -9  -4   5   42.42   14.99
  -9  -4   5   37.17   11.18
   9   4  -5   36.32   15.16
   9   4  -5   37.59   15.66
   9   4  -5   29.21   14.56
  -9  -4   4   39.28   15.49
  -9  -4   4   61.21   19.22
  -9  -4   4   31.07   13.29
  -9  -4   4   46.99   12.78
   9   4  -4   50.38   17.95
   9   4  -4   43.77   15.58
   9   4  -4   51.39   17.86
  -9  -4   3   34.12   14.82
  -9  -4   3   17.53   12.45
  -9  -4   3   19.98   10.41
   9   4  -3   15.24   11.26
   9   4  -3   21.93   12.87
   9   4  -3   21.25   14.99
  -9  -4   2   33.27   14.14
  -9  -4   2   51.31   17.53
  -9  -4   2   36.83   12.53
   9   4  -2   21.59   14.05
   9   4  -2   45.30   16.42
   9   4  -2   19.73   12.36
   9   4  -2   46.14   17.10
  -9  -4   1   85.00   18.88
  -9  -4   1   92.03   20.15
  -9  -4   1   79.75   19.05
  -9  -4   1   86.19   18.29
   9   4  -1   73.40   17.44
   9   4  -1   99.74   21.84
   9   4  -1   83.99   19.98
   9   4  -1   79.84   21.34
  -9  -4   0    7.45   10.24
  -9  -4   0   16.34   12.62
  -9  -4   0    9.82   12.53
  -9  -4   0    1.35    9.48
   9   4   0    7.54   10.58
   9   4   0   11.85   11.85
   9   4   0    8.72   10.75
   9   4   0   10.16   11.68
  -9  -4  -1  189.40   28.53
  -9  -4  -1  181.61   27.26
  -9  -4  -1  153.84   26.67
  -9  -4  -1  181.10   27.26
   9   4   1  126.66   23.96
   9   4   1  172.89   27.52
   9   4   1  146.89   26.16
   9   4   1  153.33   28.19
  -9  -4  -2    9.82   12.70
  -9  -4  -2   11.26   11.85
  -9  -4  -2    2.37   11.26
  -9  -4  -2   15.49   13.04
   9   4   2    2.03   10.33
   9   4   2   20.66   13.55
   9   4   2    6.10    9.23
   9   4   2    8.04   10.67
   9   4   2   10.58   14.65
  -9  -4  -3   57.49   18.96
  -9  -4  -3   58.08   18.80
   9   4   3   52.41   18.71
   9   4   3   44.62   17.53
   9   4   3   44.96   20.23
  -9  -5   8    0.51   11.35
  -9  -5   8    8.21   11.94
  -9  -5   8    3.30   13.12
  -9  -5   8    3.30   12.87
  -9  -5   8   11.43    8.47
   9   5  -8   -0.17   13.12
   9   5  -8    8.38   13.80
   9   5  -8    9.06   13.97
  -9  -5   7   80.69   19.56
  -9  -5   7  119.63   24.30
  -9  -5   7   80.35   21.50
  -9  -5   7  106.25   24.72
  -9  -5   7   94.74   16.85
   9   5  -7   68.75   22.35
   9   5  -7   87.46   22.27
   9   5  -7   90.85   23.45
   9   5  -7   87.20   20.91
  -9  -5   6   57.57   17.44
  -9  -5   6   51.22   17.27
  -9  -5   6   60.03   18.03
  -9  -5   6   51.56   18.20
  -9  -5   6   49.78   13.55
   9   5  -6   58.42   20.49
   9   5  -6   43.01   16.42
   9   5  -6   79.42   22.01
   9   5  -6   49.27   17.61
  -9  -5   5   51.98   15.83
  -9  -5   5   41.06   16.51
  -9  -5   5   39.88   16.85
  -9  -5   5   51.48   18.37
  -9  -5   5   54.95   14.22
   9   5  -5   50.63   19.22
   9   5  -5   41.32   16.09
   9   5  -5   20.66   14.05
   9   5  -5   48.26   17.78
  -9  -5   4   44.62   15.92
  -9  -5   4   48.94   17.44
  -9  -5   4   45.55   17.02
  -9  -5   4   69.00   19.64
  -9  -5   4   59.52   15.24
   9   5  -4   40.39   17.44
   9   5  -4   40.81   15.16
   9   5  -4   33.27   15.58
  -9  -5   3   11.09   10.33
  -9  -5   3    4.91   11.94
  -9  -5   3    1.10    9.40
   9   5  -3   -3.13   11.43
   9   5  -3    6.43   10.24
   9   5  -3   -0.68   12.53
  -9  -5   2   21.76   13.80
  -9  -5   2   27.77   15.24
  -9  -5   2   27.18   12.62
   9   5  -2   14.22   13.55
   9   5  -2    8.81   10.16
   9   5  -2   32.26   15.49
  -9  -5   1   73.24   19.56
  -9  -5   1   53.76   17.95
  -9  -5   1   90.34   19.81
   9   5  -1   81.79   20.83
   9   5  -1   63.33   17.86
   9   5  -1   56.22   19.56
  -9  -5   0    5.84   10.75
  -9  -5   0   -2.46   10.92
  -9  -5   0    1.86    8.13
  -9  -5   0    4.23   11.18
   9   5   0    4.74   10.16
   9   5   0   -0.42   11.51
   9   5   0    2.12    9.40
   9   5   0    0.59   12.53
  -9  -5  -1   14.39   12.95
  -9  -5  -1   18.63   13.80
  -9  -5  -1   17.10   12.78
  -9  -5  -1   36.66   15.92
   9   5   1    6.94   11.18
   9   5   1    0.68   12.78
   9   5   1    4.40   10.24
   9   5   1    7.37   16.00
  -9  -6   6   14.56   13.63
  -9  -6   6    2.20   12.28
  -9  -6   6   21.00   15.07
  -9  -6   6   25.82   15.92
  -9  -6   6    7.87    9.57
   9   6  -6   13.04   14.90
   9   6  -6   15.32   12.62
   9   6  -6   27.43   16.68
   9   6  -6   17.86   14.56
  -9  -6   5   66.63   18.54
  -9  -6   5   63.84   21.34
  -9  -6   5   87.29   23.37
  -9  -6   5   73.15   21.34
  -9  -6   5   69.00   17.19
   9   6  -5   65.19   21.00
   9   6  -5   88.90   21.67
   9   6  -5   71.54   21.76
   9   6  -5   69.76   21.84
  -9  -6   4   28.11   15.07
  -9  -6   4   19.64   15.16
  -9  -6   4   32.09   17.36
  -9  -6   4   30.14   16.00
  -9  -6   4   29.80   13.21
   9   6  -4   12.36   14.99
   9   6  -4   14.99   12.78
   9   6  -4   15.83   14.14
   9   6  -4   28.79   16.09
  -9  -6   3  100.75   22.77
  -9  -6   3  170.01   29.97
  -9  -6   3  112.35   24.04
  -9  -6   3  105.41   20.40
   9   6  -3  130.98   27.09
   9   6  -3   84.50   20.74
   9   6  -3   90.42   23.88
  -9  -6   2   76.79   20.91
  -9  -6   2   80.77   21.59
  -9  -6   2   81.79   18.96
   9   6  -2   63.24   19.73
   9   6  -2   56.98   17.78
   9   6  -2   65.45   21.50
  -9  -6   1    6.10   11.60
  -9  -6   1   -3.56   11.68
  -9  -6   1   18.63   14.22
   9   6  -1   19.05   14.82
   9   6  -1   13.29   11.85
   9   6  -1    7.03   15.41
 -10   7   1    7.70   13.63
 -10   7   1    5.59   13.72
 -10   7   1   -1.02   14.48
 -10   7   1   -3.13    9.91
  10  -7  -1    3.98   13.63
  10  -7  -1   -5.76   12.11
 -10   7   0   32.26   16.85
 -10   7   0   28.02   16.00
 -10   7   0   32.00   18.03
 -10   7   0   38.95   15.16
  10  -7   0   31.58   17.53
  10  -7   0   22.77   13.04
 -10   7  -1   88.05   23.54
 -10   7  -1   84.83   21.76
 -10   7  -1   78.82   22.94
 -10   7  -1   77.89   19.81
  10  -7   1   71.46   22.44
  10  -7   1   57.83   20.32
 -10   7  -2   29.12   17.61
 -10   7  -2   57.91   21.00
 -10   7  -2   44.62   16.68
 -10   7  -2   41.15   17.95
 -10   7  -2   61.81   18.29
  10  -7   2   24.98   17.02
  10  -7   2   14.31   13.80
  10  -7   2   31.41   17.61
  10  -7   2   39.88   19.13
 -10   6   4   23.54   16.68
 -10   6   4   16.85   14.56
 -10   6   4   15.16   13.80
 -10   6   4   11.01   14.56
 -10   6   4   16.59    9.82
  10  -6  -4   13.12   15.32
  10  -6  -4   11.18   12.78
 -10   6   3  109.89   24.38
 -10   6   3  112.60   25.74
 -10   6   3  100.33   25.99
 -10   6   3  121.58   19.39
  10  -6  -3   92.96   21.76
  10  -6  -3   94.82   23.11
 -10   6   2   95.67   23.79
 -10   6   2   87.04   22.27
 -10   6   2   81.79   23.45
 -10   6   2   86.78   17.27
  10  -6  -2   63.41   20.66
  10  -6  -2   54.78   18.71
 -10   6   1    2.37   11.43
 -10   6   1   -0.85   11.18
 -10   6   1   -5.76   11.51
 -10   6   1    6.77    9.91
  10  -6  -1   -0.93   11.68
  10  -6  -1    6.86    9.65
 -10   6   0   12.28   12.53
 -10   6   0   16.76   13.97
 -10   6   0   37.00   14.56
 -10   6   0   20.66   16.17
 -10   6   0   33.70   14.05
  10  -6   0   23.54   16.59
  10  -6   0   30.99   15.92
  10  -6   0   33.19   15.24
  10  -6   0   39.54   20.07
 -10   6  -1   27.26   15.66
 -10   6  -1   41.23   18.20
 -10   6  -1   26.42   14.22
 -10   6  -1   20.23   15.32
 -10   6  -1   37.76   14.39
  10  -6   1   28.62   16.93
  10  -6   1   19.39   15.41
  10  -6   1   32.17   16.17
  10  -6   1   43.18   18.46
 -10   6  -2    5.59   13.12
 -10   6  -2   13.21   13.72
 -10   6  -2   17.86   12.95
 -10   6  -2    8.13   12.70
 -10   6  -2    7.11   11.60
  10  -6   2    4.15   13.29
  10  -6   2   -2.03   11.85
  10  -6   2    6.35   12.87
  10  -6   2   15.49   15.24
 -10   6  -3    6.86   13.89
 -10   6  -3   15.16   14.14
 -10   6  -3   16.51   13.38
 -10   6  -3    1.86   12.45
 -10   6  -3   16.26   14.05
  10  -6   3    2.20    9.31
  10  -6   3    7.96   12.19
  10  -6   3   12.36   14.48
  10  -6   3    7.79   13.21
 -10   5   5   22.27   13.29
 -10   5   5   22.44   14.22
 -10   5   5   22.27   14.39
 -10   5   5    2.79   12.87
 -10   5   5   13.46    8.97
  10  -5  -5    1.61   10.24
  10  -5  -5    6.43   12.36
 -10   5   4   82.89   21.08
 -10   5   4   96.52   23.62
 -10   5   4   97.87   24.89
 -10   5   4  125.13   17.86
  10  -5  -4   68.92   21.67
  10  -5  -4   86.95   21.42
 -10   5   3   52.92   18.37
 -10   5   3   50.38   16.93
 -10   5   3   58.93   20.49
 -10   5   3   59.01   13.72
  10  -5  -3   62.99   18.88
  10  -5  -3   42.67   17.02
 -10   5   2   15.07   13.38
 -10   5   2   18.12   11.77
 -10   5   2   39.20   24.21
 -10   5   2   25.40   16.51
 -10   5   2   22.94   10.67
  10  -5  -2   19.39   15.24
  10  -5  -2   19.05   12.02
  10  -5  -2   25.91   16.51
  10  -5  -2   25.06   16.26
 -10   5   1   60.11   18.80
 -10   5   1   65.11   19.64
 -10   5   1   49.11   15.75
 -10   5   1   60.11   20.66
 -10   5   1   87.04   17.19
  10  -5  -1   46.90   17.69
  10  -5  -1   76.71   20.66
  10  -5  -1   49.02   16.42
  10  -5  -1   78.48   22.52
 -10   5   0   11.51   12.45
 -10   5   0   23.54   14.73
 -10   5   0   33.53   14.39
 -10   5   0   19.13   14.90
 -10   5   0   36.91   13.21
  10  -5   0   27.26   15.83
  10  -5   0   15.32   13.46
  10  -5   0   33.10   14.99
  10  -5   0   16.85   15.83
 -10   5  -1    1.19   11.35
 -10   5  -1    5.42    8.89
 -10   5  -1   -9.99    8.04
 -10   5  -1   12.28   14.22
 -10   5  -1    3.13   10.41
  10  -5   1   11.09   13.12
  10  -5   1    4.15   11.43
  10  -5   1   -1.35   11.09
  10  -5   1    9.99   14.05
 -10   5  -2    1.44   11.09
 -10   5  -2    7.70   11.77
 -10   5  -2   -2.12    9.91
 -10   5  -2   -3.98   11.01
 -10   5  -2   -3.73   10.08
  10  -5   2   -1.35    9.14
  10  -5   2   -1.35    9.14
  10  -5   2   -4.49    7.28
  10  -5   2    1.27   12.62
 -10   5  -3   -1.19   11.18
 -10   5  -3   -4.57   11.18
 -10   5  -3   -2.54    9.91
 -10   5  -3   -1.95   11.35
 -10   5  -3   10.24   12.70
  10  -5   3   -5.67   11.68
  10  -5   3    7.87   11.26
  10  -5   3    1.44   11.68
  10  -5   3   -0.59   12.02
 -10   5  -4    4.83   13.21
 -10   5  -4    2.54   12.62
 -10   5  -4   13.63   13.55
 -10   5  -4    8.55   13.04
 -10   5  -4    5.67   12.36
  10  -5   4    8.55   12.95
  10  -5   4    1.86   11.18
  10  -5   4    0.42   12.78
  10  -5   4   20.32   16.26
 -10   4   6   30.90   14.56
 -10   4   6   33.36   16.00
 -10   4   6   21.76   14.65
 -10   4   6   55.79   19.30
 -10   4   6   34.46    9.65
  10  -4  -6   45.13   16.68
  10  -4  -6   24.38   15.83
  10  -4  -6   44.96   16.76
  10  -4  -6   61.64   20.74
 -10   4   5   57.32   18.71
 -10   4   5   49.70   16.51
 -10   4   5   69.26   21.17
 -10   4   5   67.05   12.45
  10  -4  -5   57.49   19.81
  10  -4  -5   66.04   19.13
  10  -4  -5   52.66   19.47
 -10   4   4   56.13   18.54
 -10   4   4   60.03   18.54
 -10   4   4   41.99   16.26
 -10   4   4   59.77   12.11
  10  -4  -4   46.65   18.03
  10  -4  -4   38.61   15.66
  10  -4  -4   50.71   19.22
 -10   4   3  110.23   23.28
 -10   4   3   74.67   19.05
 -10   4   3   68.32   16.76
 -10   4   3   81.79   22.35
 -10   4   3   97.36   15.58
  10  -4  -3  103.12   23.20
  10  -4  -3   84.50   21.42
  10  -4  -3   70.53   19.13
  10  -4  -3  104.65   24.47
 -10   4   2   85.26   20.23
 -10   4   2   98.47   22.44
 -10   4   2  102.36   21.00
 -10   4   2  104.73   24.30
 -10   4   2  127.25   18.12
  10  -4  -2  106.00   23.62
  10  -4  -2   88.22   20.32
  10  -4  -2   97.03   20.32
  10  -4  -2  123.44   26.67
 -10   4   1   16.85   13.21
 -10   4   1   13.38   13.38
 -10   4   1   11.18   10.84
 -10   4   1    6.43   12.78
 -10   4   1   19.22   10.16
  10  -4  -1   15.32   11.68
  10  -4  -1   20.66   13.29
  10  -4  -1    8.97   12.53
  10  -4  -1   13.38   14.73
 -10   4   0   43.01   16.34
 -10   4   0   41.57   16.68
 -10   4   0   35.39   13.38
 -10   4   0   45.72   18.63
 -10   4   0   77.30   17.19
  10  -4   0   37.85   16.85
  10  -4   0   36.41   14.39
  10  -4   0   32.26   15.24
  10  -4   0   39.62   17.53
 -10   4  -1   -0.85   10.92
 -10   4  -1   22.52   14.14
 -10   4  -1   18.46   11.35
 -10   4  -1    2.71   11.94
 -10   4  -1   19.64   11.43
  10  -4   1   -2.96   11.60
  10  -4   1   -4.49    8.72
  10  -4   1   12.70   12.28
  10  -4   1    2.20   12.45
 -10   4  -2   30.23   14.90
 -10   4  -2    8.55   12.78
 -10   4  -2   18.54   12.87
 -10   4  -2   16.85   13.80
 -10   4  -2   21.34   12.78
  10  -4   2    8.89   12.53
  10  -4   2   23.28   13.29
  10  -4   2   17.19   14.22
  10  -4   2   17.27   14.05
 -10   4  -3   27.09   14.99
 -10   4  -3   33.95   16.42
 -10   4  -3   19.81   12.28
 -10   4  -3   39.20   17.27
 -10   4  -3   35.56   14.82
  10  -4   3   27.35   13.29
  10  -4   3   24.89   13.97
  10  -4   3   17.44   14.90
  10  -4   3   32.09   16.00
 -10   4  -4   54.19   18.80
 -10   4  -4   60.45   20.07
 -10   4  -4   61.21   18.71
 -10   4  -4   59.86   18.63
  10  -4   4   38.61   17.86
  10  -4   4   33.19   15.32
  10  -4   4   34.63   15.75
  10  -4   4   49.27   18.03
 -10   4  -5   28.79   15.58
 -10   4  -5   41.23   18.54
 -10   4  -5   21.76   16.17
  10  -4   5   40.30   18.20
  10  -4   5   29.72   13.97
  10  -4   5   31.33   17.02
 -10   3   7   52.66   19.22
 -10   3   7   75.27   19.98
 -10   3   7   57.74   18.71
 -10   3   7   58.25   19.64
 -10   3   7   70.86   10.08
  10  -3  -7   46.82   17.95
  10  -3  -7   55.62   18.54
  10  -3  -7   83.14   21.93
  10  -3  -7   61.04   20.15
 -10   3   6   15.16   12.78
 -10   3   6   22.10   14.14
 -10   3   6    7.79   12.11
 -10   3   6   16.93    6.86
  10  -3  -6   17.27   14.48
  10  -3  -6   10.41   13.21
  10  -3  -6   13.89   13.55
 -10   3   5  157.56   27.69
 -10   3   5  124.46   23.62
 -10   3   5  144.10   27.52
  10  -3  -5  141.22   26.16
  10  -3  -5  114.30   23.11
  10  -3  -5  161.54   28.02
 -10   3   4   -1.61    7.28
 -10   3   4   10.41   11.94
 -10   3   4   -0.34    8.89
 -10   3   4    9.65   13.46
  10  -3  -4    0.34   11.43
  10  -3  -4    7.54   11.26
  10  -3  -4    2.20   11.60
  10  -3  -4   -3.98   11.09
 -10   3   3   82.55   20.40
 -10   3   3   88.47   19.98
 -10   3   3   52.58   15.83
 -10   3   3   92.71   22.27
  10  -3  -3   82.12   19.13
  10  -3  -3   58.84   18.20
  10  -3  -3   70.53   18.29
  10  -3  -3   86.87   20.74
 -10   3   2   -2.54    9.91
 -10   3   2    4.40   11.09
 -10   3   2    0.68    9.48
 -10   3   2    5.67   12.70
  10  -3  -2    7.79   10.24
  10  -3  -2    2.88    9.99
  10  -3  -2    1.95   10.08
  10  -3  -2   -3.81   11.94
 -10   3   1   41.32   16.09
 -10   3   1   58.00   17.86
 -10   3   1   41.23   14.39
 -10   3   1   63.58   19.81
 -10   3   1   46.48   13.38
  10  -3  -1   42.59   15.24
  10  -3  -1   30.73   14.82
  10  -3  -1   40.30   14.14
  10  -3  -1   59.60   19.39
 -10   3   0   68.16   18.46
 -10   3   0   76.54   18.80
 -10   3   0   54.52   16.85
 -10   3   0   37.34   16.68
 -10   3   0   63.67   15.16
  10  -3   0   69.59   19.30
  10  -3   0   44.45   15.75
  10  -3   0   62.31   18.29
  10  -3   0   59.69   17.61
 -10   3  -1   32.43   15.24
 -10   3  -1   25.06   12.11
 -10   3  -1   27.09   12.19
 -10   3  -1   36.24   16.59
 -10   3  -1   17.27   11.51
  10  -3   1   20.91   13.55
  10  -3   1   23.11   12.87
  10  -3   1   22.77   13.46
  10  -3   1   34.88   16.26
 -10   3  -2   83.73   20.83
 -10   3  -2   63.33   18.71
 -10   3  -2   67.48   19.30
 -10   3  -2   82.29   19.30
  10  -3   2   57.15   18.29
  10  -3   2   66.46   18.03
  10  -3   2   67.73   18.20
  10  -3   2   76.20   21.08
 -10   3  -3   36.32   15.24
 -10   3  -3   48.51   17.69
 -10   3  -3   24.47   14.56
 -10   3  -3   35.81   14.99
  10  -3   3   25.40   14.05
  10  -3   3   19.13   12.45
  10  -3   3   22.69   15.58
  10  -3   3   30.48   17.19
 -10   3  -4   88.14   21.84
 -10   3  -4  130.72   26.92
 -10   3  -4  101.60   24.55
 -10   3  -4  120.65   23.62
  10  -3   4   89.49   23.45
  10  -3   4   93.39   20.83
  10  -3   4  103.63   25.06
  10  -3   4  118.28   25.99
 -10   3  -5   62.48   19.90
 -10   3  -5   34.63   18.63
 -10   3  -5   34.12   17.36
  10  -3   5   43.52   19.39
  10  -3   5   39.28   15.92
  10  -3   5   48.34   19.47
 -10   2   8   55.71   18.96
 -10   2   8   50.71   24.55
 -10   2   8   45.63   18.80
 -10   2   8   52.15   18.46
  10  -2  -8   39.88   17.02
  10  -2  -8   60.03   19.47
  10  -2  -8   49.27   17.61
  10  -2  -8   47.24   17.78
  10  -2  -8   45.72   18.63
 -10   2   7   22.77   14.14
 -10   2   7   20.49   13.12
 -10   2   7   16.42   13.46
 -10   2   7   15.32    5.25
  10  -2  -7   22.01   14.14
  10  -2  -7   14.31   13.97
  10  -2  -7    4.23   11.94
  10  -2  -7   18.29   13.38
  10  -2  -7    8.21   12.87
 -10   2   6  105.15   22.52
 -10   2   6   68.24   18.29
 -10   2   6   66.97   18.20
 -10   2   6   75.86   20.83
 -10   2   6   98.72   10.33
  10  -2  -6   62.48   18.54
  10  -2  -6   78.40   20.07
  10  -2  -6   73.49   18.20
  10  -2  -6   86.44   22.35
 -10   2   5   37.08   16.51
 -10   2   5   41.40   15.92
 -10   2   5   49.11   17.53
 -10   2   5   35.05   14.05
 -10   2   5   36.83   16.68
 -10   2   5   40.89    9.14
  10  -2  -5   42.25   16.17
  10  -2  -5   34.12   13.55
  10  -2  -5   36.15   14.31
  10  -2  -5   55.62   19.22
 -10   2   4   74.51   19.81
 -10   2   4   45.63   16.17
 -10   2   4   88.56   21.00
 -10   2   4   68.16   17.61
 -10   2   4   59.77   19.13
 -10   2   4   87.46   13.12
  10  -2  -4   47.24   16.59
  10  -2  -4   61.38   18.29
  10  -2  -4   52.66   15.75
  10  -2  -4   45.72   17.19
 -10   2   3  226.31   27.60
 -10   2   3  239.69   27.01
 -10   2   3  246.80   28.19
 -10   2   3  187.62   27.69
 -10   2   3  232.49   32.77
 -10   2   3  251.45   19.05
  10  -2  -3  257.64   28.53
  10  -2  -3  207.94   29.80
  10  -2  -3  219.11   26.16
  10  -2  -3  252.39   29.97
 -10   2   2    7.54   11.26
 -10   2   2   10.08   11.51
 -10   2   2    0.00    7.45
 -10   2   2   -1.95   10.92
 -10   2   2    4.83    7.37
  10  -2  -2   -4.40    7.54
  10  -2  -2    2.20    9.14
  10  -2  -2    8.89   11.51
  10  -2  -2    4.66   12.19
 -10   2   1  144.78   25.57
 -10   2   1  145.62   24.64
 -10   2   1  129.20   24.13
 -10   2   1  159.85   28.28
 -10   2   1  160.44   18.20
  10  -2  -1  150.70   25.31
  10  -2  -1  109.73   21.84
  10  -2  -1  122.43   24.04
  10  -2  -1  152.65   27.77
 -10   2   0   61.97   18.37
 -10   2   0   59.94   18.03
 -10   2   0   67.39   18.37
 -10   2   0   77.13   20.91
  10  -2   0   80.94   21.17
  10  -2   0   45.72   16.17
  10  -2   0   53.51   17.36
  10  -2   0   81.53   21.42
 -10   2  -1  100.33   22.35
 -10   2  -1   90.17   19.90
 -10   2  -1   86.70   20.15
  10  -2   1   89.15   22.10
  10  -2   1   49.78   16.00
  10  -2   1   71.12   19.64
  10  -2   1   75.18   20.83
 -10   2  -2   20.49   13.55
 -10   2  -2   32.34   14.14
 -10   2  -2   23.37   14.82
 -10   2  -2   28.11   12.70
  10  -2   2   26.67   14.82
  10  -2   2   22.27   13.29
  10  -2   2   14.14   12.87
  10  -2   2   28.96   15.58
 -10   2  -3   27.18   13.97
 -10   2  -3   20.07   14.22
 -10   2  -3   11.94   13.55
 -10   2  -3   15.41   13.46
  10  -2   3    7.54   10.33
  10  -2   3   22.52   12.45
  10  -2   3   15.66   13.21
  10  -2   3   12.36   13.72
 -10   2  -4    3.73   11.43
 -10   2  -4   -0.17   11.60
 -10   2  -4   -4.83   11.26
 -10   2  -4   -0.17   11.51
  10  -2   4    3.39   12.45
  10  -2   4   -1.61   10.33
  10  -2   4   -2.03    9.82
  10  -2   4   -5.50   10.41
 -10   2  -5   17.78   16.34
 -10   2  -5   21.08   15.49
 -10   2  -5   17.02   15.66
  10  -2   5   21.25   15.75
  10  -2   5   12.36   12.11
  10  -2   5   13.21   13.55
  10  -2   5   14.48   24.04
 -10   1   8   50.46   18.46
 -10   1   8   36.07   16.17
 -10   1   8   41.40   19.13
  10  -1  -8   30.48   15.92
  10  -1  -8   29.46   14.39
  10  -1  -8   36.49   18.03
 -10   1   7   -3.30    9.99
 -10   1   7   -1.02    9.99
 -10   1   7    1.19   10.33
 -10   1   7    2.37    9.48
 -10   1   7    4.23   11.01
 -10   1   7    4.32    4.06
  10  -1  -7    1.69    9.48
  10  -1  -7    7.79   11.94
  10  -1  -7   -0.68   10.41
  10  -1  -7   12.53   12.45
  10  -1  -7    5.16   11.60
 -10   1   6   71.54   19.73
 -10   1   6   81.79   19.30
 -10   1   6   72.64   19.30
 -10   1   6   81.28   19.64
 -10   1   6   73.24   20.57
 -10   1   6   83.90    9.99
  10  -1  -6   56.64   17.36
  10  -1  -6   92.71   21.84
  10  -1  -6   79.75   19.90
  10  -1  -6   58.50   17.69
  10  -1  -6   77.47   20.49
 -10   1   5   39.20   16.26
 -10   1   5   23.96   12.70
 -10   1   5   33.27   15.32
 -10   1   5   31.50   13.80
 -10   1   5   35.90   16.42
 -10   1   5   38.27    8.89
  10  -1  -5   20.83   11.18
  10  -1  -5   41.57   15.75
  10  -1  -5   32.34   13.21
  10  -1  -5   26.50   15.16
 -10   1   4  389.88   34.29
 -10   1   4  404.11   32.85
 -10   1   4  393.10   33.02
 -10   1   4  363.04   31.58
 -10   1   4  339.68   33.19
 -10   1   4  396.74   21.59
  10  -1  -4  353.56   31.33
  10  -1  -4  278.04   28.28
  10  -1  -4  273.04   28.53
  10  -1  -4  413.84   35.90
 -10   1   3    1.02   11.18
 -10   1   3    4.40    9.74
 -10   1   3   -3.98    9.82
 -10   1   3    8.72   10.92
 -10   1   3    5.84   12.11
 -10   1   3    6.77    6.86
  10  -1  -3   13.72   11.60
  10  -1  -3    0.68    9.74
  10  -1  -3    9.65   11.85
  10  -1  -3    9.91   12.95
 -10   1   2  330.62   31.66
 -10   1   2  336.37   30.48
 -10   1   2  330.45   31.41
 -10   1   2  259.84   26.50
 -10   1   2  326.13   23.03
  10  -1  -2  300.39   29.55
  10  -1  -2  195.58   28.87
  10  -1  -2  266.86   28.87
  10  -1  -2  277.45   30.48
 -10   1   1    6.43   11.18
 -10   1   1    0.68    7.11
 -10   1   1    1.69    9.82
 -10   1   1   -0.59    7.62
 -10   1   1    4.23    7.87
  10  -1  -1   -3.30    9.91
  10  -1  -1    3.81    9.82
  10  -1  -1   -0.59    9.82
  10  -1  -1    8.89   12.87
 -10   1   0  131.32   25.06
 -10   1   0  111.16   22.52
 -10   1   0  150.36   25.99
 -10   1   0  135.80   24.21
 -10   1   0  141.64   21.08
  10  -1   0  116.24   23.54
  10  -1   0  101.26   21.25
  10  -1   0  103.04   21.17
  10  -1   0  102.36   22.94
 -10   1  -1   24.38   13.89
 -10   1  -1   41.74   16.76
 -10   1  -1   26.33   15.58
 -10   1  -1   38.86   13.46
  10  -1   1   35.90   16.00
  10  -1   1   29.89   13.63
  10  -1   1   32.00   15.58
  10  -1   1   29.80   14.31
 -10   1  -2   22.61   14.39
 -10   1  -2   25.23   12.78
 -10   1  -2   21.08   11.68
  10  -1   2   24.21   12.70
  10  -1   2   22.27   12.78
  10  -1   2   41.40   16.42
  10  -1   2   28.19   15.49
 -10   1  -3   15.75   13.80
 -10   1  -3   24.38   14.22
 -10   1  -3   26.33   13.80
  10  -1   3   28.96   15.49
  10  -1   3   20.74   12.02
  10  -1   3   11.26   12.19
  10  -1   3   34.63   16.34
 -10   1  -4    8.89   11.94
 -10   1  -4    1.95   11.85
 -10   1  -4    3.98   10.67
 -10   1  -4    8.89   13.21
  10  -1   4    6.01   12.78
  10  -1   4    7.79   10.92
  10  -1   4    8.55   10.16
  10  -1   4   12.95   14.14
 -10   1  -5   69.85   22.35
 -10   1  -5   89.49   24.30
  10  -1   5   62.82   21.93
  10  -1   5   83.82   22.94
  10  -1   5   70.95   21.59
 -10   0   8   30.56   15.75
 -10   0   8   30.48   15.58
 -10   0   8   26.42   13.89
 -10   0   8   27.01    5.67
  10   0  -8   35.22   17.02
  10   0  -8   26.16   14.56
  10   0  -8   21.42   13.29
  10   0  -8   23.54   15.58
  10   0  -8   49.95   17.61
 -10   0   7   49.27   17.36
 -10   0   7   47.58   17.36
 -10   0   7   39.12   15.58
 -10   0   7   46.57    7.96
  10   0  -7   44.70   18.03
  10   0  -7   32.17   15.32
  10   0  -7   30.06   14.99
  10   0  -7   29.21   15.49
 -10   0   6   36.32   16.42
 -10   0   6   26.42   12.95
 -10   0   6   36.32   15.75
 -10   0   6    9.82   11.85
 -10   0   6   28.79    7.62
  10   0  -6   33.02   14.14
  10   0  -6   15.41   13.63
  10   0  -6   17.78   13.46
  10   0  -6   22.94   13.72
  10   0  -6   29.55   15.07
 -10   0   5  175.93   28.45
 -10   0   5  143.17   23.96
 -10   0   5  147.99   26.16
 -10   0   5  138.09   24.98
 -10   0   5  161.20   14.48
  10   0  -5  143.93   24.30
  10   0  -5  144.27   26.33
  10   0  -5  164.59   27.18
  10   0  -5  131.99   24.72
  10   0  -5  154.94   27.35
 -10   0   4   68.66   19.22
 -10   0   4   54.95   16.26
 -10   0   4   47.84   16.93
 -10   0   4   46.99   16.51
 -10   0   4   50.63   11.01
  10   0  -4   57.32   16.93
  10   0  -4   26.67   13.38
  10   0  -4   22.44   12.95
  10   0  -4   32.26   15.66
  10   0  -4   62.06   19.81
 -10   0   3   29.63   14.99
 -10   0   3   19.39   10.24
 -10   0   3   22.69   13.29
 -10   0   3   26.08   13.89
 -10   0   3   15.32    8.55
  10   0  -3   24.13   13.29
  10   0  -3   31.16   14.48
  10   0  -3   12.62   11.43
  10   0  -3   18.12   12.19
  10   0  -3   26.08   15.32
 -10   0   2   64.85   19.13
 -10   0   2   53.42   16.34
 -10   0   2   55.03   16.26
 -10   0   2   43.60   16.09
 -10   0   2   62.65   13.46
  10   0  -2   53.34   16.76
  10   0  -2   50.63   17.02
  10   0  -2   33.87   14.56
  10   0  -2   69.68   19.98
 -10   0   1   67.39   19.98
 -10   0   1   73.32   17.95
 -10   0   1   64.43   18.96
 -10   0   1   54.69   17.19
 -10   0   1   90.17   16.59
  10   0  -1   41.74   15.49
  10   0  -1   57.32   16.76
  10   0  -1   48.34   16.85
  10   0  -1   66.04   20.40
 -10   0   0  179.57   28.36
 -10   0   0  139.02   24.89
 -10   0   0  144.35   25.48
 -10   0   0  132.59   25.74
 -10   0   0  183.38   24.21
  10   0   0  152.14   25.65
  10   0   0  116.33   23.37
  10   0   0  127.17   24.81
  10   0   0  146.22   27.09
 -10   0  -1   35.47   15.58
 -10   0  -1   47.16   15.83
 -10   0  -1   39.12   16.00
 -10   0  -1   41.91   14.99
 -10   0  -1   54.02   15.92
  10   0   1   40.39   16.26
  10   0   1   32.85   12.62
  10   0   1   37.85   15.32
  10   0   1   41.74   15.49
 -10   0  -2   48.60   17.02
 -10   0  -2   38.61   16.17
 -10   0  -2   66.72   19.22
 -10   0  -2   60.62   19.22
 -10   0  -2   69.85   17.86
  10   0   2   48.60   17.86
  10   0   2   48.26   15.75
  10   0   2   37.42   15.66
  10   0   2   58.93   19.81
 -10   0  -3   15.16   12.45
 -10   0  -3   22.52   12.70
 -10   0  -3   16.42   14.56
  10   0   3   15.24   13.55
  10   0   3   13.04   11.01
  10   0   3    5.42   11.85
  10   0   3   22.35   14.82
 -10   0  -4   46.06   16.68
 -10   0  -4   29.46   16.34
 -10   0  -4   25.23   15.75
  10   0   4   20.15   15.83
  10   0   4   22.44   12.62
  10   0   4   28.79   17.02
 -10  -1   8   52.66   18.54
 -10  -1   8   74.76   21.17
 -10  -1   8   60.79   18.80
 -10  -1   8   50.29   17.78
 -10  -1   8   50.21    8.38
  10   1  -8   53.76   18.96
  10   1  -8   33.78   16.59
  10   1  -8   47.50   17.69
  10   1  -8   55.54   20.07
  10   1  -8   61.89   19.90
 -10  -1   7   29.97   15.32
 -10  -1   7   25.74   14.48
 -10  -1   7   29.29   15.07
 -10  -1   7   31.41   14.65
 -10  -1   7   27.52    7.45
  10   1  -7   19.39   14.82
  10   1  -7   30.82   14.99
  10   1  -7   23.71   14.65
  10   1  -7   29.97   14.82
 -10  -1   6   23.20   14.14
 -10  -1   6   32.17   15.16
 -10  -1   6   23.45   13.97
 -10  -1   6   24.38    7.87
  10   1  -6   32.68   16.42
  10   1  -6    3.64   11.51
  10   1  -6   18.54   12.70
  10   1  -6   24.38   13.97
 -10  -1   5    3.47   11.43
 -10  -1   5   -2.29    7.87
 -10  -1   5    2.96   10.50
 -10  -1   5    0.00    6.60
 -10  -1   5   -1.10    5.76
  10   1  -5    0.59    9.82
  10   1  -5    4.57   11.77
  10   1  -5   -4.66    9.91
  10   1  -5    1.02   10.24
  10   1  -5   -3.64   10.84
 -10  -1   4    9.91   11.94
 -10  -1   4   12.36   10.50
 -10  -1   4   23.28   13.80
 -10  -1   4   17.19   12.62
 -10  -1   4   10.08    7.45
  10   1  -4    7.54   10.58
  10   1  -4    9.74   12.53
  10   1  -4    7.37    9.48
  10   1  -4    0.00   10.16
  10   1  -4   -2.20   11.09
 -10  -1   3  134.19   25.74
 -10  -1   3  113.37   21.08
 -10  -1   3  109.56   23.54
 -10  -1   3  120.39   23.88
 -10  -1   3  135.04   16.51
  10   1  -3   99.14   20.49
  10   1  -3  142.74   26.58
  10   1  -3  124.71   24.30
  10   1  -3   99.74   21.93
  10   1  -3  124.80   25.06
 -10  -1   2    9.40   12.19
 -10  -1   2   -7.37    8.38
 -10  -1   2   -7.45    9.31
 -10  -1   2  -10.58    9.40
 -10  -1   2   -1.86    6.77
  10   1  -2   -8.21    8.30
  10   1  -2    2.37   11.51
  10   1  -2    1.02    7.37
  10   1  -2  -10.24    9.14
  10   1  -2   -7.11   10.50
 -10  -1   1   70.70   18.71
 -10  -1   1   53.93   16.42
 -10  -1   1   48.51   17.53
 -10  -1   1   67.90   19.30
 -10  -1   1   64.35   15.24
  10   1  -1   45.21   16.17
  10   1  -1   38.18   16.09
  10   1  -1   34.80   14.56
  10   1  -1   34.63   14.65
  10   1  -1   45.80   18.37
 -10  -1   0   16.09   11.43
 -10  -1   0    9.14    9.65
 -10  -1   0    2.46   11.09
 -10  -1   0    6.27   11.94
 -10  -1   0    9.14    9.74
  10   1   0    4.83   11.01
  10   1   0   21.08   13.04
  10   1   0    3.56   10.24
  10   1   0    3.39   11.26
  10   1   0   15.16   14.82
 -10  -1  -1   43.09   17.10
 -10  -1  -1   52.75   17.61
 -10  -1  -1   29.38   15.07
 -10  -1  -1   48.77   18.12
 -10  -1  -1   51.14   15.49
  10   1   1   33.70   16.17
  10   1   1   54.95   18.37
  10   1   1   22.94   13.38
  10   1   1   39.71   15.24
  10   1   1   61.38   19.90
 -10  -1  -2   34.04   15.75
 -10  -1  -2   31.75   15.75
 -10  -1  -2   38.18   16.17
 -10  -1  -2   20.74   14.90
 -10  -1  -2   34.54   14.73
  10   1   2   20.15   12.19
  10   1   2   29.46   14.90
  10   1   2   20.49   12.53
  10   1   2   20.66   13.29
  10   1   2   18.29   15.32
 -10  -1  -3   -5.67    9.48
 -10  -1  -3    0.93   11.35
 -10  -1  -3    1.35   12.19
 -10  -1  -3   -8.04   10.58
 -10  -1  -3  -10.92    8.81
  10   1   3   -0.93    8.21
  10   1   3   -3.05    9.99
  10   1   3   14.39    9.99
  10   1   3   -2.03    7.37
  10   1   3    6.10   13.12
 -10  -1  -4   19.90   14.73
 -10  -1  -4   20.49   15.16
  10   1   4    7.96   11.26
  10   1   4   19.64   14.05
  10   1   4   23.03   16.09
 -10  -2   8   29.80   14.99
 -10  -2   8   19.81   14.31
 -10  -2   8   16.76   12.28
 -10  -2   8   21.08    7.28
  10   2  -8   39.37   17.61
  10   2  -8   22.77   14.39
  10   2  -8   36.24   16.59
  10   2  -8   31.07   15.75
  10   2  -8   31.24   16.42
 -10  -2   7   14.99   12.95
 -10  -2   7   18.71   13.97
 -10  -2   7   14.39   13.29
 -10  -2   7   27.60   14.48
 -10  -2   7   17.53    7.54
  10   2  -7   12.28   11.51
  10   2  -7    7.28   11.68
  10   2  -7   16.26   14.22
  10   2  -7   20.15   14.05
 -10  -2   6   97.20   23.03
 -10  -2   6   75.44   20.40
 -10  -2   6   58.59   18.46
 -10  -2   6   78.65   20.23
 -10  -2   6   76.11   12.78
  10   2  -6   84.41   22.44
  10   2  -6   68.58   19.98
  10   2  -6   76.28   20.49
 -10  -2   5    5.50   11.77
 -10  -2   5   12.02   12.62
 -10  -2   5   -0.08    8.13
 -10  -2   5    4.23    6.86
  10   2  -5   12.19   13.38
  10   2  -5    1.10   10.50
  10   2  -5   -7.37    9.82
 -10  -2   4   90.08   22.10
 -10  -2   4  115.23   26.84
 -10  -2   4  115.48   24.30
 -10  -2   4  102.53   22.10
 -10  -2   4  124.97   17.69
  10   2  -4   88.14   21.93
  10   2  -4  104.56   23.88
  10   2  -4  103.71   23.45
  10   2  -4   69.34   19.98
 -10  -2   3   11.09   12.70
 -10  -2   3   -0.51    9.14
 -10  -2   3    7.45   10.75
 -10  -2   3    5.08    9.06
 -10  -2   3   14.82    9.40
  10   2  -3    5.42    9.74
  10   2  -3   -2.54   10.41
  10   2  -3    3.56   10.24
  10   2  -3    8.13   11.51
  10   2  -3    5.84   12.70
 -10  -2   2   95.42   22.77
 -10  -2   2   72.39   18.20
 -10  -2   2   82.97   21.00
 -10  -2   2   66.97   19.22
 -10  -2   2   81.79   16.00
  10   2  -2   48.00   15.66
  10   2  -2   86.53   22.01
  10   2  -2   56.98   17.69
  10   2  -2   49.78   16.93
  10   2  -2   69.51   21.00
 -10  -2   1  109.89   23.03
 -10  -2   1   81.45   19.47
 -10  -2   1   96.69   22.44
 -10  -2   1   81.11   21.34
 -10  -2   1  117.60   20.40
  10   2  -1   79.84   20.07
  10   2  -1  100.50   23.45
  10   2  -1   70.70   18.71
  10   2  -1   70.19   18.96
  10   2  -1   98.80   23.79
 -10  -2   0   11.26   13.21
 -10  -2   0   13.55   12.62
 -10  -2   0   10.33   13.12
 -10  -2   0    5.67    9.48
 -10  -2   0   14.90   11.18
  10   2   0    2.29   10.16
  10   2   0    8.30   12.19
  10   2   0   12.45   11.77
  10   2   0    7.45   11.09
  10   2   0    4.91   13.46
 -10  -2  -1   82.12   21.17
 -10  -2  -1   49.70   17.36
 -10  -2  -1   58.08   19.30
 -10  -2  -1   51.65   18.88
 -10  -2  -1   51.48   16.51
  10   2   1   39.62   14.73
  10   2   1   52.83   18.46
  10   2   1   46.82   15.66
  10   2   1   38.35   15.83
  10   2   1   66.21   21.67
 -10  -2  -2   -3.81    9.82
 -10  -2  -2    0.93   10.75
 -10  -2  -2   -8.72   10.16
 -10  -2  -2   10.75   13.04
 -10  -2  -2    8.38   11.68
  10   2   2   15.16   13.29
  10   2   2    0.68   10.58
  10   2   2   -2.29    9.31
  10   2   2   -0.59   10.08
  10   2   2    0.76   13.04
 -10  -2  -3   39.79   15.49
 -10  -2  -3   34.71   17.78
  10   2   3   34.04   16.85
  10   2   3   36.91   16.93
  10   2   3   60.87   21.67
 -10  -3   8    8.13   12.36
 -10  -3   8    8.97   14.05
 -10  -3   8    2.29   12.45
 -10  -3   8    5.16    7.11
  10   3  -8   23.62   16.17
  10   3  -8    6.86   13.04
  10   3  -8    8.81   15.66
 -10  -3   7   47.67   18.12
 -10  -3   7   37.08   16.59
 -10  -3   7   36.07   16.68
 -10  -3   7   38.27   10.75
  10   3  -7   42.25   18.12
  10   3  -7   30.23   16.00
  10   3  -7   35.98   18.29
  10   3  -7   28.28   16.51
 -10  -3   6    8.81   12.53
 -10  -3   6    2.71   11.85
 -10  -3   6   11.43   13.46
 -10  -3   6    5.25    7.54
  10   3  -6   14.90   14.48
  10   3  -6   -2.37   11.60
  10   3  -6    5.84   12.45
 -10  -3   5  167.21   29.29
 -10  -3   5  176.95   29.80
 -10  -3   5  142.41   26.58
 -10  -3   5  152.82   28.19
 -10  -3   5  150.20   17.78
  10   3  -5  121.83   25.99
  10   3  -5  123.95   25.74
  10   3  -5  157.82   28.45
 -10  -3   4   15.32   13.38
 -10  -3   4   11.60   13.04
 -10  -3   4    9.40   13.21
 -10  -3   4   18.71    9.99
  10   3  -4    8.89   13.21
  10   3  -4   21.42   13.89
  10   3  -4   12.95   13.97
 -10  -3   3   55.12   18.80
 -10  -3   3   70.44   20.07
 -10  -3   3   51.65   18.63
 -10  -3   3   62.06   14.56
  10   3  -3   62.74   19.64
  10   3  -3   73.83   18.96
  10   3  -3   63.75   19.64
 -10  -3   2   76.96   21.25
 -10  -3   2   69.00   17.86
 -10  -3   2   71.20   18.96
 -10  -3   2   71.03   18.96
 -10  -3   2   77.04   16.85
  10   3  -2   73.32   18.80
  10   3  -2   75.27   21.25
  10   3  -2   50.97   16.51
  10   3  -2   71.71   21.67
 -10  -3   1   15.32   12.19
 -10  -3   1   -1.78    9.48
 -10  -3   1   15.66   13.46
 -10  -3   1   12.95   13.55
 -10  -3   1   16.00   11.85
  10   3  -1    6.27   10.75
  10   3  -1    9.40   11.94
  10   3  -1    4.23    7.70
  10   3  -1   14.31   15.07
 -10  -3   0  170.68   29.29
 -10  -3   0  159.00   26.67
 -10  -3   0  211.24   32.00
 -10  -3   0  110.57   22.86
 -10  -3   0  162.30   24.72
  10   3   0  157.05   27.01
  10   3   0  152.82   27.85
  10   3   0  145.12   25.74
  10   3   0  157.31   27.60
  10   3   0  161.46   29.72
 -10  -3  -1   19.64   13.97
 -10  -3  -1   12.70   12.62
 -10  -3  -1   21.93   14.39
 -10  -3  -1    8.47   10.84
 -10  -3  -1   31.66   15.32
  10   3   1   16.93   13.12
  10   3   1   13.12   13.12
  10   3   1   11.85   10.92
  10   3   1   10.16   12.11
  10   3   1   20.91   16.17
 -10  -3  -2  133.52   25.91
 -10  -3  -2  137.67   26.58
 -10  -3  -2  151.80   28.19
 -10  -3  -2  123.02   25.91
 -10  -3  -2  177.20   28.28
  10   3   2   91.18   22.27
  10   3   2   87.12   21.50
  10   3   2  102.78   21.76
  10   3   2  101.09   23.11
  10   3   2   83.14   23.96
 -10  -4   7   57.91   19.81
 -10  -4   7   36.07   18.03
 -10  -4   7   56.05   20.15
 -10  -4   7   46.99   12.45
  10   4  -7   41.74   19.13
  10   4  -7   55.96   19.73
  10   4  -7   63.24   21.76
  10   4  -7   58.16   18.88
 -10  -4   6   52.83   19.47
 -10  -4   6   24.47   13.80
 -10  -4   6   43.35   17.69
 -10  -4   6   47.50   12.95
  10   4  -6   34.46   17.86
  10   4  -6   34.63   14.90
  10   4  -6   28.87   16.59
  10   4  -6   50.46   18.54
 -10  -4   5   27.77   15.41
 -10  -4   5   30.99   15.92
 -10  -4   5   40.47   17.53
 -10  -4   5   30.39   11.51
  10   4  -5   39.96   16.85
  10   4  -5   25.15   14.48
  10   4  -5   35.14   16.85
 -10  -4   4   19.47   14.56
 -10  -4   4   15.41   11.85
 -10  -4   4    9.91   10.58
  10   4  -4   22.27   16.51
  10   4  -4   12.70   10.67
  10   4  -4    6.10   13.21
 -10  -4   3  100.16   23.71
 -10  -4   3  108.96   24.98
 -10  -4   3  102.53   19.22
  10   4  -3  101.77   24.55
  10   4  -3   77.13   20.40
  10   4  -3  105.07   24.64
 -10  -4   2    0.42   11.18
 -10  -4   2   -0.51   11.94
 -10  -4   2   10.58   10.58
  10   4  -2    7.28   13.12
  10   4  -2    6.35   11.01
  10   4  -2   12.95   14.90
 -10  -4   1  169.67   29.38
 -10  -4   1  170.01   29.89
 -10  -4   1  197.61   28.36
  10   4  -1  118.19   27.60
  10   4  -1  166.87   29.55
  10   4  -1  109.73   23.88
  10   4  -1  156.88   30.23
 -10  -4   0   19.90   13.63
 -10  -4   0   26.75   16.26
 -10  -4   0   28.96   16.09
 -10  -4   0   40.98   15.32
  10   4   0   23.11   13.63
  10   4   0   24.72   14.22
  10   4   0   12.62   12.62
  10   4   0   25.06   18.54
 -10  -5   4   34.80   17.10
 -10  -5   4   39.79   18.29
 -10  -5   4   15.75   11.94
  10   5  -4   39.20   19.22
  10   5  -4   13.12   12.70
  10   5  -4   16.85   14.65
 -10  -5   3   21.25   16.26
 -10  -5   3   22.44   16.34
 -10  -5   3   17.61   11.85
  10   5  -3   21.84   14.05
  10   5  -3   11.94   12.87
  10   5  -3   25.06   18.12
 -11   5   2   40.39   18.71
 -11   5   2   43.26   17.02
 -11   5   2   44.45   20.49
 -11   5   2   48.26   14.48
  11  -5  -2   24.13   14.22
  11  -5  -2   39.28   17.95
  11  -5  -2   56.13   21.50
 -11   5   1    4.15   13.04
 -11   5   1    4.06    9.40
 -11   5   1   -1.95   10.75
 -11   5   1   -0.25   13.46
 -11   5   1   -1.02    9.91
  11  -5  -1   -2.37    9.48
  11  -5  -1   -4.91   11.26
  11  -5  -1    1.86   12.45
  11  -5  -1   -4.74   13.29
 -11   5   0   12.11   14.31
 -11   5   0    8.04   10.41
 -11   5   0   11.85   11.94
 -11   5   0    8.55   14.90
 -11   5   0    4.57   11.18
  11  -5   0   -2.46   13.04
  11  -5   0    2.12   12.78
  11  -5   0    7.87   13.29
  11  -5   0    9.65   15.41
 -11   4   4   79.92   22.52
 -11   4   4   61.13   19.64
 -11   4   4   72.90   24.13
 -11   4   4   75.27   14.82
  11  -4  -4   87.54   23.45
  11  -4  -4   61.55   20.07
  11  -4  -4   64.43   22.61
 -11   4   3   10.33   13.38
 -11   4   3    6.01    9.31
 -11   4   3    7.03   10.24
 -11   4   3    4.15   11.68
 -11   4   3    6.94    8.81
  11  -4  -3    5.42   12.95
  11  -4  -3    6.43   11.85
  11  -4  -3   -0.08   13.04
  11  -4  -3    7.96   14.99
 -11   4   2   88.47   22.44
 -11   4   2   75.27   21.17
 -11   4   2   74.17   19.98
 -11   4   2   88.81   24.38
 -11   4   2   96.94   17.86
  11  -4  -2   51.56   19.05
  11  -4  -2   48.43   19.05
  11  -4  -2   65.45   20.74
  11  -4  -2  105.66   26.08
 -11   4   1   15.07   14.99
 -11   4   1   11.18   13.12
 -11   4   1   16.68   13.72
 -11   4   1   35.14   18.37
 -11   4   1   13.55   11.09
  11  -4  -1   24.98   16.68
  11  -4  -1   10.41   13.38
  11  -4  -1   15.07   13.80
  11  -4  -1   21.84   17.36
 -11   4   0   25.06   14.05
 -11   4   0   13.72   11.77
 -11   4   0   16.26   12.95
 -11   4   0   19.39   16.59
 -11   4   0   28.36   13.72
  11  -4   0   10.92   15.24
  11  -4   0   15.92   13.63
  11  -4   0   18.46   15.49
  11  -4   0   20.32   16.68
 -11   4  -1   24.64   16.17
 -11   4  -1   28.79   15.49
 -11   4  -1   23.96   12.95
 -11   4  -1   29.63   17.78
 -11   4  -1   32.17   15.24
  11  -4   1   21.84   16.68
  11  -4   1   19.56   13.38
  11  -4   1   16.59   14.99
  11  -4   1   22.61   16.59
 -11   4  -2    5.84   13.21
 -11   4  -2   15.07   14.73
 -11   4  -2   -2.79   11.77
 -11   4  -2    7.37   14.05
 -11   4  -2   16.42   13.80
  11  -4   2   -2.46   12.02
  11  -4   2    2.54   11.01
  11  -4   2    3.13   13.12
  11  -4   2   -3.81   12.62
 -11   3   5   26.33   16.00
 -11   3   5   14.65   13.46
 -11   3   5    8.47   14.48
 -11   3   5   24.13    9.40
  11  -3  -5   14.22   13.63
  11  -3  -5    7.79   13.21
  11  -3  -5   30.82   18.71
 -11   3   4   17.53   14.82
 -11   3   4    3.81   12.62
 -11   3   4    6.52   11.35
 -11   3   4   16.42   16.09
 -11   3   4    4.06    7.87
  11  -3  -4    5.84   10.33
  11  -3  -4    3.56   12.62
  11  -3  -4   -1.02   11.43
  11  -3  -4   10.33   16.51
 -11   3   3   50.12   18.96
 -11   3   3   46.48   16.34
 -11   3   3   50.97   17.10
 -11   3   3   60.03   21.34
 -11   3   3   66.46   14.82
  11  -3  -3   37.00   17.36
  11  -3  -3   45.97   19.39
  11  -3  -3   51.56   17.78
  11  -3  -3   48.51   20.49
 -11   3   2  110.40   24.55
 -11   3   2  116.41   25.23
 -11   3   2  101.68   22.52
 -11   3   2  118.19   26.92
 -11   3   2  117.51   19.05
  11  -3  -2   80.52   22.69
  11  -3  -2   78.99   22.18
  11  -3  -2   62.23   19.47
  11  -3  -2   83.23   22.18
 -11   3   1    0.68   11.94
 -11   3   1   11.77   13.04
 -11   3   1    1.44   11.77
 -11   3   1    1.69   13.21
 -11   3   1    3.56    9.82
  11  -3  -1   -2.96    8.30
  11  -3  -1   14.73   12.95
  11  -3  -1   -6.94    7.28
  11  -3  -1   -5.50    8.97
 -11   3   0  108.03   23.79
 -11   3   0  110.57   24.72
 -11   3   0  116.92   25.65
 -11   3   0  110.83   20.49
  11  -3   0  110.83   24.21
  11  -3   0   83.23   20.66
  11  -3   0   94.49   23.03
  11  -3   0  116.92   26.75
 -11   3  -1   10.33   13.29
 -11   3  -1   11.77   11.18
 -11   3  -1    5.50   12.19
 -11   3  -1    8.13   11.01
  11  -3   1    6.86   10.58
  11  -3   1    6.10   11.26
  11  -3   1    5.42    9.99
  11  -3   1   13.29   15.32
 -11   3  -2   68.75   21.08
 -11   3  -2   60.62   20.66
 -11   3  -2   56.39   19.56
 -11   3  -2   60.37   17.69
  11  -3   2   54.61   21.08
  11  -3   2   39.96   16.34
  11  -3   2   65.78   21.08
  11  -3   2   87.04   23.11
 -11   2   5   50.63   18.80
 -11   2   5   58.25   18.71
 -11   2   5   40.39   16.17
 -11   2   5   44.79   19.13
 -11   2   5   61.13   11.68
  11  -2  -5   36.41   16.85
  11  -2  -5   39.96   17.02
  11  -2  -5   40.30   17.86
  11  -2  -5   45.04   19.81
 -11   2   4   36.49   17.78
 -11   2   4   38.10   16.34
 -11   2   4   32.43   15.41
 -11   2   4   50.97   19.30
 -11   2   4   44.45   11.09
  11  -2  -4   32.43   17.02
  11  -2  -4   25.31   15.32
  11  -2  -4   33.61   15.75
  11  -2  -4   67.73   20.49
 -11   2   3  131.99   27.35
 -11   2   3  155.36   27.85
 -11   2   3  119.21   24.21
 -11   2   3  132.08   28.11
 -11   2   3  159.76   17.95
  11  -2  -3  121.16   25.57
  11  -2  -3   95.59   21.67
  11  -2  -3  124.29   24.72
  11  -2  -3  155.44   29.97
 -11   2   2   19.22   13.29
 -11   2   2   13.38   10.67
 -11   2   2    4.32   11.09
 -11   2   2   17.02   15.75
  11  -2  -2    9.14   13.89
  11  -2  -2    7.54   12.53
  11  -2  -2   14.65   13.80
  11  -2  -2    1.69   14.65
 -11   2   1  186.35   31.50
 -11   2   1  178.64   29.04
 -11   2   1  211.15   32.09
  11  -2  -1  155.19   27.35
  11  -2  -1  156.04   28.02
  11  -2  -1  179.91   29.97
  11  -2  -1  205.65   34.04
 -11   2   0   71.97   21.25
 -11   2   0   82.21   21.76
 -11   2   0   69.17   20.15
  11  -2   0   68.66   19.47
  11  -2   0   52.66   18.37
  11  -2   0   49.61   18.96
  11  -2   0   59.27   20.66
 -11   2  -1   48.17   19.13
 -11   2  -1   52.07   17.19
 -11   2  -1   47.67   16.68
  11  -2   1   57.23   18.54
  11  -2   1   42.59   16.68
  11  -2   1   45.21   18.71
  11  -2   1   48.00   19.13
 -11   2  -2   35.22   17.27
 -11   2  -2   44.96   18.20
 -11   2  -2   50.46   18.54
 -11   2  -2   42.59   16.42
  11  -2   2   29.89   15.07
  11  -2   2   33.61   15.41
  11  -2   2   26.25   14.14
  11  -2   2   28.19   18.12
 -11   1   6   41.23   17.78
 -11   1   6   40.47   16.26
 -11   1   6   15.75   14.05
 -11   1   6   22.35   14.48
 -11   1   6   48.85   19.73
 -11   1   6   36.32    9.48
  11  -1  -6   39.03   16.93
  11  -1  -6   32.43   17.10
  11  -1  -6   20.32   15.24
  11  -1  -6   31.16   16.09
  11  -1  -6   38.10   18.54
 -11   1   5   83.65   21.59
 -11   1   5   59.01   18.46
 -11   1   5   78.57   21.17
 -11   1   5   80.85   21.25
 -11   1   5   58.33   19.81
 -11   1   5   86.02   13.72
  11  -1  -5   68.49   19.81
  11  -1  -5   89.41   23.54
  11  -1  -5   62.99   19.98
  11  -1  -5  101.26   23.03
  11  -1  -5   62.99   21.50
 -11   1   4   32.60   16.34
 -11   1   4   29.63   13.12
 -11   1   4   52.15   18.03
 -11   1   4   56.89   18.63
 -11   1   4   47.50   11.94
  11  -1  -4   46.82   18.03
  11  -1  -4   29.63   16.42
  11  -1  -4   51.90   17.53
  11  -1  -4   51.14   19.81
 -11   1   3    4.32    9.40
 -11   1   3   29.89   14.65
 -11   1   3    7.87   13.04
 -11   1   3    7.79   12.02
 -11   1   3   16.42    9.31
  11  -1  -3   -1.86   10.84
  11  -1  -3   13.80   12.62
  11  -1  -3    5.25   13.38
  11  -1  -3    2.54   13.80
 -11   1   2   44.62   18.12
 -11   1   2   42.67   16.42
 -11   1   2   68.75   20.74
 -11   1   2   43.26   16.09
 -11   1   2   44.28   13.04
  11  -1  -2   55.12   17.95
  11  -1  -2   52.41   18.03
  11  -1  -2   43.60   16.00
  11  -1  -2   37.93   16.17
 -11   1   1   20.07   13.21
 -11   1   1   24.64   12.95
 -11   1   1   21.76   14.65
 -11   1   1   26.58   15.75
 -11   1   1   29.80   12.11
  11  -1  -1   16.34   14.31
  11  -1  -1   23.37   14.14
  11  -1  -1   19.22   14.65
  11  -1  -1   22.27   14.48
 -11   1   0   20.15   15.07
 -11   1   0   21.59   12.62
 -11   1   0   22.77   15.66
 -11   1   0   25.74   12.78
  11  -1   0   -4.15   11.18
  11  -1   0    9.91   11.35
  11  -1   0   23.62   14.56
  11  -1   0   18.29   15.92
 -11   1  -1   98.38   23.62
 -11   1  -1  139.95   27.09
 -11   1  -1  124.37   26.50
  11  -1   1  105.07   24.64
  11  -1   1   83.56   21.42
  11  -1   1  104.22   22.94
  11  -1   1   89.24   23.79
 -11   1  -2   29.12   17.19
 -11   1  -2   10.33   14.14
 -11   1  -2   17.19   13.46
  11  -1   2   16.85   15.41
  11  -1   2   16.93   12.95
  11  -1   2   21.42   15.41
  11  -1   2   19.90   16.93
 -11   0   6   24.13   15.66
 -11   0   6   27.60   15.83
 -11   0   6   21.67   14.73
 -11   0   6   18.37    8.13
  11   0  -6   12.95   14.05
  11   0  -6   10.58   13.63
  11   0  -6   35.98   16.17
  11   0  -6   22.35   16.34
 -11   0   5   64.26   20.83
 -11   0   5   55.20   17.36
 -11   0   5   39.28   17.44
 -11   0   5   54.95   18.80
 -11   0   5   45.55   11.35
  11   0  -5   44.70   16.68
  11   0  -5   61.64   20.66
  11   0  -5   27.35   15.66
  11   0  -5   45.21   17.10
  11   0  -5   27.77   16.51
 -11   0   4   47.41   17.44
 -11   0   4   53.76   17.19
 -11   0   4   51.90   18.88
 -11   0   4   45.21   17.53
 -11   0   4   51.31   12.45
  11   0  -4   31.75   14.90
  11   0  -4   53.34   18.46
  11   0  -4   35.47   16.59
  11   0  -4   49.11   17.44
  11   0  -4   28.45   16.68
 -11   0   3   79.08   22.18
 -11   0   3   84.58   19.98
 -11   0   3   80.18   20.40
 -11   0   3   88.90   22.77
 -11   0   3   70.27   14.73
  11   0  -3   66.04   19.73
  11   0  -3   76.96   22.10
  11   0  -3   80.35   21.50
  11   0  -3   65.11   18.96
  11   0  -3   87.29   22.69
 -11   0   2   16.26   14.73
 -11   0   2    3.64   10.84
 -11   0   2    9.74   13.46
 -11   0   2    0.59   11.51
 -11   0   2    8.81    9.14
  11   0  -2   14.22   13.38
  11   0  -2   11.68   14.05
  11   0  -2   -0.85   10.84
  11   0  -2    7.20   12.87
  11   0  -2    2.88   13.38
 -11   0   1   20.15   14.56
 -11   0   1   17.78   13.72
 -11   0   1   21.76   15.16
 -11   0   1   16.51   13.38
 -11   0   1   29.21   12.28
  11   0  -1    8.30    9.99
  11   0  -1   12.19   14.99
  11   0  -1   12.02   12.95
  11   0  -1   20.07   15.24
  11   0  -1   18.37   15.49
 -11   0   0   15.75   14.82
 -11   0   0   25.31   14.99
 -11   0   0   20.91   14.73
 -11   0   0   24.13   13.55
 -11   0   0   29.04   13.38
  11   0   0   26.33   15.41
  11   0   0   29.04   17.02
  11   0   0   15.07   12.62
  11   0   0   19.64   12.87
  11   0   0   22.44   16.34
 -11   0  -1   31.83   17.19
 -11   0  -1   51.05   19.05
 -11   0  -1   36.24   17.36
 -11   0  -1   48.00   19.81
 -11   0  -1   55.46   17.53
  11   0   1   30.39   16.42
  11   0   1   34.04   16.85
  11   0   1   38.52   16.42
  11   0   1   41.82   17.36
  11   0   1   51.56   20.66
 -11   0  -2   40.47   17.78
 -11   0  -2   28.53   14.65
 -11   0  -2   17.95   16.26
 -11   0  -2   21.34   13.38
  11   0   2   21.50   16.34
  11   0   2   37.51   17.10
  11   0   2   29.55   15.41
  11   0   2   14.31   14.22
  11   0   2   29.55   17.69
 -11  -1   6   52.75   19.64
 -11  -1   6   33.02   17.02
 -11  -1   6   35.47   17.61
 -11  -1   6   74.17   13.12
  11   1  -6   80.60   24.04
  11   1  -6   43.35   18.29
  11   1  -6   61.13   20.23
  11   1  -6   48.60   19.13
 -11  -1   5  122.51   26.33
 -11  -1   5   91.61   23.54
 -11  -1   5   86.19   22.35
 -11  -1   5  101.43   16.09
  11   1  -5  108.20   26.58
  11   1  -5   92.20   21.93
  11   1  -5   97.20   24.38
 -11  -1   4   53.59   18.96
 -11  -1   4   69.17   19.05
 -11  -1   4   53.34   19.22
 -11  -1   4   42.67   17.19
 -11  -1   4   64.94   14.14
  11   1  -4   77.64   20.15
  11   1  -4   69.93   21.67
  11   1  -4   49.02   17.95
  11   1  -4   53.76   18.54
  11   1  -4   66.12   19.90
 -11  -1   3   17.78   14.90
 -11  -1   3    4.23   10.50
 -11  -1   3   15.16   11.85
 -11  -1   3    9.65   12.78
 -11  -1   3   23.96   10.75
  11   1  -3    5.50   11.77
  11   1  -3    0.25   12.62
  11   1  -3    7.54    9.82
  11   1  -3   21.76   14.65
  11   1  -3   18.20   16.00
 -11  -1   2    8.30   13.72
 -11  -1   2   21.93   13.46
 -11  -1   2   12.02   15.16
 -11  -1   2    8.89   14.73
 -11  -1   2   19.05   11.09
  11   1  -2    9.65    9.99
  11   1  -2   22.94   15.83
  11   1  -2    8.38   12.28
  11   1  -2   17.61   14.31
  11   1  -2   14.56   15.75
 -11  -1   1   10.41   14.39
 -11  -1   1   -0.76   10.67
 -11  -1   1   18.37   15.16
 -11  -1   1    3.30    9.31
 -11  -1   1   -0.93    8.89
  11   1  -1    1.61   10.67
  11   1  -1    2.37   13.21
  11   1  -1   -0.42    9.99
  11   1  -1    6.69   12.36
  11   1  -1    9.74   15.16
 -11  -1   0   10.58   14.31
 -11  -1   0   10.24   13.38
 -11  -1   0    8.89   13.72
 -11  -1   0   15.07   14.48
 -11  -1   0   20.66   12.78
  11   1   0    8.64   13.38
  11   1   0   12.70   14.14
  11   1   0    5.00   12.36
  11   1   0   16.59   11.85
  11   1   0    8.13   15.24
 -11  -1  -1    8.38   14.14
 -11  -1  -1   13.29   12.19
 -11  -1  -1   23.11   15.75
 -11  -1  -1   13.29   13.80
 -11  -1  -1   18.80   13.29
  11   1   1    8.47   13.89
  11   1   1    8.21   13.12
  11   1   1   11.35   12.87
  11   1   1   24.04   13.46
  11   1   1   17.53   14.39
 -11  -2   5   30.73   17.02
 -11  -2   5   21.17   15.24
 -11  -2   5   26.16   16.76
 -11  -2   5   33.95   11.18
  11   2  -5   31.24   18.63
  11   2  -5    4.40   13.04
  11   2  -5   19.13   13.21
  11   2  -5   14.14   16.34
 -11  -2   4   53.76   20.91
 -11  -2   4   32.77   16.26
 -11  -2   4   42.93   19.30
 -11  -2   4   40.72   12.78
  11   2  -4   64.26   21.59
  11   2  -4   32.51   16.68
  11   2  -4   39.71   17.53
  11   2  -4   67.39   21.50
 -11  -2   3  103.21   25.23
 -11  -2   3  114.13   24.55
 -11  -2   3   87.04   22.77
 -11  -2   3  140.80   21.25
  11   2  -3   92.79   21.84
  11   2  -3  100.84   24.81
  11   2  -3  104.65   23.54
  11   2  -3  109.56   24.81
  11   2  -3  118.36   27.26
 -11  -2   2   87.71   22.52
 -11  -2   2   64.43   18.96
 -11  -2   2   89.74   23.62
 -11  -2   2   48.68   17.44
 -11  -2   2   85.09   17.95
  11   2  -2   46.73   17.10
  11   2  -2   90.25   23.96
  11   2  -2   66.89   21.17
  11   2  -2   67.99   20.15
  11   2  -2   59.86   21.67
 -11  -2   1   -0.08   11.09
 -11  -2   1    3.47   11.18
 -11  -2   1   15.75   14.56
 -11  -2   1   -1.78   12.62
 -11  -2   1    6.35   11.18
  11   2  -1    5.93   11.77
  11   2  -1   -1.78    9.14
  11   2  -1    2.54   10.84
  11   2  -1    9.14   12.53
  11   2  -1    9.48   15.24
 -11  -2   0   41.40   18.54
 -11  -2   0   60.70   20.07
 -11  -2   0   19.47   16.34
 -11  -2   0   17.86   15.32
 -11  -2   0   36.49   15.83
  11   2   0   16.51   14.56
  11   2   0   43.35   18.03
  11   2   0   21.42   13.80
  11   2   0   31.58   16.00
  11   2   0   20.83   18.03

_computing_structure_solution     'SHELXT 2014/4 (Sheldrick, 2014)'
;
_shelx_hkl_checksum              61209
loop_
_space_group_symop_operation_xyz
'x, y, z'
loop_
_atom_site_label
_atom_site_type_symbol
_atom_site_fract_x
_atom_site_fract_y
_atom_site_fract_z
_atom_site_U_iso_or_equiv
_atom_site_adp_type
_atom_site_occupancy
_atom_site_site_symmetry_order
_atom_site_calc_flag
_atom_site_refinement_flags_posn
_atom_site_refinement_flags_adp
P1 P 0.53730(9) 0.33626(10) 0.36630(9) 0.01481(19) Uani 1 1 d . .
P2 P 0.54937(9) 0.67201(9) 0.78747(9) 0.0154(2) Uani 1 1 d . .
O1 O 0.4286(3) 0.4020(3) 0.2690(3) 0.0202(6) Uani 1 1 d . .
O4 O 0.0687(3) 0.0058(3) 0.2448(3) 0.0233(6) Uani 1 1 d . .
O3 O 0.1744(3) 0.0689(4) 0.0627(3) 0.0238(6) Uani 1 1 d . .
O2 O 0.6726(3) 0.6052(3) 0.8715(3) 0.0211(6) Uani 1 1 d . .
O5 O 0.2778(3) 0.8133(3) 0.6219(3) 0.0223(6) Uani 1 1 d . .
O6 O 0.0393(3) 0.8491(4) 0.6905(3) 0.0287(6) Uani 1 1 d . .
C12 C 0.7467(4) 0.4031(4) 0.3638(4) 0.0181(8) Uani 1 1 d . .
C32 C 0.5455(4) 0.9865(4) 0.9410(4) 0.0159(7) Uani 1 1 d . .
H32 H 0.4944 0.9396 1.0020 0.019 Uiso 1 1 calc R U
C3 C 0.5053(4) 0.1160(4) 0.3227(4) 0.0148(7) Uani 1 1 d . .
C1 C 0.5145(4) 0.4062(4) 0.5510(4) 0.0175(7) Uani 1 1 d . .
H1A H 0.4061 0.3670 0.5618 0.021 Uiso 1 1 calc R U
H1B H 0.5911 0.3636 0.6104 0.021 Uiso 1 1 calc R U
C17 C 0.8770(4) 0.3945(5) 0.4655(4) 0.0229(8) Uani 1 1 d . .
H17 H 0.8584 0.3519 0.5410 0.028 Uiso 1 1 calc R U
C30 C 0.6573(4) 1.2243(4) 0.8827(4) 0.0182(7) Uani 1 1 d . .
H30 H 0.6791 1.3367 0.9028 0.022 Uiso 1 1 calc R U
C21 C 0.0613(5) 0.4887(5) 0.8946(4) 0.0264(9) Uani 1 1 d . .
H21 H -0.0349 0.4446 0.9153 0.032 Uiso 1 1 calc R U
C19 C 0.3436(4) 0.4893(5) 0.8902(4) 0.0216(8) Uani 1 1 d . .
H19 H 0.4381 0.4467 0.9112 0.026 Uiso 1 1 calc R U
C31 C 0.5773(4) 1.1534(4) 0.9692(4) 0.0207(7) Uani 1 1 d . .
H31 H 0.5443 1.2182 1.0476 0.025 Uiso 1 1 calc R U
C9 C 0.2051(4) 0.0929(4) 0.2121(4) 0.0174(7) Uani 1 1 d . .
H9 H 0.2175 0.2084 0.2614 0.021 Uiso 1 1 calc R U
C24 C 0.2001(4) 0.8298(5) 0.7413(4) 0.0203(7) Uani 1 1 d . .
H24 H 0.2525 0.9271 0.8157 0.024 Uiso 1 1 calc R U
C23 C 0.2053(4) 0.6834(5) 0.7988(4) 0.0190(7) Uani 1 1 d . .
C13 C 0.7765(5) 0.4740(5) 0.2546(4) 0.0234(8) Uani 1 1 d . .
H13 H 0.6907 0.4839 0.1879 0.028 Uiso 1 1 calc R U
C5 C 0.6185(5) -0.1319(5) 0.3216(4) 0.0226(8) Uani 1 1 d . .
H5 H 0.7060 -0.1828 0.3464 0.027 Uiso 1 1 calc R U
C20 C 0.2009(5) 0.4243(5) 0.9234(5) 0.0301(9) Uani 1 1 d . .
H20 H 0.1998 0.3380 0.9648 0.036 Uiso 1 1 calc R U
C4 C 0.6343(4) 0.0344(5) 0.3558(4) 0.0203(7) Uani 1 1 d . .
H4 H 0.7339 0.0946 0.4024 0.024 Uiso 1 1 calc R U
C7 C 0.3423(4) -0.1455(4) 0.2158(4) 0.0193(7) Uani 1 1 d . .
H7 H 0.2439 -0.2066 0.1671 0.023 Uiso 1 1 calc R U
C27 C 0.5900(4) 0.8881(4) 0.8207(4) 0.0142(7) Uani 1 1 d . .
C28 C 0.6704(4) 0.9608(4) 0.7337(4) 0.0185(7) Uani 1 1 d . .
H28 H 0.7010 0.8968 0.6537 0.022 Uiso 1 1 calc R U
C22 C 0.0635(4) 0.6189(5) 0.8349(4) 0.0237(8) Uani 1 1 d . .
H22 H -0.0308 0.6637 0.8186 0.028 Uiso 1 1 calc R U
C6 C 0.4708(5) -0.2241(5) 0.2497(4) 0.0209(8) Uani 1 1 d . .
H6 H 0.4591 -0.3367 0.2251 0.025 Uiso 1 1 calc R U
C15 C 1.0633(5) 0.5148(5) 0.3448(5) 0.0333(10) Uani 1 1 d . .
H15 H 1.1691 0.5491 0.3371 0.040 Uiso 1 1 calc R U
C8 C 0.3559(4) 0.0218(4) 0.2524(4) 0.0160(7) Uani 1 1 d . .
C29 C 0.7055(4) 1.1278(4) 0.7650(4) 0.0201(7) Uani 1 1 d . .
H29 H 0.7615 1.1754 0.7072 0.024 Uiso 1 1 calc R U
C2 C 0.5441(4) 0.5919(4) 0.5985(4) 0.0189(8) Uani 1 1 d . .
H2A H 0.4591 0.6330 0.5463 0.023 Uiso 1 1 calc R U
H2B H 0.6462 0.6302 0.5747 0.023 Uiso 1 1 calc R U
C18 C 0.3483(4) 0.6166(4) 0.8263(4) 0.0166(7) Uani 1 1 d . .
C16 C 1.0341(5) 0.4491(5) 0.4544(5) 0.0303(9) Uani 1 1 d . .
H16 H 1.1202 0.4411 0.5216 0.036 Uiso 1 1 calc R U
C26 C 0.2246(5) 0.9356(6) 0.5599(5) 0.0339(10) Uani 1 1 d . .
H26A H 0.2227 0.9057 0.4579 0.041 Uiso 1 1 calc R U
H26B H 0.2944 1.0383 0.6021 0.041 Uiso 1 1 calc R U
C25 C 0.0556(5) 0.9458(7) 0.5927(5) 0.0420(12) Uani 1 1 d . .
H25A H 0.0431 1.0572 0.6354 0.050 Uiso 1 1 calc R U
H25B H -0.0248 0.9035 0.5067 0.050 Uiso 1 1 calc R U
C10 C 0.0049(4) 0.0725(5) 0.0292(4) 0.0261(8) Uani 1 1 d . .
H10A H -0.0383 0.0131 -0.0688 0.031 Uiso 1 1 calc R U
H10B H -0.0182 0.1829 0.0444 0.031 Uiso 1 1 calc R U
C14 C 0.9360(5) 0.5303(5) 0.2460(5) 0.0321(10) Uani 1 1 d . .
H14 H 0.9561 0.5780 0.1737 0.039 Uiso 1 1 calc R U
C11 C -0.0640(5) -0.0087(7) 0.1314(5) 0.0387(12) Uani 1 1 d . .
H11A H -0.1511 0.0448 0.1672 0.046 Uiso 1 1 calc R U
H11B H -0.1055 -0.1218 0.0852 0.046 Uiso 1 1 calc R U
loop_
_atom_site_aniso_label
_atom_site_aniso_U_11
_atom_site_aniso_U_22
_atom_site_aniso_U_33
_atom_site_aniso_U_23
_atom_site_aniso_U_13
_atom_site_aniso_U_12
P1 0.0146(4) 0.0139(4) 0.0148(4) 0.0010(3) 0.0039(3) 0.0019(3)
P2 0.0148(4) 0.0151(5) 0.0161(5) 0.0015(4) 0.0065(3) 0.0020(3)
O1 0.0197(12) 0.0164(13) 0.0244(15) 0.0062(11) 0.0025(11) 0.0026(10)
O4 0.0147(11) 0.0354(15) 0.0203(14) 0.0089(12) 0.0049(10) -0.0007(10)
O3 0.0193(12) 0.0387(16) 0.0169(13) 0.0105(12) 0.0060(10) 0.0081(11)
O2 0.0162(12) 0.0201(14) 0.0281(16) 0.0067(12) 0.0061(11) 0.0035(10)
O5 0.0240(12) 0.0303(14) 0.0163(13) 0.0081(11) 0.0082(10) 0.0089(11)
O6 0.0205(13) 0.0452(18) 0.0244(15) 0.0114(13) 0.0058(11) 0.0139(12)
C12 0.0191(17) 0.0157(18) 0.0166(18) -0.0030(14) 0.0082(14) 0.0004(14)
C32 0.0174(15) 0.0185(17) 0.0119(16) 0.0033(14) 0.0047(12) 0.0014(13)
C3 0.0206(17) 0.0123(17) 0.0122(17) 0.0028(14) 0.0054(13) 0.0035(13)
C1 0.0209(16) 0.0123(17) 0.0188(18) -0.0002(14) 0.0088(13) 0.0035(13)
C17 0.0197(17) 0.0236(19) 0.022(2) -0.0013(16) 0.0040(15) 0.0030(14)
C30 0.0178(16) 0.0144(17) 0.0194(19) 0.0015(14) -0.0004(14) 0.0010(13)
C21 0.0197(18) 0.032(2) 0.024(2) 0.0006(17) 0.0105(15) -0.0072(16)
C19 0.0222(18) 0.021(2) 0.023(2) 0.0061(16) 0.0071(15) 0.0031(15)
C31 0.0226(17) 0.0196(18) 0.0168(18) -0.0011(15) 0.0044(14) 0.0020(14)
C9 0.0166(15) 0.0195(17) 0.0147(17) 0.0031(14) 0.0033(13) -0.0018(13)
C24 0.0178(16) 0.028(2) 0.0147(17) 0.0022(15) 0.0054(13) 0.0075(14)
C23 0.0177(16) 0.0279(19) 0.0076(16) -0.0016(14) 0.0012(12) 0.0025(14)
C13 0.0263(19) 0.020(2) 0.021(2) -0.0015(16) 0.0082(16) -0.0003(15)
C5 0.0251(18) 0.0223(19) 0.0215(19) 0.0055(16) 0.0029(15) 0.0104(15)
C20 0.033(2) 0.026(2) 0.031(2) 0.0072(18) 0.0136(18) -0.0045(17)
C4 0.0176(15) 0.0246(19) 0.0169(18) 0.0043(15) -0.0014(13) 0.0040(14)
C7 0.0196(16) 0.0205(18) 0.0167(18) 0.0025(15) 0.0061(14) -0.0011(14)
C27 0.0123(15) 0.0147(17) 0.0143(17) 0.0015(14) 0.0021(13) 0.0020(13)
C28 0.0170(15) 0.0235(18) 0.0141(17) 0.0020(14) 0.0051(13) 0.0033(13)
C22 0.0153(16) 0.036(2) 0.0162(18) 0.0008(16) 0.0022(14) 0.0013(15)
C6 0.0294(19) 0.0153(18) 0.0181(19) 0.0032(15) 0.0071(15) 0.0031(14)
C15 0.0223(19) 0.030(2) 0.039(3) -0.009(2) 0.0155(18) -0.0037(17)
C8 0.0174(15) 0.0214(18) 0.0099(16) 0.0048(14) 0.0049(12) 0.0019(13)
C29 0.0178(16) 0.0233(19) 0.0215(19) 0.0078(16) 0.0074(14) 0.0032(14)
C2 0.0236(18) 0.0174(19) 0.0174(18) 0.0030(15) 0.0109(14) 0.0039(14)
C18 0.0160(15) 0.0186(18) 0.0125(17) -0.0008(14) 0.0047(13) -0.0007(13)
C16 0.0166(17) 0.031(2) 0.033(2) -0.0075(19) 0.0001(16) 0.0022(15)
C26 0.034(2) 0.046(3) 0.030(2) 0.017(2) 0.0127(18) 0.017(2)
C25 0.031(2) 0.065(3) 0.042(3) 0.028(3) 0.0098(19) 0.022(2)
C10 0.0170(16) 0.038(2) 0.021(2) 0.0048(17) -0.0001(14) 0.0049(16)
C14 0.036(2) 0.027(2) 0.032(2) -0.0004(18) 0.0203(19) -0.0028(18)
C11 0.0172(19) 0.066(3) 0.037(3) 0.026(3) 0.0003(18) -0.001(2)
loop_
_atom_type_symbol
_atom_type_description
_atom_type_scat_dispersion_real
_atom_type_scat_dispersion_imag
_atom_type_scat_source
C C 0.0033 0.0016 'International Tables Vol C Tables 4.2.6.8 and 6.1.1.4'
H H 0.0000 0.0000 'International Tables Vol C Tables 4.2.6.8 and 6.1.1.4'
O O 0.0106 0.0060 'International Tables Vol C Tables 4.2.6.8 and 6.1.1.4'
P P 0.1023 0.0942 'International Tables Vol C Tables 4.2.6.8 and 6.1.1.4'
loop_
_geom_angle_atom_site_label_1
_geom_angle_atom_site_label_2
_geom_angle_atom_site_label_3
_geom_angle
O1 P1 C12 110.66(17)
O1 P1 C1 112.99(17)
C12 P1 C1 105.09(17)
O1 P1 C3 113.11(16)
C12 P1 C3 108.29(16)
C1 P1 C3 106.24(17)
O2 P2 C27 113.07(15)
O2 P2 C2 110.79(16)
C27 P2 C2 105.62(17)
O2 P2 C18 110.00(16)
C27 P2 C18 109.02(16)
C2 P2 C18 108.14(17)
C9 O4 C11 106.8(3)
C9 O3 C10 104.3(3)
C24 O5 C26 103.2(3)
C24 O6 C25 104.6(3)
C13 C12 C17 119.0(3)
C13 C12 P1 116.3(3)
C17 C12 P1 124.6(3)
C31 C32 C27 120.1(3)
C31 C32 H32 120.0
C27 C32 H32 120.0
C4 C3 C8 117.7(3)
C4 C3 P1 119.4(3)
C8 C3 P1 122.8(3)
C2 C1 P1 109.9(2)
C2 C1 H1A 109.7
P1 C1 H1A 109.7
C2 C1 H1B 109.7
P1 C1 H1B 109.7
H1A C1 H1B 108.2
C16 C17 C12 120.3(4)
C16 C17 H17 119.8
C12 C17 H17 119.8
C31 C30 C29 119.8(3)
C31 C30 H30 120.1
C29 C30 H30 120.1
C20 C21 C22 120.3(3)
C20 C21 H21 119.8
C22 C21 H21 119.8
C20 C19 C18 121.5(4)
C20 C19 H19 119.2
C18 C19 H19 119.2
C30 C31 C32 120.6(3)
C30 C31 H31 119.7
C32 C31 H31 119.7
O3 C9 O4 105.8(3)
O3 C9 C8 108.9(3)
O4 C9 C8 109.6(3)
O3 C9 H9 110.8
O4 C9 H9 110.8
C8 C9 H9 110.8
O5 C24 O6 104.7(3)
O5 C24 C23 111.0(3)
O6 C24 C23 111.9(3)
O5 C24 H24 109.7
O6 C24 H24 109.7
C23 C24 H24 109.7
C22 C23 C18 119.2(3)
C22 C23 C24 117.7(3)
C18 C23 C24 123.0(3)
C12 C13 C14 119.8(4)
C12 C13 H13 120.1
C14 C13 H13 120.1
C4 C5 C6 119.8(3)
C4 C5 H5 120.1
C6 C5 H5 120.1
C21 C20 C19 119.4(4)
C21 C20 H20 120.3
C19 C20 H20 120.3
C5 C4 C3 122.0(3)
C5 C4 H4 119.0
C3 C4 H4 119.0
C6 C7 C8 121.7(3)
C6 C7 H7 119.2
C8 C7 H7 119.2
C28 C27 C32 118.9(3)
C28 C27 P2 121.9(3)
C32 C27 P2 119.2(3)
C29 C28 C27 120.6(3)
C29 C28 H28 119.7
C27 C28 H28 119.7
C21 C22 C23 120.8(3)
C21 C22 H22 119.6
C23 C22 H22 119.6
C7 C6 C5 118.9(3)
C7 C6 H6 120.5
C5 C6 H6 120.5
C16 C15 C14 120.3(3)
C16 C15 H15 119.9
C14 C15 H15 119.9
C7 C8 C3 119.8(3)
C7 C8 C9 116.5(3)
C3 C8 C9 123.7(3)
C28 C29 C30 120.1(3)
C28 C29 H29 120.0
C30 C29 H29 120.0
C1 C2 P2 112.9(2)
C1 C2 H2A 109.0
P2 C2 H2A 109.0
C1 C2 H2B 109.0
P2 C2 H2B 109.0
H2A C2 H2B 107.8
C19 C18 C23 118.7(3)
C19 C18 P2 112.2(3)
C23 C18 P2 129.1(3)
C15 C16 C17 120.5(4)
C15 C16 H16 119.8
C17 C16 H16 119.8
O5 C26 C25 104.1(3)
O5 C26 H26A 110.9
C25 C26 H26A 110.9
O5 C26 H26B 110.9
C25 C26 H26B 110.9
H26A C26 H26B 108.9
O6 C25 C26 105.0(3)
O6 C25 H25A 110.8
C26 C25 H25A 110.8
O6 C25 H25B 110.8
C26 C25 H25B 110.8
H25A C25 H25B 108.8
O3 C10 C11 103.2(3)
O3 C10 H10A 111.1
C11 C10 H10A 111.1
O3 C10 H10B 111.1
C11 C10 H10B 111.1
H10A C10 H10B 109.1
C15 C14 C13 120.0(4)
C15 C14 H14 120.0
C13 C14 H14 120.0
O4 C11 C10 105.2(3)
O4 C11 H11A 110.7
C10 C11 H11A 110.7
O4 C11 H11B 110.7
C10 C11 H11B 110.7
H11A C11 H11B 108.8
loop_
_geom_bond_atom_site_label_1
_geom_bond_atom_site_label_2
_geom_bond_distance
P1 O1 1.483(3)
P1 C12 1.805(4)
P1 C1 1.812(4)
P1 C3 1.819(4)
P2 O2 1.486(3)
P2 C27 1.793(4)
P2 C2 1.808(4)
P2 C18 1.832(3)
O4 C9 1.426(4)
O4 C11 1.434(5)
O3 C9 1.413(4)
O3 C10 1.426(4)
O5 C24 1.409(4)
O5 C26 1.419(5)
O6 C24 1.418(4)
O6 C25 1.429(5)
C12 C13 1.398(5)
C12 C17 1.397(5)
C32 C31 1.383(5)
C32 C27 1.400(5)
C32 H32 0.9300
C3 C4 1.398(5)
C3 C8 1.408(5)
C1 C2 1.532(4)
C1 H1A 0.9700
C1 H1B 0.9700
C17 C16 1.387(5)
C17 H17 0.9300
C30 C31 1.373(5)
C30 C29 1.388(5)
C30 H30 0.9300
C21 C20 1.376(6)
C21 C22 1.386(6)
C21 H21 0.9300
C19 C20 1.389(5)
C19 C18 1.390(5)
C19 H19 0.9300
C31 H31 0.9300
C9 C8 1.513(5)
C9 H9 0.9800
C24 C23 1.504(5)
C24 H24 0.9800
C23 C22 1.394(5)
C23 C18 1.410(5)
C13 C14 1.403(5)
C13 H13 0.9300
C5 C4 1.374(5)
C5 C6 1.395(5)
C5 H5 0.9300
C20 H20 0.9300
C4 H4 0.9300
C7 C6 1.380(5)
C7 C8 1.383(5)
C7 H7 0.9300
C27 C28 1.386(5)
C28 C29 1.383(5)
C28 H28 0.9300
C22 H22 0.9300
C6 H6 0.9300
C15 C16 1.374(7)
C15 C14 1.382(7)
C15 H15 0.9300
C29 H29 0.9300
C2 H2A 0.9700
C2 H2B 0.9700
C16 H16 0.9300
C26 C25 1.512(6)
C26 H26A 0.9700
C26 H26B 0.9700
C25 H25A 0.9700
C25 H25B 0.9700
C10 C11 1.503(6)
C10 H10A 0.9700
C10 H10B 0.9700
C14 H14 0.9300
C11 H11A 0.9700
C11 H11B 0.9700
loop_
_geom_torsion_atom_site_label_1
_geom_torsion_atom_site_label_2
_geom_torsion_atom_site_label_3
_geom_torsion_atom_site_label_4
_geom_torsion
O1 P1 C12 C13 -12.7(3)
C1 P1 C12 C13 -135.0(3)
C3 P1 C12 C13 111.8(3)
O1 P1 C12 C17 164.5(3)
C1 P1 C12 C17 42.3(4)
C3 P1 C12 C17 -71.0(3)
O1 P1 C3 C4 151.3(3)
C12 P1 C3 C4 28.3(3)
C1 P1 C3 C4 -84.1(3)
O1 P1 C3 C8 -26.8(3)
C12 P1 C3 C8 -149.8(3)
C1 P1 C3 C8 97.8(3)
O1 P1 C1 C2 -57.0(3)
C12 P1 C1 C2 63.8(3)
C3 P1 C1 C2 178.5(2)
C13 C12 C17 C16 -2.8(5)
P1 C12 C17 C16 -180.0(3)
C29 C30 C31 C32 0.5(5)
C27 C32 C31 C30 -2.1(5)
C10 O3 C9 O4 38.0(4)
C10 O3 C9 C8 155.8(3)
C11 O4 C9 O3 -23.9(4)
C11 O4 C9 C8 -141.1(3)
C26 O5 C24 O6 43.9(4)
C26 O5 C24 C23 164.8(3)
C25 O6 C24 O5 -37.5(4)
C25 O6 C24 C23 -157.8(4)
O5 C24 C23 C22 -135.4(3)
O6 C24 C23 C22 -18.8(4)
O5 C24 C23 C18 48.9(5)
O6 C24 C23 C18 165.6(3)
C17 C12 C13 C14 2.1(5)
P1 C12 C13 C14 179.5(3)
C22 C21 C20 C19 -1.0(6)
C18 C19 C20 C21 -1.0(6)
C6 C5 C4 C3 1.0(6)
C8 C3 C4 C5 0.1(5)
P1 C3 C4 C5 -178.1(3)
C31 C32 C27 C28 1.9(5)
C31 C32 C27 P2 179.3(3)
O2 P2 C27 C28 95.8(3)
C2 P2 C27 C28 -25.5(3)
C18 P2 C27 C28 -141.5(3)
O2 P2 C27 C32 -81.5(3)
C2 P2 C27 C32 157.2(3)
C18 P2 C27 C32 41.2(3)
C32 C27 C28 C29 -0.2(5)
P2 C27 C28 C29 -177.5(3)
C20 C21 C22 C23 2.1(6)
C18 C23 C22 C21 -1.2(5)
C24 C23 C22 C21 -177.0(4)
C8 C7 C6 C5 -0.6(5)
C4 C5 C6 C7 -0.8(5)
C6 C7 C8 C3 1.8(5)
C6 C7 C8 C9 -178.6(3)
C4 C3 C8 C7 -1.5(5)
P1 C3 C8 C7 176.6(3)
C4 C3 C8 C9 178.9(3)
P1 C3 C8 C9 -3.0(4)
O3 C9 C8 C7 -71.6(4)
O4 C9 C8 C7 43.7(4)
O3 C9 C8 C3 108.0(3)
O4 C9 C8 C3 -136.7(3)
C27 C28 C29 C30 -1.3(5)
C31 C30 C29 C28 1.2(5)
P1 C1 C2 P2 -172.6(2)
O2 P2 C2 C1 55.8(3)
C27 P2 C2 C1 178.6(2)
C18 P2 C2 C1 -64.8(3)
C20 C19 C18 C23 1.9(6)
C20 C19 C18 P2 -177.5(3)
C22 C23 C18 C19 -0.8(5)
C24 C23 C18 C19 174.9(3)
C22 C23 C18 P2 178.5(3)
C24 C23 C18 P2 -5.9(5)
O2 P2 C18 C19 -17.4(3)
C27 P2 C18 C19 -142.0(3)
C2 P2 C18 C19 103.7(3)
O2 P2 C18 C23 163.3(3)
C27 P2 C18 C23 38.8(4)
C2 P2 C18 C23 -75.6(4)
C14 C15 C16 C17 1.3(6)
C12 C17 C16 C15 1.1(6)
C24 O5 C26 C25 -32.1(4)
C24 O6 C25 C26 16.5(5)
O5 C26 C25 O6 9.6(5)
C9 O3 C10 C11 -36.2(4)
C16 C15 C14 C13 -2.0(6)
C12 C13 C14 C15 0.3(6)
C9 O4 C11 C10 1.2(5)
O3 C10 C11 O4 21.4(5)
