#------------------------------------------------------------------------------
#$Date: 2016-03-04 14:00:15 +0200 (Fri, 04 Mar 2016) $
#$Revision: 177520 $
#$URL: svn://www.crystallography.net/cod/cif/1/54/24/1542472.cif $
#------------------------------------------------------------------------------
#
# This file is available in the Crystallography Open Database (COD),
# http://www.crystallography.net/
#
# All data on this site have been placed in the public domain by the
# contributors.
#
data_1542472
loop_
_publ_author_name
'Wang, Yi'
'Stoeckli-Evans, Helen'
_publ_section_title
;
 Tetraethyl pyrazine-2,3,5,6-tetracarboxylate
;
_journal_issue                   1
_journal_name_full               IUCrData
_journal_page_first              x152174
_journal_paper_doi               10.1107/S2414314615021744
_journal_volume                  1
_journal_year                    2016
_chemical_formula_iupac          'C16 H20 N2 O8'
_chemical_formula_moiety         'C16 H20 N2 O8'
_chemical_formula_sum            'C16 H20 N2 O8'
_chemical_formula_weight         368.34
_chemical_name_systematic
;
Tetraethyl pyrazine-2,3,5,6-tetracarboxylate
;
_space_group_crystal_system      triclinic
_space_group_IT_number           2
_space_group_name_Hall           '-P 1'
_space_group_name_H-M_alt        'P -1'
_symmetry_space_group_name_Hall  '-P 1'
_symmetry_space_group_name_H-M   'P -1'
_atom_sites_solution_hydrogens   geom
_audit_creation_method           SHELXL-2014/6
_cell_angle_alpha                81.285(11)
_cell_angle_beta                 82.771(11)
_cell_angle_gamma                77.208(11)
_cell_formula_units_Z            1
_cell_length_a                   5.4194(8)
_cell_length_b                   9.0619(12)
_cell_length_c                   9.4607(13)
_cell_measurement_reflns_used    4119
_cell_measurement_temperature    293(2)
_cell_measurement_theta_max      29.54
_cell_measurement_theta_min      2.18
_cell_volume                     445.80(11)
_computing_cell_refinement
;
X-Area (Stoe & Cie, 2009)
;
_computing_data_collection
;
X-Area (Stoe & Cie, 2009)
;
_computing_data_reduction
;
X-RED32 (Stoe & Cie, 2009)
;
_computing_molecular_graphics
;
PLATON (Spek, 2009) and Mercury (Macrae <i>et al.</i>,  2008)
;
_computing_publication_material
;
<i>SHELXL2014/6</i> (Sheldrick, 2015), PLATON (Spek, 2009) and
publcif (Westrip, 2010)
;
_computing_structure_refinement
;
<i>SHELXL2014/6</i> (Sheldrick, 2015)
;
_computing_structure_solution
;
<i>SHELXS2014/6</i> (Sheldrick, 2008)
;
_diffrn_ambient_temperature      293(2)
_diffrn_measured_fraction_theta_full 1.000
_diffrn_measured_fraction_theta_max 0.998
_diffrn_measurement_device       '2-circle goniometer'
_diffrn_measurement_device_type  'STOE IPDS 2'
_diffrn_measurement_method       '\f + \w scans'
_diffrn_radiation_monochromator  'plane graphite'
_diffrn_radiation_source         'fine-focus sealed tube'
_diffrn_radiation_type           MoK\a
_diffrn_radiation_wavelength     0.71073
_diffrn_reflns_av_R_equivalents  0.0777
_diffrn_reflns_limit_h_max       7
_diffrn_reflns_limit_h_min       -7
_diffrn_reflns_limit_k_max       12
_diffrn_reflns_limit_k_min       -12
_diffrn_reflns_limit_l_max       12
_diffrn_reflns_limit_l_min       -12
_diffrn_reflns_number            6815
_diffrn_reflns_theta_full        25.242
_diffrn_reflns_theta_max         29.224
_diffrn_reflns_theta_min         2.188
_exptl_absorpt_coefficient_mu    0.111
_exptl_absorpt_correction_T_max  1.000
_exptl_absorpt_correction_T_min  0.6503
_exptl_absorpt_correction_type   multi-scan
_exptl_absorpt_process_details
;
(MULABS; Spek, 2009)
;
_exptl_crystal_colour            colourless
_exptl_crystal_density_diffrn    1.372
_exptl_crystal_description       plate
_exptl_crystal_F_000             194
_exptl_crystal_size_max          0.31
_exptl_crystal_size_mid          0.27
_exptl_crystal_size_min          0.07
_refine_diff_density_max         0.263
_refine_diff_density_min         -0.210
_refine_ls_extinction_coef       0.054(10)
_refine_ls_extinction_expression Fc^*^=kFc[1+0.001xFc^2^\l^3^/sin(2\q)]^-1/4^
_refine_ls_extinction_method     SHELXL
_refine_ls_goodness_of_fit_ref   0.857
_refine_ls_hydrogen_treatment    constr
_refine_ls_matrix_type           full
_refine_ls_number_parameters     121
_refine_ls_number_reflns         2408
_refine_ls_number_restraints     0
_refine_ls_restrained_S_all      0.857
_refine_ls_R_factor_all          0.0837
_refine_ls_R_factor_gt           0.0492
_refine_ls_shift/su_max          0.000
_refine_ls_shift/su_mean         0.000
_refine_ls_structure_factor_coef Fsqd
_refine_ls_weighting_details
'w=1/[\s^2^(Fo^2^)+(0.0654P)^2^] where P=(Fo^2^+2Fc^2^)/3'
_refine_ls_weighting_scheme      calc
_refine_ls_wR_factor_gt          0.1137
_refine_ls_wR_factor_ref         0.1239
_reflns_number_gt                1414
_reflns_number_total             2408
_reflns_threshold_expression     'I > 2\s(I)'
_cod_data_source_file            sj4001sup1.cif
_cod_data_source_block           I
_cod_depositor_comments          'Adding full bibliography for 1542472.cif.'
_cod_database_code               1542472
_cod_database_fobs_code          1542472
_shelx_space_group_comment
;
The symmetry employed for this shelxl refinement is uniquely defined
by the following loop, which should always be used as a source of
symmetry information in preference to the above space-group names.
They are only intended as comments.
;
_shelx_hkl_file
;
   7   5  -1    4.71    4.70
  -7  -5   1    5.09    5.07
  -7  -4   1    5.19    4.87
   7   4  -1    2.63    6.26
  -7  -4   2   -2.24    7.32
   7   4  -2    2.46    4.69
  -7  -3   1   10.80    5.13
   7   3  -1   12.08    6.35
  -7  -3   2   43.73    7.47
   7   3  -2   30.77    4.72
  -7  -2   1    2.91    7.33
   7   2  -1    6.68    6.19
  -7  -2   2    6.85    7.47
   7   2  -2    0.68    6.29
  -7  -1   1    0.36    5.21
   7   1  -1    5.08    4.56
  -7  -1   1   -2.32    7.60
   7   1  -2    3.70    6.34
  -7  -1   2   -1.25    7.64
  -7  -1   2   -2.10    7.48
  -7   0   1   -3.55    5.47
  -7   0   1    7.15    7.53
   7   0  -1   12.56    6.66
  -7   0   2    3.00    7.64
   7   0  -2   -3.61    6.57
  -7   1   0    4.01    5.36
   7  -1   0    5.07    4.91
  -7   1   0    4.19    5.55
  -6  -8   1    0.83    4.73
   6   8  -1    5.32    4.99
  -6  -8   1    6.03    6.54
  -6  -8   2   -0.38    5.20
   6   8  -2    3.94    7.34
  -6  -8   2    2.82    4.39
   6   7  -1   15.73    6.66
  -6  -7   1   17.58    6.27
  -6  -7   1   11.42    6.14
   6   7  -2    1.64    6.84
  -6  -7   2    2.35    6.08
  -6  -7   2    4.13    6.56
  -6  -7   3    1.25    6.27
  -6  -7   3    0.00    6.46
   6   7  -3    0.63    7.03
  -6  -6   1    0.91    4.16
   6   6  -1   -0.78    4.46
  -6  -6   1    6.66    5.93
  -6  -6   2   -1.59    6.11
   6   6  -2    1.65    4.61
  -6  -6   2   -4.27    6.06
   6   6  -3    1.74    4.61
  -6  -6   3    6.04    6.04
  -6  -6   3    1.08    6.05
  -6  -6   4   -1.17    4.46
   6   6  -4    1.71    4.81
  -6  -6   4   -0.75    6.34
   6   5  -1    6.88    4.04
  -6  -5   1    4.50    3.99
   6   5  -2   -0.77    4.06
  -6  -5   2    0.99    5.73
  -6  -5   3    0.84    5.62
   6   5  -3    1.85    4.16
   6   5  -4    2.24    4.55
  -6  -5   4    4.12    5.83
   6   5  -5    1.23    4.73
  -6  -5   5   -2.41    6.07
  -6  -4   1   44.42    6.00
   6   4  -1   42.56    5.72
   6   4  -2   19.00    5.68
  -6  -4   2   27.90    5.88
  -6  -4   3    9.12    4.09
   6   4  -3    6.38    5.73
   6   4  -4    4.77    6.13
  -6  -4   4    5.11    5.66
   6   4  -5    0.20    6.28
  -6  -4   5    1.00    4.01
   6   3  -1   -0.22    3.84
  -6  -3   1   -0.50    6.01
   6   3  -2   -0.33    3.87
  -6  -3   2    0.53    4.24
  -6  -3   3   10.92    5.53
   6   3  -3    7.84    5.46
   6   3  -4    2.95    5.67
  -6  -3   4    2.08    5.73
  -6  -3   5   -0.14    5.88
   6   3  -5   -0.26    4.17
  -6  -3   6   29.96    6.40
   6   2  -1    4.55    5.35
  -6  -2   1    8.44    6.12
   6   2  -2   17.65    5.31
  -6  -2   2   20.34    6.31
   6   2  -3   24.60    5.30
  -6  -2   3   22.81    4.39
   6   2  -4    1.34    3.90
  -6  -2   4    2.69    4.22
  -6  -2   5   -3.41    6.09
  -6  -2   6   14.35    6.41
  -6  -2   6   12.74    4.56
   6   1  -1   14.94    5.27
  -6  -1   1   16.68    4.49
  -6  -1   2    1.75    6.18
   6   1  -2    4.56    3.75
   6   1  -3    0.82    5.26
  -6  -1   3   -0.21    4.28
   6   1  -4   29.94    5.63
  -6  -1   4   28.24    4.55
  -6  -1   5    7.15    6.19
  -6  -1   5    2.56    5.91
  -6  -1   6    9.98    4.53
  -6  -1   6   43.91    6.66
  -6   0   1   17.56    4.46
  -6   0   1   16.09    6.40
   6   0  -1   21.99    5.44
   6   0  -2   -2.24    5.54
  -6   0   2   -2.69    4.51
  -6   0   2   -3.87    6.31
  -6   0   3   -1.57    4.29
  -6   0   3   -2.35    6.30
   6   0  -3    0.63    3.86
  -6   0   4   35.97    4.63
  -6   0   4   49.98    5.97
  -6   0   4   59.80    6.50
  -6   0   5    6.86    6.37
  -6   0   5   18.29    6.36
  -6   0   5    4.04    4.20
  -6   0   6    1.43    4.71
  -6   0   6   -1.72    4.50
  -6   0   6   -1.20    6.60
   6  -1   0   25.04    5.78
  -6   1   0   29.09    6.60
  -6   1   0   24.13    4.50
   6  -1  -1   15.76    5.80
  -6   1   1   21.27    6.27
  -6   1   1   18.57    6.52
  -6   1   2    9.92    4.52
   6  -1  -2    4.67    5.88
  -6   1   2    6.29    6.17
  -6   1   3    1.96    6.25
  -6   1   3    3.50    4.57
  -6   1   3    1.42    4.30
  -6   1   4   15.88    4.64
  -6   1   4   20.12    6.44
  -6   1   4   19.66    6.29
  -6   1   5    2.80    6.44
  -6   1   5    4.39    6.53
  -6   1   5   -2.34    6.55
  -6   2   0    7.36    6.17
  -6   2   0    8.20    6.41
   6  -2   0    5.70    6.07
  -6   2   1   -0.94    6.11
  -6   2   1    1.25    6.46
  -6   2   2   -0.66    4.60
  -6   2   2    1.51    4.59
  -6   2   2    9.34    6.50
  -6   2   3   -1.85    6.16
  -6   2   3    8.28    6.69
  -6   2   3    1.94    6.58
  -6   2   4   -0.32    4.44
  -6   2   4    1.89    4.81
  -6   2   4    2.99    4.94
  -6   2   5    3.24    7.21
  -6   2   5    3.62    4.80
  -6   2   5    5.53    7.00
  -6   3   0    4.70    6.48
  -6   3   0    7.24    7.15
  -6   3   0    5.41    6.65
  -6   3   1    5.91    6.31
  -6   3   1    4.35    6.78
  -6   3   1    4.01    6.83
  -6   3   2    0.18    6.52
  -6   3   2    0.81    4.92
  -6   3   2    5.85    4.34
  -6   3   3   -2.20    6.69
  -6   3   3    0.66    5.09
  -6   3   3    2.42    4.49
  -6   3   4   -4.19    6.59
  -6   3   4    4.04    6.97
  -6   3   4   -0.95    5.34
  -6   4   0   11.06    7.14
  -6   4   0   11.95    8.05
  -6   4   0   14.50    6.73
  -6   4   1   15.27    6.59
  -6   4   1   16.53    7.45
  -6   4   1   17.60    7.67
  -6   4   2    1.13    7.63
  -6   4   2    3.45    7.33
  -6   4   2    4.58    6.49
  -6   4   3    1.58    7.17
  -6   4   3   -0.18    8.11
  -6   4   3   -5.95    6.69
   5  10  -1   14.50    7.24
  -5 -10   1   14.35    6.17
  -5 -10   1   20.77    5.59
  -5  -9   1    4.67    6.97
   5   9  -1   -2.73    6.76
  -5  -9   1   -2.75    4.04
   5   9  -2    0.17    6.93
  -5  -9   2   -0.97    5.84
  -5  -9   2    2.87    5.33
   5   9  -3   11.75    7.03
  -5  -9   3   13.74    5.94
  -5  -9   3    9.08    4.47
   5   8  -1    7.20    4.50
  -5  -8   1    6.48    4.55
  -5  -8   1    1.53    3.59
  -5  -8   2    6.67    5.39
  -5  -8   2   14.79    6.79
   5   8  -2    2.15    6.57
   5   8  -3    4.57    6.67
  -5  -8   3    8.99    7.36
  -5  -8   3    5.58    5.54
  -5  -8   4    5.29    4.34
  -5  -8   4    9.52    7.86
   5   8  -4   15.69    6.90
   5   7  -1   -1.79    4.19
  -5  -7   1    0.35    3.61
  -5  -7   1    3.33    5.81
   5   7  -2    3.07    6.08
  -5  -7   2    5.84    4.32
  -5  -7   2    8.78    5.10
  -5  -7   3    9.44    6.40
   5   7  -3   13.53    6.35
  -5  -7   3    6.04    5.14
  -5  -7   4    7.94    6.50
   5   7  -4    4.98    6.47
  -5  -7   4    1.51    4.16
   5   7  -5    1.09    6.54
  -5  -7   5    4.24    7.05
  -5  -7   5    1.25    4.35
  -5  -6   1   40.78    5.57
   5   6  -1   47.01    5.88
  -5  -6   1   32.08    5.28
  -5  -6   2   -2.63    5.62
  -5  -6   2    3.27    4.89
   5   6  -2    0.54    4.03
   5   6  -3    3.43    4.19
  -5  -6   3    2.95    3.96
  -5  -6   3    4.67    5.06
   5   6  -4    1.74    4.28
  -5  -6   4    2.08    4.13
  -5  -6   4    2.24    3.68
  -5  -6   5    0.89    6.12
   5   6  -5    3.69    6.14
  -5  -6   5   -2.00    4.32
   5   6  -6    3.84    6.57
  -5  -6   6    3.39    6.54
  -5  -6   6    1.59    6.36
   5   5  -1    3.23    5.11
  -5  -5   1    0.59    3.49
  -5  -5   2    7.74    5.19
   5   5  -2    5.60    3.71
  -5  -5   3    1.56    3.42
   5   5  -3   -0.84    4.03
   5   5  -4   19.26    4.00
  -5  -5   4   18.79    3.81
  -5  -5   5    8.41    5.34
   5   5  -5    9.29    5.80
  -5  -5   5    0.94    4.12
  -5  -5   6    2.92    5.71
  -5  -5   6    1.23    6.35
   5   5  -6    2.42    4.35
  -5  -5   7    2.53    4.41
  -5  -5   7    3.57    6.78
  -5  -5   7    2.17    4.89
   5   4  -1    2.26    3.50
  -5  -4   1    8.10    4.99
  -5  -4   2   19.86    3.57
   5   4  -2   18.06    3.61
   5   4  -3   -1.37    5.02
  -5  -4   3   -1.22    3.32
   5   4  -4   23.11    5.13
  -5  -4   4   13.12    3.66
   5   4  -5   13.76    5.59
  -5  -4   5   18.39    5.07
  -5  -4   6   49.50    5.54
  -5  -4   7   -1.34    4.45
  -5  -4   7    5.06    4.18
   5   3  -1   63.73    5.06
  -5  -3   1   55.71    3.80
  -5  -3   2    1.18    4.85
   5   3  -2    1.59    3.26
   5   3  -3    2.50    4.64
  -5  -3   3    1.91    4.67
   5   3  -4   -0.18    3.42
  -5  -3   4    7.65    4.69
   5   3  -5    8.32    5.14
  -5  -3   5    2.13    3.45
  -5  -3   6   27.09    3.74
  -5  -3   6   23.46    5.56
  -5  -3   7   10.74    6.07
  -5  -3   7   10.33    5.84
  -5  -3   8    8.95    6.51
  -5  -3   8    4.51    4.69
  -5  -2   1   58.57    5.31
   5   2  -1   58.78    4.94
  -5  -2   2   54.34    5.29
   5   2  -2   47.41    3.47
  -5  -2   3   -0.20    4.85
   5   2  -3    2.19    4.46
  -5  -2   4    1.87    4.79
   5   2  -4    4.62    4.64
   5   2  -5   47.61    3.74
  -5  -2   5   57.64    5.04
  -5  -2   6   64.02    5.45
  -5  -2   6   61.42    5.60
  -5  -2   7    7.84    5.64
  -5  -2   7    3.97    5.91
  -5  -2   8   -2.90    4.64
  -5  -2   8    1.42    6.30
  -5  -1   1    2.47    3.82
   5   1  -1    1.91    3.16
  -5  -1   2   63.74    4.02
   5   1  -2   67.87    4.91
  -5  -1   3   70.69    4.22
   5   1  -3   63.43    5.02
   5   1  -4   65.17    4.95
  -5  -1   4   67.79    5.35
  -5  -1   5    9.22    3.51
  -5  -1   5    9.43    4.93
  -5  -1   6    3.90    3.65
  -5  -1   6    1.33    3.82
  -5  -1   7    9.94    5.69
  -5  -1   7   12.64    5.71
  -5  -1   8   10.64    6.29
  -5  -1   8    3.44    4.48
  -5   0   1   15.44    3.80
   5   0  -1   16.13    4.65
  -5   0   2   23.41    5.43
   5   0  -2   27.34    4.70
   5   0  -3   40.15    4.96
  -5   0   3   56.41    5.52
  -5   0   4   15.30    3.83
  -5   0   5    9.11    5.42
  -5   0   5    6.79    5.16
  -5   0   6    0.37    3.75
  -5   0   6    4.07    5.60
  -5   0   7   23.48    6.25
  -5   0   7   19.05    5.79
  -5   0   7   14.69    4.17
  -5   0   8    5.89    6.42
  -5   0   8    8.50    6.43
  -5   0   8   -1.57    6.92
  -5   1   0    5.88    5.48
  -5   1   0   -1.02    5.09
   5  -1   0    5.20    3.50
   5  -1  -1    9.12    3.64
  -5   1   1   11.76    5.47
  -5   1   1   14.31    4.95
  -5   1   2    4.29    3.96
  -5   1   2    8.93    4.98
   5  -1  -2    7.08    5.07
  -5   1   3   72.59    5.81
  -5   1   3   39.34    3.79
  -5   1   4    6.99    5.02
  -5   1   4    3.73    5.49
  -5   1   4    2.11    5.24
  -5   1   5    3.32    3.93
  -5   1   5    4.27    5.37
  -5   1   5    9.48    5.58
  -5   1   6    5.72    5.70
  -5   1   6   10.10    5.77
  -5   1   6    1.22    4.04
  -5   1   7    9.03    6.21
  -5   1   7    4.07    6.03
  -5   1   7    0.63    4.53
  -5   1   8   -0.30    6.44
  -5   1   8    5.51    7.12
  -5   1   8   -2.44    4.56
  -5   2   0   79.69    6.37
  -5   2   0   47.12    4.42
   5  -2   0   71.87    5.99
  -5   2   1    9.25    5.11
   5  -2  -1    6.94    3.92
  -5   2   1   11.22    5.62
  -5   2   2    0.33    3.96
  -5   2   2    2.24    3.90
  -5   2   2   -2.61    4.89
  -5   2   3   62.83    5.59
  -5   2   3   38.46    4.20
  -5   2   3   58.78    5.89
  -5   2   4    3.34    3.63
  -5   2   4    0.81    4.09
  -5   2   4   -1.28    3.94
  -5   2   5   13.31    5.98
  -5   2   5   10.49    3.93
  -5   2   5   10.91    5.81
  -5   2   6    0.58    6.09
  -5   2   6   -5.17    6.03
  -5   2   6   -0.17    4.13
  -5   2   7    5.67    6.79
  -5   2   7    3.88    4.44
  -5   2   7    6.79    6.24
  -5   3   0   51.16    5.75
  -5   3   0   55.07    6.40
  -5   3   1   14.68    5.89
  -5   3   1    9.84    5.25
  -5   3   1    5.41    4.30
  -5   3   2    0.52    3.84
  -5   3   2    2.84    5.69
  -5   3   2    3.67    6.14
  -5   3   3    2.27    4.47
  -5   3   3   -2.05    3.63
  -5   3   3    0.05    5.68
  -5   3   4   14.70    4.62
  -5   3   4   12.13    5.50
  -5   3   4    8.85    4.15
  -5   3   5    0.06    6.48
  -5   3   5    5.80    6.08
  -5   3   5    0.79    4.15
  -5   3   6   -1.05    6.71
  -5   3   6   -1.26    4.50
  -5   3   6   -0.33    6.30
  -5   3   7    4.90    4.99
  -5   3   7   -0.82    6.97
  -5   3   7    4.11    6.67
  -5   4   0    6.35    6.60
  -5   4   0    5.95    6.69
  -5   4   0    1.67    5.61
  -5   4   1   -1.16    3.91
  -5   4   1    5.16    6.52
  -5   4   1   -0.60    6.01
  -5   4   2    3.90    6.70
  -5   4   2    4.77    5.32
  -5   4   2    3.95    5.97
  -5   4   3    0.13    6.89
  -5   4   3    9.09    5.76
  -5   4   3   -1.05    3.78
  -5   4   4   19.59    6.22
  -5   4   4   13.83    5.07
  -5   4   4   27.30    5.99
  -5   4   5   17.46    4.57
  -5   4   5   24.90    7.38
  -5   4   5   24.75    6.77
  -5   4   6   14.90    5.05
  -5   4   6   21.80    7.48
  -5   4   6   17.28    6.90
  -5   5   0    7.95    6.54
  -5   5   0    7.15    8.76
  -5   5   0    2.99    5.78
  -5   5   1    3.68    4.02
  -5   5   1    4.28    6.75
  -5   5   1    3.49    6.65
  -5   5   2    2.24    6.27
  -5   5   2    3.91    6.95
  -5   5   2    9.19    5.69
  -5   5   3    9.50    4.10
  -5   5   3   10.42    4.31
  -5   5   3   18.93    7.19
  -5   5   4    0.59    7.39
  -5   5   4   -5.46    4.32
  -5   5   4    3.12    4.68
  -5   5   5   14.25    6.87
  -5   5   5   13.65    7.70
  -5   5   5   14.73    6.58
  -5   6   0   11.66    4.39
  -5   6   0   19.58    9.80
  -5   6   0   10.62    7.52
  -5   6   1   15.58    7.69
  -5   6   1   11.68    6.62
  -5   6   1   14.41    6.04
  -5   6   2   -0.42    7.00
  -5   6   2    1.31    6.82
  -5   6   2   -0.34    4.37
  -5   6   3    2.11    7.28
  -5   6   3    5.55    6.82
  -5   6   3   -2.74    6.16
  -5   6   4    0.58    7.81
  -5   6   4   -1.66    6.99
  -5   6   4   -2.37    6.49
  -5   7   0    0.40    8.00
  -5   7   0    3.26   10.54
  -5   7   0    1.02    6.62
  -5   7   1   16.19   10.86
  -5   7   1   12.11    7.90
  -5   7   1    8.97    4.60
  -4 -11   1   -1.35    4.61
   4  11  -1    1.80    6.66
  -4 -11   1    5.22    6.84
  -4 -10   1    2.13    4.72
   4  10  -1    4.52    6.48
  -4 -10   1    1.15    3.95
  -4 -10   2   16.27    4.50
  -4 -10   2   28.92    6.94
   4  10  -2   22.66    6.59
  -4 -10   3   29.43    7.59
   4  10  -3   26.97    6.71
  -4 -10   3   18.87    4.86
   4   9  -1    1.92    4.27
  -4  -9   1    7.65    6.22
  -4  -9   1    4.75    5.29
  -4  -9   2    2.98    3.80
  -4  -9   2    2.40    6.72
   4   9  -2    2.47    6.08
  -4  -9   3    4.91    7.10
  -4  -9   3   -1.06    5.78
   4   9  -3    2.95    6.13
  -4  -9   4   21.49    6.70
  -4  -9   4   37.92    8.09
   4   9  -4   32.11    6.39
  -4  -9   5    9.09    8.45
   4   9  -5    8.89    6.67
  -4  -9   5    9.20    5.17
   4   8  -1    1.86    3.94
  -4  -8   1   -0.01    5.89
  -4  -8   1    3.12    3.32
  -4  -8   2   -1.77    3.54
   4   8  -2    1.65    4.29
  -4  -8   2    3.43    4.50
  -4  -8   3   24.67    5.45
   4   8  -3   26.51    4.41
  -4  -8   3   38.40    7.05
   4   8  -4   -0.03    6.00
  -4  -8   4   -0.22    4.22
  -4  -8   4    7.53    7.36
  -4  -8   5   10.55    7.81
  -4  -8   5    9.12    6.51
   4   8  -5   14.81    6.34
  -4  -8   6    0.78    6.97
   4   8  -6    2.26    4.80
  -4  -8   6    6.38    8.51
  -4  -7   1   10.77    4.58
   4   7  -1   13.08    5.52
  -4  -7   1    8.40    5.40
  -4  -7   2    3.33    5.69
   4   7  -2    9.00    5.52
  -4  -7   2    7.08    3.28
  -4  -7   3    3.15    5.02
   4   7  -3   13.72    5.65
  -4  -7   3   11.20    6.21
  -4  -7   4   11.94    6.53
   4   7  -4   18.97    5.75
  -4  -7   4   12.22    3.74
  -4  -7   5   14.26    6.02
   4   7  -5    8.40    3.98
  -4  -7   5    0.56    7.00
  -4  -7   6    5.06    7.30
   4   7  -6    1.42    6.13
  -4  -7   6    4.76    6.27
  -4  -7   7    5.97    7.67
  -4  -7   7   -4.07    4.83
  -4  -7   7    0.50    6.88
  -4  -6   1   74.52    5.22
   4   6  -1   70.95    4.35
  -4  -6   1   82.15    5.46
  -4  -6   2    4.56    3.21
  -4  -6   2    2.98    5.27
   4   6  -2    1.74    3.77
  -4  -6   3   18.81    5.43
  -4  -6   3    6.11    3.47
   4   6  -3   12.78    3.85
  -4  -6   4   45.45    4.26
   4   6  -4   56.66    5.63
  -4  -6   4   42.45    5.45
  -4  -6   5   14.12    4.29
  -4  -6   5   17.76    5.64
   4   6  -5   16.37    5.53
   4   6  -6    0.25    5.88
  -4  -6   6   -0.68    6.30
  -4  -6   6    2.06    6.04
  -4  -6   7    7.04    4.94
  -4  -6   7    3.12    6.44
  -4  -6   7    5.31    6.54
  -4  -6   8    2.22    7.40
  -4  -6   8   -2.33    7.06
  -4  -6   8   -0.27    4.96
   4   5  -1    2.07    4.94
  -4  -5   1   -0.21    3.06
  -4  -5   1   -0.70    4.65
  -4  -5   2    2.38    4.73
  -4  -5   2    0.57    3.26
   4   5  -2    6.46    5.07
   4   5  -3   59.94    5.23
  -4  -5   3   32.53    3.57
  -4  -5   3   56.99    5.23
  -4  -5   4   64.37    5.32
  -4  -5   4   60.26    5.72
   4   5  -4   59.65    5.24
  -4  -5   5   10.79    5.09
   4   5  -5   12.90    3.82
  -4  -5   5   15.43    3.91
  -4  -5   6    1.53    5.74
  -4  -5   6    2.62    5.56
   4   5  -6    3.94    3.96
  -4  -5   7   13.57    6.09
  -4  -5   7   11.69    5.92
  -4  -5   7   16.28    6.25
  -4  -5   8   28.26    6.86
  -4  -5   8   27.01    6.74
  -4  -5   8   35.58    6.69
  -4  -4   1    6.38    4.49
   4   4  -1    8.67    4.75
   4   4  -2  167.11    5.75
  -4  -4   2  137.74    4.34
  -4  -4   3   11.90    4.50
   4   4  -3    8.53    4.80
  -4  -4   4   10.25    3.24
   4   4  -4    9.91    3.43
  -4  -4   5   53.67    3.60
   4   4  -5   54.94    3.81
  -4  -4   6   63.03    5.19
  -4  -4   7    3.79    4.41
  -4  -4   7    3.48    5.64
  -4  -4   7    7.45    3.79
  -4  -4   8    4.56    6.63
  -4  -4   8    0.82    4.11
  -4  -4   8    0.94    4.30
  -4  -4   9    4.88    6.79
  -4  -4   9    2.96    4.95
  -4  -4   9   -2.36    7.05
   4   3  -1  148.08    5.47
  -4  -3   1  142.28    4.38
  -4  -3   2   22.28    4.40
   4   3  -2   21.42    4.38
  -4  -3   3   90.37    3.66
   4   3  -3  108.23    5.07
  -4  -3   4   15.61    4.10
   4   3  -4    8.60    3.16
   4   3  -5   52.46    3.81
  -4  -3   5   54.45    4.85
  -4  -3   6   66.76    5.01
  -4  -3   6   80.08    5.44
  -4  -3   7   -0.70    3.90
  -4  -3   7    1.37    5.07
  -4  -3   8    1.49    4.37
  -4  -3   8    3.68    4.16
  -4  -3   9   11.69    6.54
  -4  -3   9    7.22    4.72
   4   2  -1  267.79    5.92
  -4  -2   1  294.36    7.01
   4   2  -2  114.91    3.96
  -4  -2   2  142.23    5.33
   4   2  -3   15.06    4.23
  -4  -2   3   15.29    3.06
  -4  -2   4    2.91    4.27
   4   2  -4    0.29    4.31
   4   2  -5  119.55    5.18
  -4  -2   5  111.32    5.04
  -4  -2   6   19.12    4.60
  -4  -2   6   21.77    4.76
  -4  -2   7    4.70    3.83
  -4  -2   7    2.74    3.60
  -4  -2   8    1.41    5.86
  -4  -2   8   -0.49    3.94
  -4  -2   9   -2.28    6.23
  -4  -2   9    5.53    6.45
   4   1  -1   12.78    3.00
  -4  -1   1   12.77    3.33
  -4  -1   2    9.23    3.23
   4   1  -2   10.07    4.12
  -4  -1   3   45.39    4.60
   4   1  -3   35.43    3.14
   4   1  -4  113.27    3.96
  -4  -1   4  128.69    5.28
  -4  -1   5    2.48    3.10
  -4  -1   5    3.21    3.10
  -4  -1   6   26.16    3.38
  -4  -1   6   23.01    4.71
  -4  -1   7   10.87    4.84
  -4  -1   7    5.47    3.53
  -4  -1   8    9.36    5.46
  -4  -1   8    9.39    5.57
  -4  -1   9   -6.68    6.29
  -4  -1   9    2.58    6.46
  -4   0   1   61.36    3.90
   4   0  -1   62.65    4.81
  -4   0   2   -0.81    3.22
   4   0  -2    2.94    4.36
  -4   0   3   33.38    3.32
   4   0  -3   33.43    4.32
  -4   0   4   30.62    4.65
  -4   0   5    9.87    3.22
  -4   0   5   13.27    4.48
  -4   0   6   29.18    3.49
  -4   0   6   31.16    4.79
  -4   0   7    9.60    5.07
  -4   0   7    1.32    3.51
  -4   0   8    5.61    5.41
  -4   0   8   -1.50    3.73
  -4   0   9    8.22    7.18
  -4   0   9    9.73    6.19
  -4   0   9    8.75    6.26
  -4   1   0   50.86    5.16
  -4   1   0   44.11    3.69
   4  -1   0   35.53    3.44
  -4   1   1   51.87    5.23
   4  -1  -1   43.33    4.90
  -4   1   1   48.26    4.67
  -4   1   2    9.75    5.00
  -4   1   2    5.74    4.29
   4  -1  -2    6.24    3.27
  -4   1   3   11.13    4.45
  -4   1   3    8.16    4.76
  -4   1   4   93.86    5.71
  -4   1   4   80.57    4.05
  -4   1   4   57.59    3.62
  -4   1   5    3.90    4.58
  -4   1   5    3.07    4.79
  -4   1   5    0.57    3.51
  -4   1   6    2.93    4.92
  -4   1   6    1.19    3.47
  -4   1   6    6.86    5.34
  -4   1   7   -0.99    4.10
  -4   1   7    3.26    3.71
  -4   1   7    2.23    3.69
  -4   1   8   -0.82    5.40
  -4   1   8    1.71    4.56
  -4   1   8   -1.30    3.83
  -4   1   9    0.59    5.44
  -4   1   9    3.87    4.25
  -4   1   9    0.60    6.09
   4  -2   0   79.08    5.59
  -4   2   0   59.77    4.22
  -4   2   0   71.28    5.11
  -4   2   1   57.10    5.40
  -4   2   1   50.50    3.62
   4  -2  -1   55.14    5.21
  -4   2   2   78.62    5.57
  -4   2   2   71.82    4.94
  -4   2   3   60.57    5.34
  -4   2   3   57.33    5.19
  -4   2   3   54.92    4.96
  -4   2   4   53.40    3.86
  -4   2   4   73.47    5.46
  -4   2   4   53.85    3.79
  -4   2   5   25.36    3.58
  -4   2   5   15.61    3.81
  -4   2   5   25.08    3.61
  -4   2   6   29.99    3.73
  -4   2   6   33.24    5.34
  -4   2   6   46.26    5.84
  -4   2   7    2.65    6.29
  -4   2   7    3.98    5.38
  -4   2   7    0.96    5.25
  -4   2   8    1.31    4.95
  -4   2   8   -0.01    5.59
  -4   2   8    5.35    5.60
  -4   2   9   -0.01    4.27
  -4   2   9    7.09    6.20
  -4   2   9   13.41    7.69
  -4   3   0    1.27    5.23
  -4   3   0   -1.08    4.75
  -4   3   1    8.00    5.06
  -4   3   1    3.99    5.46
  -4   3   1    4.42    3.26
  -4   3   2    9.19    3.23
  -4   3   2   13.43    5.30
  -4   3   2   11.53    3.66
  -4   3   3  267.01    8.55
  -4   3   3  281.12    8.31
  -4   3   3  220.31    6.69
  -4   3   4  159.14    6.47
  -4   3   4   81.12    4.44
  -4   3   4  146.71    6.53
  -4   3   5    2.23    5.25
  -4   3   5   -1.60    5.16
  -4   3   5    1.97    5.24
  -4   3   6   10.85    4.41
  -4   3   6   24.90    5.45
  -4   3   6   15.60    4.01
  -4   3   7   18.69    6.56
  -4   3   7   19.10    5.84
  -4   3   7   15.17    5.67
  -4   3   8   11.40    4.31
  -4   3   8    8.48    5.29
  -4   3   8   12.81    4.27
  -4   3   9    4.51    4.47
  -4   3   9   11.98    8.33
  -4   3   9    8.48    4.52
  -4   4   0  120.45    6.98
  -4   4   0  150.15    6.29
  -4   4   0  165.26    7.85
  -4   4   1   18.93    5.39
  -4   4   1   24.61    5.65
  -4   4   1   18.44    3.33
  -4   4   2   48.13    5.64
  -4   4   2   38.37    3.57
  -4   4   2   57.67    6.08
  -4   4   3   75.98    6.31
  -4   4   3   75.65    5.34
  -4   4   3   72.82    5.97
  -4   4   4   99.91    5.85
  -4   4   4   83.52    6.17
  -4   4   4   52.88    4.51
  -4   4   5    6.14    5.73
  -4   4   5   14.41    5.64
  -4   4   5   13.65    4.14
  -4   4   6   11.13    4.14
  -4   4   6   12.43    6.30
  -4   4   6    8.90    5.74
  -4   4   7    2.79    5.97
  -4   4   7    2.23    4.98
  -4   4   7    5.17    6.11
  -4   4   8    3.44    7.54
  -4   4   8    1.51    4.31
  -4   4   8    5.15    4.36
  -4   5   0    0.94    5.89
  -4   5   0   -1.59    5.04
  -4   5   0    0.01    5.64
  -4   5   1   10.33    5.68
  -4   5   1   12.30    5.93
  -4   5   1   18.34    4.99
  -4   5   2    2.89    5.88
  -4   5   2    3.35    5.61
  -4   5   2    1.68    4.80
  -4   5   3   51.31    3.91
  -4   5   3   71.77    6.64
  -4   5   3   54.21    6.11
  -4   5   4   32.59    5.89
  -4   5   4   43.07    6.31
  -4   5   4   23.59    4.09
  -4   5   5   15.87    6.24
  -4   5   5   32.17    5.95
  -4   5   5   29.76    6.47
  -4   5   6    2.40    6.42
  -4   5   6   -0.81    6.36
  -4   5   6    0.57    6.28
  -4   5   7    0.36    6.57
  -4   5   7   -1.73    4.69
  -4   5   7    4.86    7.13
  -4   5   8    4.30    7.89
  -4   5   8   -1.99    6.98
  -4   5   8   -1.11    6.75
  -4   6   0    3.97    5.26
  -4   6   0    0.45    6.26
  -4   6   0    4.84    7.98
  -4   6   1   58.04    8.14
  -4   6   1   45.80    5.90
  -4   6   1   43.33    5.31
  -4   6   2   23.06    6.13
  -4   6   2   24.39    6.02
  -4   6   2   27.04    5.20
  -4   6   3   -0.87    5.90
  -4   6   3    1.68    6.12
  -4   6   3    2.15    3.61
  -4   6   4    4.06    6.57
  -4   6   4   10.60    6.20
  -4   6   4    8.01    3.77
  -4   6   5   24.33    6.81
  -4   6   5   28.54    6.29
  -4   6   5   20.47    4.82
  -4   6   6    0.84    6.99
  -4   6   6    2.56    7.03
  -4   6   6    3.45    4.86
  -4   6   7   -1.71    5.07
  -4   6   7   -1.13    7.31
  -4   6   7    5.13    7.49
  -4   7   0    1.05    8.71
  -4   7   0    3.02    5.51
  -4   7   0    2.05    6.87
  -4   7   1    0.45    7.07
  -4   7   1   -0.39    5.34
  -4   7   1    1.93    5.37
  -4   7   2    3.16    7.87
  -4   7   2   -1.71    3.89
  -4   7   2    0.34    5.63
  -4   7   3   17.08    6.25
  -4   7   3   12.85    6.39
  -4   7   3   15.33    5.57
  -4   7   4    3.97    6.52
  -4   7   4    0.40    6.64
  -4   7   4    9.38    5.89
  -4   7   5    2.30    6.36
  -4   7   5   -2.14    6.90
  -4   7   5    0.05    7.13
  -4   7   6    9.23    7.41
  -4   7   6    7.68    7.71
  -4   7   6    7.11    7.19
  -4   8   0    4.15    4.23
  -4   8   1   -0.09    9.92
  -4   8   1   -0.34    7.84
  -4   8   1    0.75    5.93
  -4   8   2    3.38    7.32
  -4   8   2    1.61    5.79
  -4   8   2    2.15    7.40
  -4   8   3    2.95    8.82
  -4   8   3    9.04    6.29
  -4   8   3    7.16    4.30
  -4   8   4    2.11    7.46
  -4   8   4    5.93    6.42
  -4   8   4    5.39    6.76
  -3 -11   1   10.65    4.34
  -3 -11   1   17.72    6.27
   3  11  -1   18.40    6.42
  -3 -11   2   12.51    6.54
  -3 -11   2   12.70    4.75
   3  11  -2   14.18    6.82
  -3 -11   3    6.25    8.28
   3  11  -3    2.61    7.28
  -3 -11   3    4.39    6.97
   3  10  -1   12.89    4.16
  -3 -10   1    8.59    5.48
  -3 -10   1   21.93    5.89
  -3 -10   2   14.64    6.17
   3  10  -2   12.39    6.17
  -3 -10   2   11.22    5.76
   3  10  -3   18.17    6.49
  -3 -10   3   20.60    6.46
  -3 -10   3   16.29    6.35
  -3 -10   4   20.64    7.19
  -3 -10   4   32.49    7.09
   3  10  -4   32.12    5.19
  -3 -10   5   11.83    7.34
  -3 -10   5   11.83    7.56
   3  10  -5   13.90    7.78
  -3  -9   1    3.16    5.38
   3   9  -1    0.64    3.88
  -3  -9   1    5.87    5.08
  -3  -9   2   -1.11    5.87
  -3  -9   2    2.53    3.69
   3   9  -2    3.76    5.75
  -3  -9   3    3.27    5.80
   3   9  -3    1.68    5.86
  -3  -9   3    5.81    6.27
  -3  -9   4    1.63    6.26
   3   9  -4    1.55    6.13
  -3  -9   4    1.80    6.83
   3   9  -5    2.13    6.60
  -3  -9   5   -0.69    6.78
  -3  -9   5    6.18    7.40
  -3  -9   6   12.99    7.33
  -3  -9   6   10.44    7.38
  -3  -9   6   11.22    7.90
   3   8  -1    7.49    5.37
  -3  -8   1   -0.40    4.74
  -3  -8   1    4.48    3.85
   3   8  -2   10.40    5.44
  -3  -8   2    5.31    4.97
  -3  -8   2   11.76    5.75
   3   8  -3   16.18    5.57
  -3  -8   3   11.21    3.83
  -3  -8   3   17.73    6.37
  -3  -8   4   48.67    6.92
   3   8  -4   39.34    5.90
  -3  -8   4   29.60    4.46
  -3  -8   5    1.80    4.36
   3   8  -5    1.70    5.93
  -3  -8   5    0.82    7.17
  -3  -8   6    3.59    7.55
  -3  -8   6    3.00    6.57
  -3  -8   6   -0.54    4.71
  -3  -8   7   -0.23    7.27
  -3  -8   7    6.58    7.06
  -3  -8   7    5.20    8.15
  -3  -7   1    7.85    4.54
   3   7  -1   11.92    5.36
  -3  -7   1    9.95    3.59
   3   7  -2    4.43    3.56
  -3  -7   2    8.30    5.46
  -3  -7   2    6.49    4.65
   3   7  -3    7.13    5.18
  -3  -7   3    3.60    5.81
  -3  -7   3    6.47    3.44
   3   7  -4   86.66    5.72
  -3  -7   4   65.88    4.64
  -3  -7   4   91.21    6.94
  -3  -7   5    0.29    6.10
   3   7  -5    6.71    5.44
  -3  -7   5    1.67    4.63
  -3  -7   6   17.30    7.22
  -3  -7   6    6.16    6.34
  -3  -7   7   13.43    5.43
  -3  -7   7   14.23    6.64
  -3  -7   7   15.83    6.56
  -3  -7   8    1.74    6.82
  -3  -7   8    1.36    5.06
  -3  -7   8    2.61    7.96
  -3  -6   1    1.53    3.60
  -3  -6   1    2.69    4.18
   3   6  -1    4.02    5.11
  -3  -6   2    0.67    4.44
   3   6  -2   -0.57    3.61
  -3  -6   2   -0.17    5.17
   3   6  -3  175.78    6.16
  -3  -6   3  130.71    4.95
  -3  -6   3  164.98    5.31
  -3  -6   4   50.27    5.70
  -3  -6   4   42.08    5.36
   3   6  -4   44.11    5.04
  -3  -6   5   49.85    4.50
  -3  -6   5   50.87    4.47
   3   6  -5   63.18    5.35
  -3  -6   6   42.15    6.41
  -3  -6   6   28.16    4.30
  -3  -6   7   16.47    6.36
  -3  -6   7    5.74    4.38
  -3  -6   7   18.72    6.78
  -3  -6   8   12.67    7.11
  -3  -6   8   10.42    6.53
  -3  -6   8    9.66    6.62
  -3  -6   9    9.97    4.81
  -3  -6   9   11.63    5.49
  -3  -6   9    8.61    7.35
   3   5  -1   89.41    4.00
  -3  -5   1   96.93    5.18
  -3  -5   1   92.44    5.08
  -3  -5   2  425.73   10.90
  -3  -5   2  427.11    7.86
   3   5  -2  417.41    7.54
   3   5  -3  188.37    6.03
  -3  -5   3  200.73    6.49
  -3  -5   3  198.45    7.04
   3   5  -4  333.20    7.59
  -3  -5   4  269.85    6.71
  -3  -5   4  277.61    8.67
  -3  -5   5  154.30    6.50
  -3  -5   5  181.50    6.64
   3   5  -5  146.67    4.98
  -3  -5   6   14.79    5.68
  -3  -5   6   11.21    3.78
  -3  -5   7    3.08    4.09
  -3  -5   7    1.92    5.68
  -3  -5   7    3.37    5.78
  -3  -5   8    0.40    6.20
  -3  -5   8    3.67    6.12
  -3  -5   8   -2.72    6.16
  -3  -5   9    6.13    4.96
  -3  -5   9    4.03    4.63
  -3  -5   9    1.47    4.83
  -3  -4   1    1.48    4.40
   3   4  -1   -1.60    4.56
  -3  -4   2   37.32    3.42
   3   4  -2   44.91    4.87
  -3  -4   3  378.15    8.15
   3   4  -3  328.68    6.49
   3   4  -4   35.47    3.34
  -3  -4   4   32.42    3.21
  -3  -4   5   23.42    4.57
   3   4  -5   20.49    4.70
  -3  -4   5   27.25    5.36
  -3  -4   6   56.23    5.31
  -3  -4   6   41.39    3.66
  -3  -4   6   54.71    6.05
  -3  -4   7   56.56    6.60
  -3  -4   7   49.18    3.92
  -3  -4   7   26.78    3.95
  -3  -4   8   18.79    4.14
  -3  -4   8   14.77    6.08
  -3  -4   8   18.16    5.95
  -3  -4   9    3.68    6.45
  -3  -4   9    4.64    6.47
  -3  -4   9    3.31    6.09
  -3  -4  10    1.74    4.64
  -3  -4  10    6.20    7.24
  -3  -4  10    6.17    7.08
   3   3  -1  671.35   11.13
  -3  -3   1  665.43   11.17
   3   3  -2   80.09    3.63
  -3  -3   2   75.38    3.54
   3   3  -3   17.32    4.30
  -3  -3   3   15.63    4.12
   3   3  -4  225.61    6.26
  -3  -3   4  174.54    4.69
   3   3  -5   76.73    4.90
  -3  -3   5   73.19    4.41
  -3  -3   6   11.62    4.93
  -3  -3   6   15.24    4.53
  -3  -3   7   26.89    5.48
  -3  -3   7   24.33    3.51
  -3  -3   8    5.67    4.17
  -3  -3   8    5.81    3.92
  -3  -3   8   13.24    5.81
  -3  -3   9   11.68    6.12
  -3  -3   9    3.34    4.46
  -3  -3   9    4.99    4.35
  -3  -3  10   13.36    6.57
  -3  -3  10    9.81    4.90
  -3  -3  10   16.76    6.63
   3   2  -1  223.07    5.39
  -3  -2   1  261.72    6.70
   3   2  -2   57.85    4.58
  -3  -2   2   56.39    4.51
  -3  -2   3  399.98    7.88
   3   2  -3  405.41    7.90
   3   2  -4  174.80    4.66
  -3  -2   4  196.29    5.64
  -3  -2   5    8.79    3.84
  -3  -2   6   30.94    4.70
  -3  -2   6   24.53    4.63
  -3  -2   7    0.65    3.71
  -3  -2   7    2.68    3.21
  -3  -2   8    7.87    5.53
  -3  -2   8    5.64    5.17
  -3  -2   9    7.63    5.75
  -3  -2   9    8.95    6.07
  -3  -2  10   23.60    4.80
  -3  -2  10   70.50    6.78
  -3  -2  10   55.58    7.46
   3   1  -1   22.18    4.32
  -3  -1   1   29.46    4.53
   3   1  -2   34.08    4.33
  -3  -1   2   27.64    4.38
   3   1  -3  112.07    3.83
  -3  -1   3  105.20    3.88
  -3  -1   4   22.34    2.89
   3   1  -4   23.66    3.03
  -3  -1   5    3.77    4.22
  -3  -1   5   -0.93    2.84
  -3  -1   6  105.76    5.08
  -3  -1   6   91.64    3.84
  -3  -1   7    2.23    3.32
  -3  -1   7    4.88    5.03
  -3  -1   8   29.70    5.44
  -3  -1   8   20.67    5.20
  -3  -1   9    1.62    5.71
  -3  -1   9   -2.36    4.23
  -3  -1  10   17.67    4.48
  -3  -1  10   21.24    6.57
  -3  -1  11    6.37    7.13
  -3  -1  11    8.60    6.84
   3   0  -1  182.89    5.00
  -3   0   1  226.70    6.44
   3   0  -2  253.57    5.89
  -3   0   2  282.03    6.17
   3   0  -3    8.49    2.75
  -3   0   3    8.83    4.20
  -3   0   4  139.91    5.08
  -3   0   5    0.45    2.97
  -3   0   5   -1.69    4.07
  -3   0   6    1.68    4.28
  -3   0   6    3.54    4.41
  -3   0   7    5.15    4.63
  -3   0   7    5.03    4.67
  -3   0   8   19.74    3.59
  -3   0   8    5.51    3.60
  -3   0   9    4.74    3.96
  -3   0   9    5.22    4.08
  -3   0  10    3.62    5.17
  -3   0  10    0.67    4.37
  -3   0  10    5.50    5.98
  -3   0  11    0.82    6.65
  -3   0  11   -4.53    4.90
  -3   0  11    6.94    7.68
  -3   1   0   32.57    4.44
  -3   1   0   30.93    4.88
   3  -1   0   27.23    4.68
  -3   1   1  204.35    7.22
   3  -1  -1  199.34    6.10
  -3   1   1  233.26    6.82
  -3   1   2   22.73    3.29
   3  -1  -2   27.01    4.07
  -3   1   3    2.29    3.02
  -3   1   4   15.90    3.10
  -3   1   4    8.87    2.86
  -3   1   5   79.92    4.62
  -3   1   5   26.53    3.09
  -3   1   6   47.03    3.38
  -3   1   6   52.46    4.57
  -3   1   7    3.45    4.02
  -3   1   7    1.00    4.55
  -3   1   7    5.86    4.54
  -3   1   8    0.10    4.84
  -3   1   8    2.83    4.52
  -3   1   8   -0.21    3.41
  -3   1   9   32.10    5.49
  -3   1   9   26.89    7.02
  -3   1   9   31.11    5.37
  -3   1  10    0.79    7.37
  -3   1  10    0.11    5.90
  -3   1  10    2.40    4.08
  -3   1  11    0.83    7.68
  -3   1  11    4.38    4.49
  -3   1  11    1.95    4.68
  -3   2   0  100.86    5.63
   3  -2   0  104.06    5.39
  -3   2   0   97.11    3.99
  -3   2   1  549.07   11.96
   3  -2  -1  517.07   11.49
  -3   2   1  520.08   11.56
  -3   2   2  202.73    6.22
  -3   2   2  173.02    5.26
  -3   2   2  213.13    6.40
  -3   2   3  431.98    9.07
  -3   2   3  151.59    4.53
  -3   2   3  372.54    8.96
  -3   2   4   59.16    4.91
  -3   2   4   55.77    4.54
  -3   2   4   57.24    4.76
  -3   2   5   76.75    4.68
  -3   2   5   62.86    3.64
  -3   2   5   90.20    5.69
  -3   2   6  110.20    6.53
  -3   2   6   96.16    5.08
  -3   2   6  103.88    4.90
  -3   2   7   25.07    5.96
  -3   2   7   17.45    3.42
  -3   2   7   18.47    4.57
  -3   2   8   40.70    4.95
  -3   2   8   46.78    5.12
  -3   2   8   25.53    3.51
  -3   2   9   -1.48    3.55
  -3   2   9    0.74    5.00
  -3   2   9    1.46    5.05
  -3   2  10    7.54    7.45
  -3   2  10    3.96    4.14
  -3   2  10    4.56    5.72
  -3   3   0   50.44    5.25
  -3   3   0   54.78    4.57
  -3   3   1  133.43    5.86
  -3   3   1  126.94    6.18
  -3   3   1  113.72    3.99
  -3   3   2   37.22    4.49
  -3   3   2   33.79    4.74
  -3   3   2   32.06    4.85
  -3   3   3  677.71   13.79
  -3   3   3  483.85    9.67
  -3   3   3  710.20   13.38
  -3   3   4   75.82    3.79
  -3   3   4   47.86    3.64
  -3   3   4   90.78    4.95
  -3   3   5   57.46    5.30
  -3   3   5   30.99    3.36
  -3   3   5   35.89    3.38
  -3   3   6   28.27    4.44
  -3   3   6   33.72    5.64
  -3   3   6   18.91    4.64
  -3   3   7   -2.61    6.17
  -3   3   7    1.67    3.41
  -3   3   7    0.06    4.55
  -3   3   8   23.48    3.74
  -3   3   8   13.82    4.71
  -3   3   8   30.15    4.94
  -3   3   9    0.49    5.30
  -3   3   9    4.05    5.05
  -3   3   9    1.20    7.03
  -3   3  10    9.52    5.71
  -3   3  10    6.11    4.15
  -3   3  10   -1.55    5.27
  -3   4   0    0.29    4.82
  -3   4   0   -1.32    4.72
  -3   4   0   -2.43    4.26
  -3   4   1   20.85    5.02
  -3   4   1   17.89    3.07
  -3   4   1   20.03    4.91
  -3   4   2  546.00   10.19
  -3   4   2  521.38   13.83
  -3   4   2  574.88   12.79
  -3   4   3  140.22    5.16
  -3   4   3  183.90    5.86
  -3   4   3  180.31    6.31
  -3   4   4   -0.41    4.64
  -3   4   4    1.33    4.58
  -3   4   4    0.38    4.75
  -3   4   5    7.55    4.77
  -3   4   5    5.33    4.55
  -3   4   5    1.99    3.77
  -3   4   6   88.18    5.30
  -3   4   6   52.68    4.34
  -3   4   6   75.41    5.43
  -3   4   7    3.20    3.39
  -3   4   7    4.39    4.94
  -3   4   7    7.92    6.17
  -3   4   8   -2.99    6.60
  -3   4   8    4.59    4.76
  -3   4   8   -3.72    5.24
  -3   4   9    4.49    4.99
  -3   4   9   12.30    5.25
  -3   4   9   10.26    3.93
  -3   4  10    8.17    7.76
  -3   4  10    2.89    3.93
  -3   4  10    7.16    4.31
  -3   5   0  135.65    8.18
   3  -5   0  104.78    3.99
  -3   5   0  135.84    5.38
  -3   5   0  146.20    7.60
  -3   5   1  266.86    6.11
  -3   5   1  276.80   10.18
  -3   5   1  299.91    9.03
  -3   5   2   89.30    4.95
  -3   5   2   77.92    5.65
  -3   5   2   85.99    5.81
  -3   5   3   80.27    4.44
  -3   5   3  113.08    5.27
  -3   5   3  100.98    6.04
  -3   5   4    1.68    3.54
  -3   5   4   -1.58    4.98
  -3   5   4    0.20    4.81
  -3   5   5    6.53    5.55
  -3   5   5    4.20    5.09
  -3   5   5    0.72    3.43
  -3   5   6   -1.16    5.36
  -3   5   6    3.90    5.05
  -3   5   6    5.50    5.66
  -3   5   7    8.95    6.25
  -3   5   7   10.25    3.90
  -3   5   7    5.95    5.25
  -3   5   8    7.76    3.93
  -3   5   8   23.79    4.24
  -3   5   8   38.64    7.10
  -3   5   9    4.31    5.89
  -3   5   9    5.99    7.19
  -3   5   9    3.80    3.89
  -3   6   0  103.52    5.24
  -3   6   0   89.14    7.04
  -3   6   0  105.52    6.80
   3  -6   0   85.97    5.06
  -3   6   1   45.07    5.17
  -3   6   1   39.71    4.69
  -3   6   1   43.28    5.82
   3  -6  -1   32.81    3.39
  -3   6   2    5.20    5.26
  -3   6   2    4.49    3.17
  -3   6   2    5.19    5.03
  -3   6   3    1.37    5.31
  -3   6   3   10.63    5.19
  -3   6   3    5.96    3.25
  -3   6   4   38.03    5.65
  -3   6   4   35.29    5.14
  -3   6   4   27.29    4.21
  -3   6   5    3.55    5.41
  -3   6   5    2.77    3.80
  -3   6   5    4.06    5.64
  -3   6   6   -2.51    5.84
  -3   6   6   -0.11    5.78
  -3   6   6    1.18    5.60
  -3   6   7    0.77    5.96
  -3   6   7    3.30    4.09
  -3   6   7    4.04    6.39
  -3   6   8   12.84    6.15
  -3   6   8   12.53    5.95
  -3   6   8   15.25    6.90
  -3   6   9    9.22    4.54
  -3   6   9   11.50    6.19
  -3   6   9    9.42    7.41
  -3   7   0   10.70    3.50
  -3   7   0   14.88    9.04
  -3   7   0   16.32    7.75
   3  -7   0   15.04    4.73
  -3   7   1   10.00    5.97
  -3   7   1   15.30    7.26
  -3   7   1   10.07    3.35
   3  -7  -1   10.39    4.65
  -3   7   2    2.64    4.68
  -3   7   2    1.22    4.90
  -3   7   2    3.32    5.46
  -3   7   3    1.43    5.66
  -3   7   3   -2.46    3.42
  -3   7   3    0.38    5.13
  -3   7   4    1.59    5.98
  -3   7   4    2.44    5.54
  -3   7   4    2.25    5.19
  -3   7   5   18.90    6.13
  -3   7   5   17.82    5.66
  -3   7   5   18.74    6.43
  -3   7   6   -2.46    6.13
  -3   7   6   -0.37    6.46
  -3   7   6    0.53    6.02
  -3   7   7   -2.57    4.69
  -3   7   7    1.56    6.64
  -3   7   7    5.46    6.39
  -3   7   8    3.50    7.13
  -3   7   8   -0.74    4.73
  -3   7   8    0.49    6.69
  -3   8   0    5.36    3.87
   3  -8   0    8.82    5.21
  -3   8   1    4.29    8.32
  -3   8   1    1.12    3.74
   3  -8  -1    3.15    5.09
  -3   8   1    0.60    7.27
   3  -8  -2    4.06    3.65
  -3   8   2    0.45    5.26
  -3   8   2    4.01    6.20
  -3   8   2    1.93    3.51
  -3   8   3    0.54    6.13
  -3   8   3    1.12    5.37
  -3   8   3   -0.18    5.16
  -3   8   4    5.25    6.64
  -3   8   4   -1.23    3.96
  -3   8   4    1.86    5.81
  -3   8   5   11.16    4.16
  -3   8   5   10.64    6.17
  -3   8   5   11.80    6.87
  -3   8   6    1.57    6.67
  -3   8   6    2.62    4.67
  -3   8   6    0.84    7.23
  -3   8   7    3.58    5.39
  -3   8   7   -0.03    5.10
  -3   8   7    3.86    7.04
   3  -9   0    5.26    5.82
  -3   9   0   -1.01    5.68
  -3   9   1   -1.01    9.66
  -3   9   1    2.89    3.97
  -3   9   1   -0.03   10.84
   3  -9  -1    6.72    5.63
   3  -9  -2    9.70    5.82
  -3   9   2   11.84    8.09
  -3   9   2    8.75    8.87
  -3   9   2   10.62    4.08
  -3   9   3    1.66    6.91
  -3   9   3    1.67    4.06
  -3   9   3    4.75    6.04
  -3   9   4    1.27    7.33
  -3   9   4    3.63    4.41
  -3   9   4    0.89    6.13
  -3   9   5    3.68    4.66
  -3   9   5    9.90    4.71
  -3   9   5    8.39    7.75
   3 -10  -1    8.13    6.60
   2  12  -1   10.58    7.60
  -2 -12   1    5.90    4.60
  -2 -12   1    8.27    8.19
   2  11  -1   52.75    7.06
  -2 -11   1   32.77    4.18
  -2 -11   1   40.40    6.34
  -2 -11   2   12.41    4.28
  -2 -11   2   17.29    6.29
   2  11  -2   18.16    7.50
  -2 -11   3   12.81    6.30
  -2 -11   3    9.77    8.02
   2  11  -3   12.87    7.65
  -2 -11   4    4.36    7.00
  -2 -11   4    6.83    4.82
  -2 -10   1   -0.33    3.55
  -2 -10   1    0.74    5.38
   2  10  -1    4.32    5.84
   2  10  -2   14.42    6.21
  -2 -10   2   11.84    5.67
  -2 -10   2   11.91    5.55
   2  10  -3    3.81    8.14
  -2 -10   3    0.85    4.04
  -2 -10   3   -1.56    7.06
  -2 -10   4    0.73    6.18
   2  10  -4    2.50    6.96
  -2 -10   4    6.91    6.33
  -2 -10   5    3.53    7.43
  -2 -10   5    0.31    8.01
  -2 -10   5   -2.21    6.67
  -2  -9   1    9.69    4.61
  -2  -9   1   12.99    5.11
   2   9  -1   13.31    5.36
   2   9  -2   32.07    5.78
  -2  -9   2   35.17    5.50
  -2  -9   2   23.46    3.68
   2   9  -3   11.51    6.05
  -2  -9   3   11.48    5.57
  -2  -9   3    7.16    5.47
  -2  -9   4    8.95    5.73
   2   9  -4    9.73    6.18
  -2  -9   4    8.65    3.97
  -2  -9   5   -0.49    6.65
  -2  -9   5    0.80    6.21
  -2  -9   5   -1.08    4.37
  -2  -9   6    0.94    6.59
  -2  -9   6    2.94    7.09
  -2  -9   6   -1.19    6.62
  -2  -9   7    0.17    7.05
  -2  -9   7    1.79    7.70
  -2  -9   7    2.14    7.11
  -2  -8   1   12.44    5.17
  -2  -8   1    8.41    4.34
   2   8  -1   11.71    5.21
  -2  -8   2   -3.56    5.17
  -2  -8   2   -0.14    3.14
   2   8  -2    1.67    5.23
  -2  -8   3    3.73    3.49
  -2  -8   3    8.09    5.44
   2   8  -3    6.24    5.35
  -2  -8   4    7.84    5.39
   2   8  -4    5.90    6.84
  -2  -8   4    5.41    5.93
  -2  -8   5   13.22    4.12
  -2  -8   5   12.03    6.37
  -2  -8   6   18.65    6.57
  -2  -8   6   18.31    6.25
  -2  -8   6   23.14    6.86
  -2  -8   7   13.98    6.58
  -2  -8   7   13.85    7.20
  -2  -8   7   14.85    7.08
  -2  -8   8    1.61    7.46
  -2  -8   8   -2.04    4.83
  -2  -8   8    2.28    7.46
   2   7  -1   19.42    3.64
  -2  -7   1   20.18    3.04
  -2  -7   1   24.05    5.01
  -2  -7   2   29.12    4.47
  -2  -7   2   29.00    3.87
   2   7  -2   26.80    3.74
  -2  -7   3   14.04    4.77
  -2  -7   3   20.74    5.48
   2   7  -3   14.82    5.20
   2   7  -4   11.24    5.08
  -2  -7   4    5.85    3.74
  -2  -7   4   10.98    5.85
  -2  -7   5  117.33    7.16
  -2  -7   5   92.55    6.55
   2   7  -5  110.78    6.58
  -2  -7   6    2.24    6.59
  -2  -7   6    1.05    4.03
  -2  -7   6    6.37    5.86
  -2  -7   7    1.50    6.08
  -2  -7   7    3.98    6.97
  -2  -7   7    3.46    6.13
  -2  -7   8    0.90    4.53
  -2  -7   8   -4.24    7.36
  -2  -7   8    2.41    6.80
  -2  -7   9    3.40    4.71
  -2  -7   9    3.73    7.93
  -2  -7   9    4.13    7.50
   2   6  -1    4.08    4.91
  -2  -6   1    6.92    4.16
  -2  -6   1    4.81    4.82
   2   6  -2  136.84    5.80
  -2  -6   2  119.14    4.13
  -2  -6   2  139.90    6.08
  -2  -6   3  880.10   17.18
  -2  -6   3  686.39   13.33
   2   6  -3  808.07   14.38
   2   6  -4  224.72    7.39
  -2  -6   4  240.64    7.70
  -2  -6   4  258.57    8.33
   2   6  -5   76.75    5.70
  -2  -6   5   61.47    4.25
  -2  -6   5   86.26    6.56
  -2  -6   6    1.42    6.10
  -2  -6   6    0.36    5.46
  -2  -6   6   -0.91    3.84
  -2  -6   7   -4.96    6.68
  -2  -6   7    1.83    5.75
  -2  -6   7   -0.73    5.82
  -2  -6   8    9.33    6.78
  -2  -6   8    9.09    6.06
  -2  -6   8    5.74    6.35
  -2  -6   9    1.81    6.68
  -2  -6   9   -5.20    7.24
  -2  -6   9    3.61    6.23
   2   5  -1   17.66    4.85
  -2  -5   1   10.84    3.37
  -2  -5   1   12.70    3.08
  -2  -5   2  150.58    5.32
  -2  -5   2  137.77    5.87
   2   5  -2  144.35    5.71
   2   5  -3  479.50    9.87
  -2  -5   3  569.02   11.47
  -2  -5   3  526.10   10.84
  -2  -5   4   16.02    4.96
  -2  -5   4   14.66    4.96
   2   5  -4   13.68    4.85
  -2  -5   5   55.47    4.24
  -2  -5   5   73.00    5.75
   2   5  -5   58.39    3.93
  -2  -5   6  160.26    6.78
  -2  -5   6  150.37    7.58
  -2  -5   6  162.18    7.07
  -2  -5   7   63.92    4.83
  -2  -5   7   83.75    6.46
  -2  -5   7   80.71    6.14
  -2  -5   8   15.81    4.07
  -2  -5   8   13.30    4.49
  -2  -5   8    6.20    4.28
  -2  -5   9    0.91    6.66
  -2  -5   9    2.83    5.78
  -2  -5   9    0.57    6.23
  -2  -5  10    6.07    6.89
  -2  -5  10    3.20    6.18
  -2  -5  10    4.86    7.25
  -2  -4   1  639.93   11.35
  -2  -4   1  674.64   12.22
   2   4  -1  580.03   10.18
   2   4  -2  354.89    7.03
  -2  -4   2  484.32   10.05
  -2  -4   2  408.01    8.64
   2   4  -3  117.50    4.28
  -2  -4   3  139.87    4.75
  -2  -4   3  118.46    4.36
  -2  -4   4   30.80    4.96
   2   4  -4   24.79    4.66
  -2  -4   4   25.98    4.71
  -2  -4   5   42.81    3.46
  -2  -4   5   60.72    5.63
  -2  -4   6   36.85    5.47
  -2  -4   6   35.79    5.03
  -2  -4   6   38.42    5.09
  -2  -4   7   75.30    6.34
  -2  -4   7   50.37    4.18
  -2  -4   7   83.29    5.70
  -2  -4   8   21.19    5.68
  -2  -4   8   31.84    4.21
  -2  -4   8   19.95    5.82
  -2  -4   9    5.14    6.25
  -2  -4   9    3.51    3.98
  -2  -4   9    5.82    5.99
  -2  -4  10   -0.13    4.61
  -2  -4  10    2.67    6.72
  -2  -4  10    2.59    5.80
   2   3  -1 3404.37   52.50
  -2  -3   1 4180.11   65.41
   2   3  -2    9.57    3.08
  -2  -3   2   10.14    4.29
  -2  -3   3  179.87    4.94
   2   3  -3  189.39    5.24
   2   3  -4  251.88    7.01
  -2  -3   4  232.19    6.35
  -2  -3   5    1.81    3.27
  -2  -3   5    7.25    4.25
  -2  -3   6   83.09    6.27
  -2  -3   6   36.48    3.70
  -2  -3   6   55.42    3.51
  -2  -3   7   10.51    5.53
  -2  -3   7   10.57    5.07
  -2  -3   7   14.50    4.88
  -2  -3   8   82.65    6.97
  -2  -3   8   36.67    4.23
  -2  -3   8   71.26    4.25
  -2  -3   9   66.51    6.05
  -2  -3   9   45.91    4.71
  -2  -3   9   53.79    6.17
  -2  -3  10   18.50    5.82
  -2  -3  10   13.56    4.46
  -2  -3  10   14.82    6.31
  -2  -3  11    3.06    4.98
  -2  -3  11    8.68    6.98
  -2  -3  11    7.40    6.19
   2   2  -1   13.88    3.27
  -2  -2   1   19.88    4.59
  -2  -2   2   47.95    4.47
   2   2  -2   47.50    4.61
   2   2  -3    1.84    4.39
  -2  -2   3    2.78    2.92
   2   2  -4    3.27    4.27
  -2  -2   4    2.33    3.78
  -2  -2   5    4.16    4.31
  -2  -2   5    4.00    2.71
  -2  -2   6    2.31    4.60
  -2  -2   6   -0.22    2.98
  -2  -2   7   31.54    4.72
  -2  -2   7   23.31    3.57
  -2  -2   8   14.29    4.97
  -2  -2   8   17.23    5.26
  -2  -2   9    1.39    5.47
  -2  -2   9    4.55    5.56
  -2  -2   9    3.55    5.76
  -2  -2  10    6.33    5.95
  -2  -2  10    4.14    5.74
  -2  -2  10    9.37    6.28
  -2  -2  11    1.81    6.14
  -2  -2  11    5.42    6.57
  -2  -2  11    4.46    4.82
   2   1  -1 1386.77   25.63
  -2  -1   1 1281.80   23.15
  -2  -1   2  701.88   14.53
   2   1  -2  625.31   12.77
   2   1  -3  113.41    5.07
  -2  -1   3  103.05    3.94
  -2  -1   4   16.88    3.96
  -2  -1   5   49.98    3.28
  -2  -1   5   50.72    3.15
  -2  -1   6    2.69    3.00
  -2  -1   6    1.00    4.20
  -2  -1   7   12.87    4.38
  -2  -1   7   10.50    4.79
  -2  -1   8   -0.84    4.85
  -2  -1   8    2.83    3.65
  -2  -1   9   45.52    5.75
  -2  -1   9   35.57    3.86
  -2  -1  10    4.31    4.10
  -2  -1  10    2.54    4.19
  -2  -1  11    4.88    4.46
  -2  -1  11    5.36    6.29
  -2  -1  11    0.79    4.68
  -2   0   1   78.06    4.12
   2   0  -1   66.50    5.01
  -2   0   2  626.93   13.22
   2   0  -2  455.41   10.26
   2   0  -3    6.95    4.11
  -2   0   3   10.28    4.16
  -2   0   4   18.64    4.10
  -2   0   4   18.40    2.89
  -2   0   5  530.86    9.17
  -2   0   5  629.41   11.64
  -2   0   6  145.81    5.15
  -2   0   6  125.16    4.91
  -2   0   7    0.59    2.96
  -2   0   7    2.82    3.25
  -2   0   8   10.56    4.63
  -2   0   8    2.66    4.50
  -2   0   9   80.42    4.18
  -2   0   9  106.04    5.95
  -2   0  10   18.12    6.64
  -2   0  10   24.68    6.03
  -2   0  10   19.59    3.92
  -2   0  11   -1.66    5.89
  -2   0  11    7.00    6.38
  -2   0  11    0.89    6.80
  -2   1   0  899.86   18.17
   2  -1   0 1090.11   22.51
  -2   1   0 1090.96   24.99
  -2   1   1 1220.44   23.31
  -2   1   1 1131.18   26.60
   2  -1  -1 1084.14   22.78
  -2   1   2    3.72    4.25
   2  -1  -2    2.89    3.80
  -2   1   3   15.85    2.90
  -2   1   3   17.94    4.28
  -2   1   4  223.88    5.17
  -2   1   4  461.45    8.76
  -2   1   5  285.42    5.82
  -2   1   5  538.16    9.99
  -2   1   6   41.82    4.19
  -2   1   6   41.26    4.21
  -2   1   7   19.23    4.02
  -2   1   7   37.09    4.42
  -2   1   7   28.09    4.27
  -2   1   8   25.62    3.26
  -2   1   8   31.04    6.12
  -2   1   8   26.38    4.62
  -2   1   9    1.74    3.39
  -2   1   9    4.23    6.33
  -2   1   9    2.23    4.69
  -2   1  10   26.45    3.88
  -2   1  10   37.16    6.73
  -2   1  10   33.86    5.76
  -2   1  11    1.37    6.64
  -2   1  11    6.27    5.66
  -2   1  11   -2.15    4.33
   2  -2   0  209.54    7.13
  -2   2   0  262.80    6.14
  -2   2   0  254.49    8.25
  -2   2   1  290.35    7.41
  -2   2   1  362.76    8.02
  -2   2   2  212.88    5.40
  -2   2   2  221.81    6.12
  -2   2   2  192.39    5.26
  -2   2   3 3236.37   55.52
  -2   2   3 3240.03   51.68
  -2   2   3 3652.01   57.79
  -2   2   4  303.86    7.52
  -2   2   4  326.41    7.19
  -2   2   4  274.66    5.57
  -2   2   5    3.36    3.57
  -2   2   5    1.73    2.62
  -2   2   5    4.29    2.79
  -2   2   6   64.18    5.64
  -2   2   6   51.36    4.05
  -2   2   6   45.43    4.15
  -2   2   7   26.06    4.18
  -2   2   7   28.96    4.24
  -2   2   7   20.72    4.17
  -2   2   8   21.37    3.20
  -2   2   8   27.40    4.39
  -2   2   8   23.92    6.03
  -2   2   9   42.35    3.48
  -2   2   9   12.35    3.47
  -2   2   9   49.75    6.43
  -2   2  10   39.57    6.52
  -2   2  10   27.66    4.00
  -2   2  10   37.11    5.27
  -2   2  11   31.35    4.07
  -2   2  11   27.02    4.34
  -2   2  11   36.27    6.42
  -2   3   0  656.38   14.85
   2  -3   0  692.90   11.31
  -2   3   0  695.42   16.25
  -2   3   0  663.24   11.18
   2  -3  -1   69.76    4.70
  -2   3   1   73.81    5.29
  -2   3   1   70.54    4.73
  -2   3   1   65.72    4.73
  -2   3   2  477.38   10.72
  -2   3   2  378.18    6.88
  -2   3   2  502.51   10.17
  -2   3   3  147.80    5.34
  -2   3   3  164.88    5.59
  -2   3   3  143.32    5.03
  -2   3   4   46.56    3.92
  -2   3   4   33.23    3.39
  -2   3   4   36.19    4.18
  -2   3   5   88.83    5.62
  -2   3   5   71.46    4.31
  -2   3   5   65.24    4.37
  -2   3   6  114.47    3.88
  -2   3   6  174.69    6.72
  -2   3   6  131.30    4.73
  -2   3   7    4.66    5.54
  -2   3   7    1.44    4.07
  -2   3   7    5.46    3.94
  -2   3   8    9.05    5.72
  -2   3   8    2.52    3.01
  -2   3   8    4.16    2.87
  -2   3   9    8.49    3.22
  -2   3   9   22.76    6.13
  -2   3   9   16.79    3.27
  -2   3  10   14.84    5.01
  -2   3  10   11.28    6.09
  -2   3  10   13.25    4.96
  -2   3  11   13.75    5.68
  -2   3  11   14.48    6.17
  -2   3  11    7.63    3.91
  -2   4   0    5.74    4.04
   2  -4   0    3.91    4.00
  -2   4   0    4.06    6.05
  -2   4   0    3.61    5.51
  -2   4   1   32.81    3.23
  -2   4   1   34.85    4.76
   2  -4  -1   35.17    4.30
  -2   4   1   35.95    4.46
   2  -4  -2  352.40    7.10
  -2   4   2  352.69    9.49
  -2   4   2  353.78    7.12
  -2   4   2  383.52    9.05
  -2   4   3    1.66    4.35
  -2   4   3    4.89    4.29
  -2   4   3    0.82    3.08
  -2   4   4    3.09    4.41
  -2   4   4   -1.20    4.49
  -2   4   4    5.45    4.19
  -2   4   5   70.68    4.77
  -2   4   5   87.99    5.46
  -2   4   5   85.59    4.53
  -2   4   6   48.32    4.47
  -2   4   6   63.55    5.47
  -2   4   6   50.22    4.33
  -2   4   7  131.05    5.33
  -2   4   7  121.24    5.01
  -2   4   7  136.10    5.14
  -2   4   8    1.28    3.99
  -2   4   8    1.01    4.50
  -2   4   8    1.00    2.90
  -2   4   9    3.52    4.71
  -2   4   9    9.40    4.56
  -2   4   9    9.92    5.96
  -2   4  10    8.71    5.82
  -2   4  10    4.95    5.02
  -2   4  10    1.58    3.71
  -2   4  11   18.69    6.20
  -2   4  11   12.28    5.76
  -2   4  11   26.63    5.69
   2  -5   0  408.19    7.57
  -2   5   0  442.54    7.45
  -2   5   0  442.16   14.17
  -2   5   0  453.54    9.60
   2  -5  -1    1.75    2.94
  -2   5   1    1.86    4.53
  -2   5   1    0.26    4.26
  -2   5   1    4.84    4.09
   2  -5  -2   -3.99    4.16
  -2   5   2   -0.46    4.17
  -2   5   2    0.72    4.46
  -2   5   2    1.61    4.45
   2  -5  -3  144.18    4.30
  -2   5   3  143.78    4.29
  -2   5   3  174.15    6.43
  -2   5   3  192.68    6.39
  -2   5   4    7.87    4.42
  -2   5   4    5.57    4.53
  -2   5   4    5.07    3.22
  -2   5   5   47.88    3.76
  -2   5   5   45.42    4.70
  -2   5   5   55.15    4.54
  -2   5   6    8.15    4.64
  -2   5   6    6.46    3.05
  -2   5   6   11.52    5.20
  -2   5   7   88.88    5.48
  -2   5   7  105.53    5.14
  -2   5   7   78.84    4.58
  -2   5   8   23.81    4.77
  -2   5   8   27.63    5.70
  -2   5   8   17.25    3.39
  -2   5   9    5.53    3.36
  -2   5   9    2.89    4.99
  -2   5   9    6.16    3.97
  -2   5  10    9.10    3.71
  -2   5  10    5.63    4.16
  -2   5  10    6.50    3.84
  -2   5  11    6.90    6.00
  -2   5  11    6.19    6.15
  -2   5  11   13.13    5.55
  -2   6   0   94.74    3.74
  -2   6   0  100.83    7.79
  -2   6   0  104.31    6.80
   2  -6   0   89.21    3.70
  -2   6   1  106.47    4.79
  -2   6   1   93.37    6.04
  -2   6   1  110.88    6.18
   2  -6  -1   78.06    3.57
  -2   6   2    1.29    4.55
  -2   6   2    1.49    4.60
  -2   6   2    7.41    4.25
   2  -6  -2    4.43    4.19
  -2   6   3   43.33    5.16
  -2   6   3   48.69    4.59
   2  -6  -3   37.86    3.33
  -2   6   3   42.28    4.95
  -2   6   4    2.35    4.74
  -2   6   4    3.06    4.78
  -2   6   4    5.32    4.68
  -2   6   5   23.82    3.59
  -2   6   5   24.30    4.93
  -2   6   5   19.68    5.01
  -2   6   6    5.74    3.53
  -2   6   6    5.61    5.04
  -2   6   6    9.61    4.86
  -2   6   7    1.18    5.08
  -2   6   7    5.11    5.10
  -2   6   7    4.08    5.43
  -2   6   8    4.59    3.61
  -2   6   8    3.78    5.01
  -2   6   8    2.01    5.59
  -2   6   9   -0.61    4.13
  -2   6   9   -0.95    3.73
  -2   6   9    4.84    3.68
  -2   6  10   -0.54    5.50
  -2   6  10    1.81    5.87
  -2   6  10    2.08    5.33
   2  -7   0    2.60    3.01
  -2   7   0    1.32    8.09
  -2   7   0    2.23    7.39
  -2   7   0    3.33    3.12
  -2   7   1  166.44    4.43
   2  -7  -1  149.90    4.35
  -2   7   1  211.38    8.11
  -2   7   1  193.17   10.58
   2  -7  -2    1.85    3.11
  -2   7   2    4.84    4.39
  -2   7   2    6.12    4.57
  -2   7   2    3.74    5.12
  -2   7   3   71.82    6.09
   2  -7  -3   74.90    4.96
  -2   7   3   77.04    5.16
  -2   7   3   70.60    3.75
  -2   7   4    6.46    5.43
  -2   7   4    4.16    4.81
   2  -7  -4    3.41    3.30
  -2   7   4   -0.53    4.97
  -2   7   5    1.71    5.06
  -2   7   5    4.20    5.09
  -2   7   5    3.39    5.46
  -2   7   6    2.89    5.49
  -2   7   6   -1.55    5.19
  -2   7   6    2.50    3.74
  -2   7   7    6.46    5.47
  -2   7   7    7.00    4.11
  -2   7   7   11.73    5.45
  -2   7   8    4.45    5.67
  -2   7   8    1.49    5.67
  -2   7   8    1.55    5.85
  -2   7   9    5.77    5.95
  -2   7   9    0.42    5.99
  -2   7   9    6.48    5.87
  -2   8   0    2.51   11.87
  -2   8   0    3.86    4.73
  -2   8   0    1.22   10.42
   2  -8   0    3.06    3.28
  -2   8   1    2.53    5.59
  -2   8   1   -1.82    3.26
   2  -8  -1    4.56    4.54
  -2   8   1    0.85    5.46
  -2   8   2    3.03    5.51
   2  -8  -2    5.64    4.64
  -2   8   2    6.64    4.62
  -2   8   2    7.55    6.17
  -2   8   3   12.18    4.99
   2  -8  -3   12.33    4.75
  -2   8   3   10.60    4.96
  -2   8   3   13.94    5.77
   2  -8  -4   11.11    3.60
  -2   8   4   10.36    5.97
  -2   8   4    6.69    3.67
  -2   8   4   10.16    5.20
  -2   8   5    4.19    6.06
  -2   8   5    6.77    5.41
  -2   8   5    3.10    3.78
  -2   8   6    9.21    6.16
  -2   8   6   10.68    5.70
  -2   8   6   12.53    5.71
  -2   8   7    5.15    6.13
  -2   8   7    4.57    4.19
  -2   8   7    6.42    4.34
  -2   8   8    7.11    6.31
  -2   8   8    7.12    6.45
  -2   8   8    4.77    4.38
   2  -9   0   32.40    5.52
  -2   9   0   32.91    4.00
  -2   9   1   46.44    8.66
  -2   9   1   35.32    5.38
   2  -9  -1   45.12    5.56
  -2   9   1   49.65    8.43
  -2   9   2   -0.94    7.44
  -2   9   2    3.56    7.48
   2  -9  -2   -4.97    5.03
  -2   9   2    3.39    3.66
  -2   9   3   11.32    3.91
  -2   9   3   11.95    5.68
   2  -9  -3   10.56    3.87
  -2   9   3    9.61    6.37
  -2   9   4   43.95    5.83
  -2   9   4   43.97    7.07
  -2   9   4   47.12    5.71
   2  -9  -4   43.56    5.48
  -2   9   5   -2.12    5.74
  -2   9   5   -2.72    5.76
   2  -9  -5   -2.37    3.86
  -2   9   5    0.94    6.60
  -2   9   6   -1.12    6.65
  -2   9   6    1.43    4.35
  -2   9   6   -1.84    6.03
  -2   9   7   -1.08    6.83
  -2   9   7    5.16    6.39
  -2   9   7   -2.49    4.60
   2 -10   0    0.84    5.86
  -2  10   0    1.92    4.24
  -2  10   1    9.89   12.05
   2 -10  -1   15.91    5.92
  -2  10   1   14.23    5.69
  -2  10   1    9.84   13.58
  -2  10   2   50.24    9.27
  -2  10   2   43.16    9.07
   2 -10  -2   43.90    5.78
  -2  10   2   33.80    6.02
  -2  10   3   13.21    6.90
   2 -10  -3   13.34    5.86
  -2  10   3   23.78    8.49
  -2  10   3   14.39    5.97
  -2  10   4   -0.55    6.17
  -2  10   4    2.08    7.75
   2 -10  -4    2.79    5.94
  -2  10   4    0.73    7.23
   2 -10  -5    0.99    5.93
  -2  10   5   -3.16    7.58
  -2  10   5    1.90    6.28
  -2  10   5    0.24    6.21
   1  12  -1   23.15    6.37
  -1 -12   1   22.61    6.17
   1  12  -1   35.94   12.45
  -1 -12   1   23.51   10.44
   1  11  -1    2.51    5.50
   1  11  -1    1.09    8.79
  -1 -11   1   -0.81    5.22
  -1 -11   1    0.50    7.17
   1  11  -2   19.17   10.72
   1  11  -2   13.17    5.88
  -1 -11   2   11.16    4.05
  -1 -11   2   13.27    8.92
  -1 -11   3    3.54   12.05
   1  11  -3    1.85    4.20
  -1 -11   3    2.82    5.92
  -1 -11   3    5.27   11.83
  -1 -11   4    1.83    4.49
   1  10  -1    4.54    7.46
  -1 -10   1    3.33    5.91
  -1 -10   1    2.50    4.60
   1  10  -1   -0.74    4.72
  -1 -10   2   12.08    6.29
   1  10  -2   22.23    8.31
  -1 -10   2   11.25    5.08
   1  10  -2   14.63    5.18
   1  10  -3   -0.17    8.15
  -1 -10   3    0.88    5.17
  -1 -10   3    1.79    6.50
   1  10  -3    3.68    3.69
  -1 -10   4    1.76    3.99
  -1 -10   4    0.17    8.14
  -1 -10   4   -0.40    9.08
  -1 -10   5    5.20   11.17
  -1 -10   5    2.41    4.52
  -1 -10   5    4.97   12.00
  -1 -10   6   -0.93    6.76
  -1  -9   1   14.14    3.06
  -1  -9   1   19.36    5.53
   1   9  -1   16.90    3.11
   1   9  -1   19.25    5.56
   1   9  -2    0.97    7.32
  -1  -9   2    4.04    4.51
   1   9  -2    5.15    4.53
  -1  -9   2    3.54    4.65
   1   9  -3    2.72    4.93
   1   9  -3    2.58    7.30
  -1  -9   3    3.21    6.08
  -1  -9   3   -0.68    4.81
  -1  -9   4    5.97    3.64
  -1  -9   4    6.63    5.87
  -1  -9   4   10.64    6.58
  -1  -9   5   16.05    7.32
  -1  -9   5   13.00    4.04
  -1  -9   5    8.73    7.67
  -1  -9   6    9.09    6.13
  -1  -9   6    7.57    8.14
  -1  -9   6   11.06    8.06
  -1  -9   7    4.18   10.32
  -1  -9   7    2.09    8.62
  -1  -9   7    5.94    6.68
  -1  -8   1   25.03    4.61
   1   8  -1   20.24    2.97
  -1  -8   1   14.30    2.97
   1   8  -1   24.66    6.36
   1   8  -2    4.34    2.99
   1   8  -2    5.36    5.28
  -1  -8   2    7.10    4.03
  -1  -8   2    5.45    4.72
  -1  -8   3    4.61    4.99
   1   8  -3    7.31    5.44
  -1  -8   3    4.85    3.03
   1   8  -3    5.86    3.08
  -1  -8   4    6.30    6.45
  -1  -8   4   -1.03    4.80
  -1  -8   5   21.65    5.84
  -1  -8   5   17.55    5.28
  -1  -8   5   20.95    7.18
  -1  -8   6    0.03    6.01
  -1  -8   6    1.00    3.89
  -1  -8   6    3.26    7.22
  -1  -8   7    3.53    6.02
  -1  -8   7    1.63    7.92
  -1  -8   7    0.43    6.44
  -1  -8   8    0.65    6.46
  -1  -8   8    2.74    6.92
  -1  -8   8    0.36    8.49
   1   7  -1  424.76   10.89
   1   7  -1  469.24    7.96
  -1  -7   1  457.79    7.98
  -1  -7   1  549.21   11.60
   1   7  -2  300.30    5.79
  -1  -7   2  349.52    9.13
  -1  -7   2  341.67    7.23
   1   7  -2  343.68    9.56
   1   7  -3  390.24    7.79
  -1  -7   3  374.68    9.98
  -1  -7   3  329.79    8.22
   1   7  -3  333.92   11.06
  -1  -7   4   39.54    4.81
   1   7  -4   56.00    5.77
  -1  -7   4   63.85    6.96
  -1  -7   5    3.23    5.15
  -1  -7   5    1.63    4.75
  -1  -7   5    0.88    5.59
  -1  -7   6    3.86    3.78
  -1  -7   6    6.31    5.96
  -1  -7   6    2.24    5.45
  -1  -7   7    1.85    3.94
  -1  -7   7    0.60    6.16
  -1  -7   7    0.86    5.88
  -1  -7   8    1.07    6.64
  -1  -7   8   -0.12    6.19
  -1  -7   8   -0.79    5.98
  -1  -7   9    8.68    7.18
  -1  -7   9    4.95    6.58
  -1  -7   9    6.92    6.86
   1   6  -1    6.69    2.68
  -1  -6   1    7.81    2.68
   1   6  -1    8.73    4.70
  -1  -6   1   10.20    4.49
   1   6  -2    7.29    3.86
  -1  -6   2    9.64    5.00
   1   6  -2    8.63    4.84
  -1  -6   2    8.53    3.81
   1   6  -3  341.69    7.10
  -1  -6   3  252.28    6.20
   1   6  -3  309.70    9.41
  -1  -6   3  302.58    8.72
  -1  -6   4   21.10    5.30
  -1  -6   4   19.26    4.48
   1   6  -4   25.71    4.91
  -1  -6   5   51.20    5.61
  -1  -6   5   53.87    5.04
  -1  -6   5   72.90    6.15
  -1  -6   6   12.48    5.13
  -1  -6   6   12.35    6.01
  -1  -6   6    9.66    5.17
  -1  -6   7    0.85    3.64
  -1  -6   7   -1.81    6.36
  -1  -6   7    2.39    5.40
  -1  -6   8   55.69    7.07
  -1  -6   8   52.40    6.36
  -1  -6   8   51.59    6.43
  -1  -6   9    4.06    6.04
  -1  -6   9    2.85    6.24
  -1  -6   9    3.48    7.06
  -1  -6  10    7.25    6.95
  -1  -6  10    9.41    7.42
  -1  -6  10    8.56    6.70
  -1  -5   1   23.84    4.91
   1   5  -1   21.60    3.91
  -1  -5   1   19.25    2.79
   1   5  -1   20.16    4.90
   1   5  -2    1.66    3.91
  -1  -5   2    1.50    3.76
  -1  -5   2    3.82    4.78
   1   5  -2    2.94    4.67
  -1  -5   3   95.75    5.65
   1   5  -3   90.21    5.51
  -1  -5   3   79.87    3.54
  -1  -5   4  203.65    7.35
  -1  -5   4  178.19    5.64
   1   5  -4  186.43    7.25
  -1  -5   5   19.22    4.76
  -1  -5   5   32.65    5.81
  -1  -5   5   25.41    3.51
  -1  -5   6   58.18    6.12
  -1  -5   6   47.25    5.36
  -1  -5   6   50.27    5.42
  -1  -5   7   16.11    3.78
  -1  -5   7   17.83    6.13
  -1  -5   7   19.59    5.09
  -1  -5   8    0.86    3.79
  -1  -5   8   -0.08    5.34
  -1  -5   8    3.78    6.09
  -1  -5   9   27.56    5.97
  -1  -5   9   31.51    6.05
  -1  -5   9   38.65    6.75
  -1  -5  10    0.27    6.09
  -1  -5  10    2.14    6.39
  -1  -5  10    3.61    6.91
   1   4  -1  865.83   15.24
   1   4  -1  946.09   13.93
  -1  -4   1  934.67   14.22
  -1  -4   1  934.74   17.25
  -1  -4   2  167.11    4.45
   1   4  -2  178.33    6.53
  -1  -4   2  170.08    6.33
   1   4  -3  131.02    6.01
  -1  -4   3  127.61    5.97
  -1  -4   3  127.47    4.23
  -1  -4   4   33.38    4.95
  -1  -4   4   34.35    4.49
   1   4  -4   31.87    4.66
  -1  -4   5   25.77    4.74
  -1  -4   5   25.84    4.66
  -1  -4   5   22.21    3.58
  -1  -4   6    3.85    5.05
  -1  -4   6    2.53    4.55
  -1  -4   6    2.65    4.78
  -1  -4   7  180.93    8.64
  -1  -4   7  220.84    7.60
  -1  -4   7  198.30    7.97
  -1  -4   8   27.84    5.24
  -1  -4   8   42.20    5.87
  -1  -4   8   31.22    5.24
  -1  -4   9    4.61    4.25
  -1  -4   9    2.27    5.37
  -1  -4   9    4.41    5.44
  -1  -4  10   -0.22    5.90
  -1  -4  10    3.26    6.28
  -1  -4  10    3.52    5.91
  -1  -4  11   10.29    6.75
  -1  -4  11    5.89    6.96
  -1  -4  11    6.59    4.69
  -1  -3   1 1287.39   21.10
   1   3  -1 1127.77   20.73
  -1  -3   1 1089.26   20.72
   1   3  -2  155.24    6.44
  -1  -3   2  128.33    4.88
  -1  -3   2  159.84    4.80
  -1  -3   3  834.10   16.04
  -1  -3   3  681.51   14.26
   1   3  -3  682.91   15.49
  -1  -3   4   77.97    3.93
  -1  -3   4  167.82    6.26
  -1  -3   4  137.84    5.60
  -1  -3   5  335.15    8.97
  -1  -3   5  360.06   10.80
  -1  -3   5  294.69    7.96
  -1  -3   6   30.80    4.83
  -1  -3   6   24.04    3.35
  -1  -3   6   18.57    3.48
  -1  -3   7   20.11    4.84
  -1  -3   7   21.10    4.92
  -1  -3   7   23.82    4.96
  -1  -3   8   20.12    5.07
  -1  -3   8   24.49    5.21
  -1  -3   8   28.18    5.12
  -1  -3   9    8.07    5.52
  -1  -3   9   10.42    5.13
  -1  -3   9   10.59    5.36
  -1  -3  10   22.55    5.80
  -1  -3  10   11.29    4.12
  -1  -3  10   26.16    5.92
  -1  -3  11    2.96    6.15
  -1  -3  11    1.48    7.60
  -1  -3  11    7.11    6.29
  -1  -2   1 4261.35   81.85
  -1  -2   1 4457.14   83.36
   1   2  -1 5242.51   93.04
   1   2  -2    9.51    4.87
  -1  -2   2    9.02    3.35
   1   2  -3  678.67   14.86
  -1  -2   3  743.82   16.82
  -1  -2   4  328.59    8.10
  -1  -2   4  270.77    7.43
  -1  -2   5   28.97    4.12
  -1  -2   5   44.00    5.57
  -1  -2   5   37.41    4.47
  -1  -2   6   40.22    3.44
  -1  -2   6   59.84    5.63
  -1  -2   6   36.45    3.58
  -1  -2   7   26.31    3.90
  -1  -2   7   33.59    4.56
  -1  -2   7   34.29    4.99
  -1  -2   8    3.23    5.01
  -1  -2   8   -0.77    4.83
  -1  -2   8    7.49    4.81
  -1  -2   9   -1.06    5.16
  -1  -2   9    0.87    4.99
  -1  -2   9    2.23    3.58
  -1  -2  10    5.55    6.67
  -1  -2  10    3.70    5.58
  -1  -2  10   -2.55    3.97
  -1  -2  11    1.17    5.87
  -1  -2  11    0.86    5.89
  -1  -2  11   -0.15    4.13
  -1  -2  12    9.07    4.76
  -1  -2  12    9.82    4.81
  -1  -2  12   10.81    7.14
   1   1  -1 2599.76   52.60
  -1  -1   1 2602.66   53.93
  -1  -1   2 1180.76   28.23
   1   1  -2 1247.22   28.47
  -1  -1   3  850.05   20.14
  -1  -1   3  504.71   11.04
  -1  -1   4  258.24    6.75
  -1  -1   4  205.51    6.22
  -1  -1   5   82.57    4.50
  -1  -1   5   82.72    3.74
  -1  -1   6  309.98    6.69
  -1  -1   6  431.91    8.84
  -1  -1   7   56.71    3.55
  -1  -1   7   76.42    5.04
  -1  -1   8    2.84    4.55
  -1  -1   8    0.86    3.27
  -1  -1   9    2.17    3.40
  -1  -1   9    1.92    5.15
  -1  -1   9    2.61    3.46
  -1  -1  10   14.55    5.34
  -1  -1  10   12.85    5.27
  -1  -1  10    8.14    3.85
  -1  -1  11    3.12    5.73
  -1  -1  11    4.61    5.82
  -1  -1  11   -0.01    5.93
  -1  -1  12   -0.53    6.69
  -1  -1  12    2.49    7.86
  -1  -1  12    4.74    6.55
  -1  -1  12   -2.43    6.31
  -1   0   1  464.78   12.71
   1   0  -1  483.47   13.91
  -1   0   2    3.74    4.68
  -1   0   3 1313.21   25.40
  -1   0   3 1425.09   30.27
  -1   0   4  406.64    8.63
  -1   0   4  329.71    6.99
  -1   0   5    0.98    2.78
  -1   0   5    0.71    4.18
  -1   0   6  101.67    3.66
  -1   0   6   96.99    3.70
  -1   0   7    3.19    4.10
  -1   0   7    1.52    2.94
  -1   0   8    5.93    3.17
  -1   0   8    7.15    3.17
  -1   0   9   13.99    4.76
  -1   0   9   12.90    4.89
  -1   0  10   43.70    4.23
  -1   0  10   54.83    5.41
  -1   0  10   63.79    7.44
  -1   0  11   20.11    5.88
  -1   0  11   20.29    7.12
  -1   0  11   23.58    6.17
  -1   0  11   22.35    3.92
  -1   0  12    4.14    6.11
  -1   0  12    8.85    6.08
  -1   0  12    4.06    6.49
  -1   0  12    5.67    4.58
   1  -1   0 9134.78  166.43
  -1   1   1 8316.41  175.86
  -1   1   2 4173.88   82.09
  -1   1   2 5000.74  102.37
  -1   1   3 2022.42   35.50
  -1   1   4   10.95    2.83
  -1   1   5   15.81    2.90
  -1   1   6    2.12    2.87
  -1   1   7   20.79    5.25
  -1   1   7   18.42    4.16
  -1   1   8    5.20    5.28
  -1   1   8    0.68    3.04
  -1   1   8    5.22    4.35
  -1   1   9  338.78    7.66
  -1   1   9  262.45    8.49
  -1   1   9  354.14    8.15
  -1   1  10   33.16    5.44
  -1   1  10   13.06    3.71
  -1   1  10   33.86    4.92
  -1   1  11    6.39    5.35
  -1   1  11    3.63    4.18
  -1   1  11    2.78    5.32
  -1   1  12    8.74    6.87
  -1   1  12    5.82    4.51
  -1   1  12    2.86    4.19
  -1   1  12    5.85    7.47
   1  -2   0    0.63    5.12
  -1   2   0    0.63    5.08
  -1   2   0    2.48    4.94
  -1   2   0    1.61    4.44
  -1   2   1  149.83    6.32
   1  -2  -1  183.76    6.59
  -1   2   1  157.04    6.34
  -1   2   1  161.50    6.33
  -1   2   2 1979.32   32.85
   1  -2  -2 1701.31   31.17
   1  -2  -2 2017.52   34.87
  -1   2   2 1887.26   32.47
   1  -2  -3  481.72    9.93
  -1   2   3  547.30   11.70
  -1   2   3  531.40   10.07
   1  -2  -4   85.22    3.62
  -1   2   4  104.05    4.67
  -1   2   4   91.96    5.15
   1  -2  -5  310.71    6.57
  -1   2   5  295.69    8.24
  -1   2   5  313.99    6.51
   1  -2  -6  117.34    4.53
  -1   2   6  130.38    6.09
  -1   2   6   92.83    3.48
  -1   2   7   92.29    5.73
   1  -2  -7   67.76    3.25
  -1   2   7   86.08    4.41
  -1   2   8  123.21    6.19
  -1   2   8  157.45    5.33
  -1   2   9  207.82    7.21
  -1   2   9  178.26    5.06
  -1   2  10   40.63    5.07
  -1   2  10   35.00    5.18
  -1   2  10   24.89    3.70
  -1   2  11   15.42    6.49
  -1   2  11   22.29    5.65
  -1   2  11   17.66    3.72
  -1   2  12   -2.22    5.72
  -1   2  12    4.41    5.92
  -1   2  12    2.10    6.25
  -1   3   0   24.30    5.56
  -1   3   0   21.93    3.20
   1  -3   0   22.91    3.28
  -1   3   0   25.07    4.60
   1  -3  -1  510.04   11.83
   1  -3  -1  525.62    9.61
  -1   3   1  498.98    9.26
  -1   3   1  528.82   11.32
   1  -3  -2  772.38   15.34
  -1   3   2  809.15   13.23
   1  -3  -2  636.49   10.31
  -1   3   2  833.78   14.96
   1  -3  -3  393.13    8.57
   1  -3  -3  448.98    8.83
  -1   3   3  353.14    7.17
  -1   3   3  320.02    6.50
   1  -3  -4  573.74   10.50
  -1   3   4  633.41   12.10
  -1   3   4  499.76    8.27
  -1   3   5  444.42    9.85
   1  -3  -5  425.06    7.91
  -1   3   5  443.08    7.73
   1  -3  -6    2.79    2.73
  -1   3   6    0.65    4.64
  -1   3   6    1.31    3.88
   1  -3  -7  150.12    4.97
  -1   3   7  160.76    4.97
  -1   3   7  162.19    6.23
  -1   3   8   22.80    4.11
   1  -3  -8   22.43    4.15
  -1   3   8   24.68    4.90
  -1   3   9   57.16    3.46
  -1   3   9   75.57    5.34
  -1   3  10   16.04    5.07
  -1   3  10   13.44    4.88
  -1   3  11    0.54    5.10
  -1   3  11    5.45    3.83
  -1   3  11    8.97    4.88
  -1   3  12    2.73    4.16
  -1   3  12    7.73    6.24
  -1   3  12    2.02    6.09
  -1   4   0  838.10   15.22
  -1   4   0  870.20   12.93
   1  -4   0  835.28   12.58
   1  -4  -1  207.53    7.56
   1  -4  -1  173.58    4.48
  -1   4   1  198.24    6.18
  -1   4   1  181.70    4.50
   1  -4  -2  619.71   10.06
  -1   4   2  536.81    9.25
   1  -4  -2  604.69   12.67
  -1   4   2  450.32    8.49
   1  -4  -3   72.34    3.65
   1  -4  -3   69.47    3.55
  -1   4   3   95.42    4.79
  -1   4   3   94.25    4.77
   1  -4  -4    5.83    3.99
   1  -4  -4    7.53    4.33
  -1   4   4    4.68    2.86
  -1   4   4    4.14    3.04
   1  -4  -5    1.82    3.92
  -1   4   5    5.06    4.58
  -1   4   5    7.09    3.79
   1  -4  -6   -0.02    2.75
  -1   4   6    0.79    3.90
  -1   4   6   -1.78    3.22
  -1   4   7  457.52    8.47
  -1   4   7  492.18   10.86
   1  -4  -7  339.24    6.65
   1  -4  -8    7.14    4.12
  -1   4   8    4.38    4.67
  -1   4   8    4.77    4.11
   1  -4  -9    3.81    4.27
  -1   4   9    2.43    3.00
  -1   4   9    2.40    4.73
  -1   4  10   19.40    5.07
  -1   4  10   21.66    3.45
  -1   4  11    5.30    3.72
  -1   4  11    3.88    5.21
  -1   4  11    3.28    5.32
  -1   4  12    1.12    6.07
  -1   4  12    3.29    6.07
  -1   4  12    1.50    5.86
   1  -5   0   84.04    6.52
  -1   5   0   77.10    6.28
  -1   5   0   82.05    3.39
   1  -5   0   77.09    4.41
   1  -5  -1   39.76    4.96
  -1   5   1   43.18    5.33
  -1   5   1   40.61    4.35
   1  -5  -1   32.76    3.13
  -1   5   2    6.65    4.01
   1  -5  -2    9.40    4.10
  -1   5   2   11.69    4.02
   1  -5  -2    7.43    4.30
   1  -5  -3   55.33    3.67
  -1   5   3   74.80    4.75
  -1   5   3   66.43    4.49
   1  -5  -3   52.47    3.28
   1  -5  -4   14.24    3.06
   1  -5  -4   13.23    4.29
  -1   5   4   14.34    4.31
  -1   5   4   16.32    4.31
   1  -5  -5   80.77    4.66
   1  -5  -5   61.61    3.64
  -1   5   5   69.36    3.64
  -1   5   5   82.29    4.81
  -1   5   6    9.25    4.21
   1  -5  -6    5.40    2.87
  -1   5   6    8.05    4.64
   1  -5  -7    1.08    2.95
  -1   5   7    2.88    4.66
  -1   5   7    2.70    2.96
   1  -5  -8   -0.53    4.23
  -1   5   8    1.19    4.50
  -1   5   8   -0.14    4.75
   1  -5  -9   12.39    4.47
  -1   5   9   13.16    4.89
  -1   5   9    5.81    4.46
   1  -5 -10    2.18    3.54
  -1   5  10    4.96    4.91
  -1   5  10   -0.61    4.85
  -1   5  11   -1.85    3.69
  -1   5  11    0.86    5.43
  -1   6   0    8.86    5.91
  -1   6   0   12.51    4.15
   1  -6   0   12.30    5.68
   1  -6   0    8.77    4.04
   1  -6  -1   88.89    3.51
   1  -6  -1  114.17    7.11
  -1   6   1   93.01    5.23
  -1   6   1  103.43    3.55
   1  -6  -2  206.62    7.23
   1  -6  -2  159.33    4.19
  -1   6   2  199.48    5.81
  -1   6   2  210.67    5.58
   1  -6  -3   34.48    4.85
  -1   6   3   39.12    4.59
  -1   6   3   30.46    3.02
   1  -6  -3   28.53    3.02
   1  -6  -4   17.16    4.59
   1  -6  -4   11.86    3.08
  -1   6   4   10.14    3.04
  -1   6   4   14.28    4.35
   1  -6  -5    1.02    4.36
   1  -6  -5    3.01    4.54
  -1   6   5    2.95    4.44
  -1   6   5    3.77    4.38
   1  -6  -6   19.96    3.19
  -1   6   6   31.81    4.78
  -1   6   6   31.47    4.71
   1  -6  -7   -0.89    4.42
  -1   6   7    3.35    4.57
  -1   6   7    2.38    4.77
   1  -6  -8    3.30    4.60
  -1   6   8   -1.53    4.76
  -1   6   8    2.41    4.72
  -1   6   9    0.30    4.94
   1  -6  -9    0.50    4.91
  -1   6   9    7.25    4.91
   1  -6 -10    3.99    5.27
  -1   6  10    4.56    5.16
  -1   6  10    2.73    5.07
  -1   6  11    1.41    3.89
  -1   6  11    0.44    5.65
   1  -7   0   35.74    3.15
  -1   7   0   35.61    3.14
  -1   7   0   33.93    6.65
   1  -7  -1   30.13    6.47
  -1   7   1   29.19    4.26
  -1   7   1   25.86    5.04
   1  -7  -1   21.01    3.08
   1  -7  -2  114.56    6.46
  -1   7   2  134.26    5.66
  -1   7   2  138.06    5.09
   1  -7  -2  122.76    4.98
   1  -7  -3   16.48    5.09
  -1   7   3   13.41    3.20
   1  -7  -3   19.82    4.35
  -1   7   3   15.58    4.48
   1  -7  -4    2.74    4.26
  -1   7   4    3.14    4.42
  -1   7   4    1.98    4.31
   1  -7  -4    3.80    4.84
   1  -7  -5  110.60    4.60
  -1   7   5  107.80    4.24
   1  -7  -5  124.94    5.46
  -1   7   5  152.94    5.81
   1  -7  -6   51.43    5.18
   1  -7  -6   44.13    5.14
  -1   7   6   59.32    5.21
  -1   7   6   45.26    3.87
  -1   7   7    3.85    5.14
  -1   7   7    1.56    3.53
   1  -7  -7    3.38    4.92
   1  -7  -8   -2.08    4.87
  -1   7   8   -2.13    5.10
  -1   7   8   -1.54    5.03
   1  -7  -9    7.12    5.14
  -1   7   9    9.70    5.26
  -1   7   9    7.56    5.36
   1  -7 -10    3.52    5.41
  -1   7  10    6.13    5.54
  -1   7  10    4.14    3.89
   1  -8   0  150.12    4.50
  -1   8   0  180.52   10.75
  -1   8   0  201.31    5.80
  -1   8   0  203.38   12.96
  -1   8   1    9.62    5.32
   1  -8  -1   10.72    6.69
  -1   8   1    9.44    4.35
   1  -8  -1   12.93    4.33
   1  -8  -2  114.00    7.15
  -1   8   2  118.15    6.25
   1  -8  -2   85.60    3.80
  -1   8   2   96.16    3.90
   1  -8  -3   24.42    5.54
  -1   8   3   29.50    4.75
  -1   8   3   33.70    5.11
   1  -8  -3   24.78    4.60
  -1   8   4    1.44    4.82
  -1   8   4    2.24    3.37
   1  -8  -4    1.70    4.56
   1  -8  -4    1.22    3.86
   1  -8  -5    5.33    5.24
   1  -8  -5    3.54    3.48
  -1   8   5   -0.27    3.48
  -1   8   5    3.65    5.00
   1  -8  -6    0.14    5.02
  -1   8   6    0.69    3.48
   1  -8  -6    1.30    5.08
  -1   8   6   -1.63    5.09
  -1   8   7   12.97    3.84
  -1   8   7   12.19    5.52
   1  -8  -7   12.28    5.28
  -1   8   8   -2.43    5.30
   1  -8  -8    1.75    3.78
  -1   8   8    7.19    5.77
   1  -8  -9    0.28    5.59
  -1   8   9   -1.58    5.58
  -1   8   9    4.04    6.11
   1  -8 -10    3.47    5.80
   1  -9   0  184.60    6.26
  -1   9   0  207.08   13.59
  -1   9   0  227.71    6.44
  -1   9   0  216.73   16.14
  -1   9   1   57.19    5.06
   1  -9  -1   59.13    4.99
  -1   9   1   73.69    7.84
   1  -9  -2   12.78    4.82
  -1   9   2   14.78    7.25
   1  -9  -2   12.27    7.19
  -1   9   2    7.18    3.44
   1  -9  -3   16.37    6.08
  -1   9   3   18.48    3.51
  -1   9   3   25.45    5.67
   1  -9  -3   17.30    5.13
  -1   9   4   -1.75    5.20
   1  -9  -4    1.00    5.84
  -1   9   4    2.42    5.10
   1  -9  -4   -3.28    4.97
   1  -9  -5   10.32    5.77
  -1   9   5   11.15    5.37
  -1   9   5    8.84    5.39
   1  -9  -5    5.29    5.21
   1  -9  -6    5.09    5.52
  -1   9   6   -0.56    5.48
  -1   9   6    0.57    5.61
   1  -9  -6    2.74    5.50
   1  -9  -7   24.86    4.21
  -1   9   7   32.73    5.85
  -1   9   7   26.59    4.40
   1  -9  -8   10.96    5.81
  -1   9   8    9.66    4.74
  -1   9   8   12.87    6.01
  -1  10   0   20.81    5.34
   1 -10   0   16.01    3.96
   1 -10  -1   -0.47    3.62
  -1  10   1    4.52    3.62
  -1  10   1    3.19    7.32
  -1  10   1    1.54    7.33
   1 -10  -2    5.12    5.43
  -1  10   2    1.68    3.83
  -1  10   2    1.05    7.92
   1 -10  -3    2.09    6.41
  -1  10   3    1.92    3.83
  -1  10   3    0.80    7.87
   1 -10  -3   -2.41    5.48
   1 -10  -4   11.74    6.49
   1 -10  -4   12.37    5.42
  -1  10   4    9.37    5.68
  -1  10   4   13.04    6.13
   1 -10  -5    3.58    6.16
   1 -10  -5    0.92    5.75
  -1  10   5    2.72    5.97
  -1  10   5    0.52    5.91
   1 -10  -6    0.45    4.28
  -1  10   6   -3.89    6.13
  -1  10   6    1.83    4.37
   1 -10  -6   -2.38    5.97
   1 -10  -7    0.75    6.29
   1 -10  -7    3.62    6.41
  -1  10   7    4.44    6.38
  -1  10   7    0.02    6.48
   1 -11   0    3.76    5.87
  -1  11   0    7.47    4.22
   1 -11  -1    2.35    5.84
  -1  11   1    6.49    5.95
  -1  11   1    1.17   10.79
  -1  11   1    2.23    9.99
  -1  11   2    7.29    5.97
  -1  11   2   -0.26    6.68
  -1  11   2    1.99    8.62
   1 -11  -2    1.27    4.16
  -1  11   3    8.80    4.23
   1 -11  -3    9.16    5.93
  -1  11   3   11.43    7.65
  -1  11   4    4.71    7.27
   1 -11  -4    5.17    6.20
  -1  11   4   10.61    6.44
   1 -11  -5    6.41    4.83
  -1  11   5    9.23    6.60
   1 -11  -5    5.36    4.57
  -1  11   5    7.32    6.92
   0  11  -1    3.18    5.69
   0 -11   1    5.29    3.88
   0  11  -2    4.37    5.82
   0 -11   2   -0.97    3.97
   0  11  -3   10.54    6.11
   0 -11   3    8.76    4.25
   0  10  -1   50.00   11.49
   0  10  -1   33.55    3.87
   0 -10   1   30.16    5.14
   0 -10   1   40.73   10.68
   0  10  -2    3.14    5.16
   0 -10   2    2.16    3.51
   0  10  -3   17.91    3.96
   0 -10   3   17.31    3.88
   0  10  -4    8.92    4.11
   0 -10   4    4.55    5.78
   0 -10   5    8.84    6.28
   0  10  -5    2.14    6.27
   0   9  -1   46.91    4.74
   0   9  -1   52.09    8.15
   0  -9   1   51.98    9.19
   0  -9   1   41.19    4.66
   0   9  -2    0.92    4.57
   0  -9   2    4.04    3.22
   0  -9   3    2.96    3.47
   0   9  -3    4.76    4.81
   0  -9   4   -1.65    5.26
   0   9  -4    2.38    5.25
   0  -9   5    3.28    4.10
   0   9  -5    1.68    5.56
   0  -9   6    1.31    6.29
   0  -9   7    3.30    7.08
   0   8  -1  442.38    8.24
   0   8  -1  405.81   14.44
   0  -8   1  404.05    7.96
   0  -8   1  430.22   14.27
   0   8  -2   97.83   10.41
   0  -8   2   75.55    3.69
   0   8  -2  102.00    4.82
   0  -8   2   92.31   10.34
   0  -8   3    1.72    4.40
   0   8  -3    0.88    3.01
   0   8  -4    9.39    4.61
   0  -8   4    4.83    3.35
   0   8  -5   -4.48    5.09
   0  -8   5    0.16    5.12
   0  -8   6    0.59    4.06
   0  -8   7    1.19    6.43
   0  -8   8    0.85    7.01
   0   7  -1    9.84    6.21
   0  -7   1    9.76    5.29
   0  -7   1   10.25    2.67
   0   7  -1    7.82    3.84
   0   7  -2  164.89    4.25
   0  -7   2  169.43    5.33
   0  -7   2  166.59    8.66
   0   7  -2  174.97   10.46
   0  -7   3   90.90    4.96
   0   7  -3  117.18    5.01
   0  -7   3   97.48    8.27
   0  -7   3  109.96   10.52
   0  -7   4    6.32    4.42
   0   7  -4    5.22    3.10
   0  -7   4    4.83    8.15
   0  -7   4    4.56    9.89
   0   7  -5    2.15    4.65
   0  -7   5    2.20    8.34
   0  -7   5    1.41    9.80
   0  -7   5    1.78    3.28
   0  -7   6    2.72    9.06
   0  -7   6    2.22    7.89
   0  -7   6    1.72    5.31
   0  -7   7   15.65    8.70
   0  -7   7   13.67    4.43
   0  -7   7   14.35    8.72
   0  -7   8    3.05    7.83
   0  -7   8   11.63    6.41
   0  -7   8    5.41    7.76
   0  -7   9   19.61    8.64
   0  -7   9   28.05    7.15
   0  -7   9   20.39    8.91
   0   6  -1   72.45    6.53
   0   6  -1   82.70    4.13
   0  -6   1   65.64    3.11
   0  -6   1   69.49    5.41
   0  -6   2   12.45    3.76
   0  -6   2   12.97    4.81
   0   6  -2   13.85    3.72
   0   6  -2   11.87    6.01
   0  -6   3   85.91    7.87
   0   6  -3   98.07    4.45
   0  -6   3   91.40    7.17
   0  -6   3   83.58    4.69
   0  -6   4  112.59    7.70
   0   6  -4  106.89    3.77
   0  -6   4  112.53    5.37
   0  -6   4  134.33    9.60
   0  -6   5    4.15    3.12
   0   6  -5    3.18    4.47
   0  -6   5    4.12    7.23
   0  -6   5    4.43    6.35
   0  -6   6    4.60    5.02
   0  -6   6    3.04    6.75
   0  -6   6    4.94    6.86
   0  -6   7    5.14    5.53
   0  -6   7    1.38    7.11
   0  -6   7    2.95    7.20
   0  -6   8   -4.27    6.20
   0  -6   8    0.21    7.46
   0  -6   8    0.74    7.80
   0  -6   9   29.33    6.90
   0  -6   9   26.59    7.03
   0  -6   9   36.71    7.05
   0  -6  10    2.65    6.99
   0  -6  10   -0.24    7.34
   0  -6  10    1.56    7.30
   0   5  -1   34.56    2.83
   0  -5   1   31.19    2.88
   0  -5   1   30.15    4.05
   0   5  -1   31.36    6.04
   0   5  -2  480.21    7.56
   0  -5   2  451.20   11.16
   0  -5   2  488.96    8.39
   0   5  -2  428.63   13.45
   0  -5   3   43.47    6.01
   0   5  -3   57.33    4.08
   0  -5   3   52.27    4.18
   0  -5   3   39.39    6.51
   0   5  -4    8.96    2.97
   0  -5   4    7.27    4.13
   0  -5   4   10.31    6.03
   0  -5   4   10.84    5.74
   0   5  -5    7.83    3.30
   0  -5   5    8.01    4.39
   0  -5   5    8.82    5.44
   0  -5   5   11.82    6.15
   0  -5   6    7.56    7.18
   0  -5   6   10.02    4.81
   0  -5   6    7.89    5.22
   0  -5   7   80.53    6.25
   0  -5   7   97.75    6.95
   0  -5   7   96.59    6.97
   0  -5   8   -0.55    5.76
   0  -5   8    3.61    5.78
   0  -5   8    4.79    6.22
   0  -5   9   15.43    6.35
   0  -5   9   19.49    6.46
   0  -5   9   19.87    6.59
   0  -5  10    4.47    8.31
   0  -5  10    3.62    6.87
   0  -5  10    2.35    6.71
   0  -4   1    1.18    4.12
   0   4  -1    1.32    2.64
   0  -4   1   -1.69    3.65
   0   4  -1    0.73    5.94
   0   4  -2   73.04    3.24
   0  -4   2   78.72    4.15
   0   4  -2   69.38    6.54
   0  -4   2   77.07    6.93
   0  -4   3   26.07    5.47
   0   4  -3   33.03    3.89
   0  -4   3   27.88    3.79
   0  -4   3   15.80    4.77
   0   4  -4  266.30    6.38
   0  -4   4  226.82    6.54
   0  -4   4  221.99    8.37
   0  -4   4  246.07    9.70
   0  -4   5   34.26    5.63
   0  -4   5   34.42    4.48
   0  -4   5   36.39    5.03
   0  -4   6    4.70    4.60
   0  -4   6    3.78    5.22
   0  -4   6    6.26    4.81
   0  -4   7  148.93    7.19
   0  -4   7  129.47    7.15
   0  -4   7  147.34    7.43
   0  -4   8   -0.58    5.38
   0  -4   8    0.81    5.26
   0  -4   8    1.79    5.67
   0  -4   9   42.73    6.50
   0  -4   9   41.28    6.27
   0  -4   9   53.84    6.41
   0  -4  10    5.46    6.34
   0  -4  10   12.03    7.82
   0  -4  10    9.39    6.32
   0  -4  11    5.71    6.76
   0  -4  11    9.51    6.89
   0  -4  11    4.30    8.46
   0  -3   1   76.85    7.05
   0   3  -1   64.32    6.92
   0   3  -1   71.64    4.68
   0  -3   1   76.51    4.72
   0   3  -2  704.79   12.05
   0   3  -2  606.95   17.48
   0  -3   2  439.03   12.28
   0  -3   2  712.53   11.83
   0   3  -3  370.17    7.11
   0  -3   3  371.96   10.75
   0  -3   3  425.89    8.60
   0  -3   3  439.82   12.44
   0  -3   4  117.83    6.77
   0  -3   4  123.34    5.11
   0  -3   4  118.70    5.85
   0  -3   5   42.69    3.32
   0  -3   5   45.56    5.67
   0  -3   5   42.19    4.81
   0  -3   6   27.72    4.80
   0  -3   6   32.82    4.56
   0  -3   6   32.38    4.68
   0  -3   7   -0.99    4.91
   0  -3   7   -0.88    4.84
   0  -3   7    0.86    4.71
   0  -3   8    9.36    5.05
   0  -3   8    6.61    5.32
   0  -3   8   11.94    4.94
   0  -3   9   14.96    5.82
   0  -3   9   16.08    5.45
   0  -3   9   16.46    5.50
   0  -3  10    1.34    5.85
   0  -3  10    2.94    6.15
   0  -3  10    4.60    5.63
   0  -3  11   -0.12    8.10
   0  -3  11    1.67    6.34
   0  -3  11    1.34    6.08
   0  -2   1  604.99   12.21
   0  -2   1  565.45   16.71
   0   2  -1  522.64   16.52
   0   2  -1  633.42   12.73
   0   2  -2 6447.64   98.72
   0  -2   2 6320.12   96.77
   0   2  -3  135.83    5.88
   0  -2   3  111.33    6.14
   0  -2   3  118.49    4.37
   0  -2   3  141.84    6.85
   0  -2   4  133.59    5.56
   0  -2   4  105.65    5.27
   0  -2   4  139.92    5.90
   0  -2   5  150.54    5.84
   0  -2   5  172.78    6.73
   0  -2   5  100.15    4.18
   0  -2   6  347.50    8.39
   0  -2   6  477.38   15.48
   0  -2   6  477.49   11.48
   0  -2   7   85.85    5.11
   0  -2   7   95.33    6.98
   0  -2   7   88.63    5.40
   0  -2   8   19.10    6.27
   0  -2   8   13.90    3.42
   0  -2   8   24.85    4.92
   0  -2   9    3.97    6.64
   0  -2   9    2.22    4.90
   0  -2   9    0.27    3.50
   0  -2  10    2.18    7.21
   0  -2  10    0.95    5.55
   0  -2  10    3.35    5.21
   0  -2  11   -0.02    4.00
   0  -2  11    1.88    5.97
   0  -2  11    0.04    7.71
   0  -2  12   -0.69    9.55
   0  -2  12    1.41    8.96
   0  -2  12   -0.59    4.59
   0  -2  12   -2.61    6.20
   0   1  -1   68.29    6.58
   0  -1   1   67.11    6.35
   0   1  -1   50.29    7.27
   0  -1   1   56.57    8.27
   0  -1   2  972.77   22.33
   0  -1   2  881.02   19.98
   0   1  -3  314.13    8.79
   0  -1   3  334.27   10.03
   0  -1   3  350.60    9.18
   0   1  -4  378.84    9.05
   0  -1   4  423.50   12.45
   0  -1   4  414.72    9.65
   0   1  -5    0.16    2.79
   0  -1   5   -0.01    4.30
   0  -1   5    1.75    3.96
   0   1  -6    3.18    4.21
   0  -1   6    2.86    4.33
   0  -1   6    3.18    3.02
   0  -1   7  159.96    8.37
   0  -1   7  187.08    6.24
   0  -1   8    3.40    4.71
   0  -1   8    2.67    4.61
   0  -1   8   -2.49    4.36
   0  -1   9    1.47    4.62
   0  -1   9    0.74    5.24
   0  -1   9   -1.21    4.80
   0  -1  10    3.74    5.26
   0  -1  10    4.34    4.97
   0  -1  10    7.18    6.96
   0  -1  11   14.62    7.76
   0  -1  11   16.65    5.42
   0  -1  11   12.17    5.81
   0  -1  11   10.55    6.55
   0  -1  12    7.87    4.44
   0  -1  12    6.54   11.28
   0  -1  12    7.09    6.16
   0  -1  12    5.12   12.30
   0   0   1 2188.23   46.67
   0   0  -1 2168.99   45.20
   0   0   2   70.09    6.16
   0   0  -2   65.70    6.19
   0   0   3   19.40    3.61
   0   0  -3   21.08    3.76
   0   0   4  412.16    9.17
   0   0  -4  379.78    8.44
   0   0  -5  524.99    9.31
   0   0   5  460.34    8.86
   0   0  -6    3.16    4.09
   0   0   6    3.22    4.05
   0   0   7  280.16   12.65
   0   0   7  253.37    5.96
   0   0  -7  246.81    5.46
   0   0  -8  151.49    5.34
   0   0   8  142.18    9.34
   0   0   8  163.64    5.75
   0   0   9   29.75    5.32
   0   0   9   30.64    5.94
   0   0   9   34.32    4.95
   0   0  10    5.25    6.73
   0   0  10    4.37    3.50
   0   0  10    5.00    5.81
   0   0  10    3.48    3.58
   0   0  11   24.70    7.90
   0   0  11   11.19    4.02
   0   0  11   25.93    5.43
   0   0  11   27.04    9.11
   0   0  12    2.78    5.88
   0   0  12    4.87    6.25
   0   1   0 1492.07   34.04
   0  -1   0 1598.75   35.14
   0   1   0 1635.35   30.31
   0  -1   0 1750.36   32.62
   0  -1  -1   27.05    5.32
   0   1   1   34.69    6.66
   0   1   1   33.15    7.12
   0  -1  -1   29.49    4.82
   0   1   2  781.16   18.36
   0  -1  -2  842.46   21.75
   0   1   2 1004.00   18.44
   0  -1  -2  916.24   17.13
   0   1   3  474.70   12.90
   0   1   3  542.52   10.48
   0  -1  -3  659.30   12.40
   0   1   4   42.99    5.18
   0   1   4   57.53    4.46
   0  -1  -4   56.00    4.50
   0  -1  -5  411.70    7.28
   0   1   5  372.16   10.83
   0   1   5  328.97    6.51
   0   1   6  157.75    7.61
   0   1   6  178.34    5.24
   0  -1  -6  166.92    5.08
   0  -1  -7   24.90    4.11
   0   1   7   24.08    4.17
   0   1   7   19.54    5.64
   0  -1  -8   20.82    4.08
   0   1   8   20.97    5.62
   0   1   8   26.21    4.40
   0  -1  -9  333.50    7.33
   0   1   9  271.01    8.60
   0   1   9  157.95    5.00
   0  -1 -10   19.62    3.50
   0   1  10   26.05    6.87
   0   1  10   31.29    5.18
   0   1  10   17.90    6.09
   0   1  11   28.75    5.57
   0   1  11   32.25    8.86
   0   1  11   28.35    8.08
   0   1  12    0.74    6.09
   0   1  12   -3.33    4.03
   0   2   0  372.27   12.40
   0   2   0  360.70    9.04
   0  -2   0  332.08   10.31
   0  -2   0  326.65    7.84
   0   2   1  140.64    6.50
   0   2   1  110.17    5.15
   0  -2  -1  150.60    6.69
   0  -2  -1  122.49    5.15
   0  -2  -2 3386.07   52.92
   0   2   2 3153.47   48.96
   0   2   2 3539.22   50.52
   0  -2  -2 3167.34   46.94
   0   2   3  606.15   10.00
   0  -2  -3  515.57   11.10
   0  -2  -3  682.76   11.64
   0   2   3  630.88   12.55
   0   2   4   39.80    3.15
   0   2   4   43.14    5.00
   0  -2  -4   42.59    3.20
   0   2   5   12.73    3.03
   0   2   5   12.13    4.59
   0  -2  -5   13.36    2.84
   0   2   6   24.72    4.66
   0   2   6   27.41    2.83
   0  -2  -6   32.96    4.13
   0   2   7   -0.49    4.32
   0   2   7    3.91    3.91
   0  -2  -7    0.13    3.86
   0  -2  -8  192.37    4.74
   0   2   8  183.27    6.33
   0   2   8  151.89    4.37
   0  -2  -9   68.88    3.66
   0   2   9   84.05    6.17
   0   2   9   36.65    3.57
   0  -2 -10    9.26    3.35
   0   2  10    6.42    4.96
   0   2  10    6.30    3.55
   0  -2 -11   20.62    3.85
   0   2  11   22.87    4.07
   0   2  11   26.33    8.57
   0   2  11   17.69    6.86
   0   2  12   22.51    6.15
   0   3   0   91.77    6.08
   0   3   0   90.78    3.88
   0  -3   0   91.02    3.96
   0  -3   0   84.06    5.26
   0  -3  -1  631.13   11.07
   0  -3  -1  580.38   11.18
   0   3   1  603.42   11.78
   0   3   1  524.62    9.25
   0  -3  -2  751.93   13.16
   0   3   2  526.11    9.34
   0   3   2  591.22    9.95
   0  -3  -2  759.56   12.83
   0   3   3  232.03    6.26
   0   3   3  173.32    4.51
   0  -3  -3  234.31    6.61
   0  -3  -3  246.81    6.05
   0   3   4   37.72    4.42
   0   3   4   42.38    4.28
   0  -3  -4   38.89    4.61
   0  -3  -4   34.51    3.08
   0   3   5   37.16    3.29
   0   3   5   56.99    4.21
   0  -3  -5   43.39    3.01
   0   3   6  184.44    5.84
   0   3   6  115.73    3.69
   0  -3  -6  164.48    4.14
   0   3   7  405.77    7.45
   0   3   7  293.04    7.10
   0  -3  -7  336.39    6.74
   0   3   8  269.46    7.14
   0  -3  -8  270.96    6.33
   0   3   8  325.27    6.90
   0   3   9   10.40    4.51
   0  -3  -9   12.36    4.41
   0   3   9   12.61    3.23
   0  -3 -10    8.92    4.76
   0   3  10   -1.57    3.39
   0   3  10    2.65    4.92
   0  -3 -11   -1.31    5.10
   0   3  11    0.37    5.25
   0   3  11    1.96    7.56
   0  -3 -12    4.41    5.65
   0   3  12    4.04    9.53
   0   3  12    4.10    9.99
   0   3  12    5.71    4.27
   0   4   0   21.92    5.04
   0   4   0   26.14    4.01
   0  -4   0   21.70    4.14
   0  -4   0   23.52    4.07
   0   4   1  524.74   10.70
   0   4   1  468.97    7.69
   0  -4  -1  470.24    7.70
   0  -4  -1  500.94    9.63
   0   4   2   10.17    2.74
   0  -4  -2   12.08    4.01
   0   4   2   12.08    3.92
   0  -4  -2   10.38    3.85
   0   4   3    1.97    3.65
   0   4   3    2.30    3.76
   0  -4  -3   -0.44    3.89
   0  -4  -3   -2.14    3.75
   0   4   4  402.07    6.69
   0  -4  -4  434.96    8.56
   0   4   4  460.67    7.99
   0  -4  -4  469.35    7.99
   0   4   5  112.44    4.56
   0   4   5   95.58    4.58
   0  -4  -5  105.18    4.46
   0  -4  -5  100.04    5.10
   0   4   6  239.89    4.84
   0   4   6  290.59    6.70
   0  -4  -6  251.67    5.03
   0  -4  -7  146.92    4.95
   0   4   7  129.74    5.30
   0   4   7  135.49    3.89
   0   4   8   53.47    4.76
   0  -4  -8   63.77    4.55
   0   4   8   69.89    4.59
   0   4   9   58.53    5.08
   0   4   9   30.33    3.42
   0  -4  -9   56.63    3.58
   0  -4 -10   16.16    3.50
   0   4  10   18.81    4.86
   0   4  10   17.10    5.20
   0   4  11    0.17    5.56
   0  -4 -11    0.77    3.52
   0   4  11    1.96    3.72
   0  -4 -12    6.01    3.93
   0   4  12    8.85    7.92
   0   4  12   11.13    5.87
   0   5   0  360.87    6.66
   0  -5   0  295.68    5.49
   0  -5   0  301.72    7.12
   0   5   0  366.18   10.32
   0   5   1   31.93    4.61
   0   5   1   36.83    3.97
   0  -5  -1   28.20    2.89
   0  -5  -1   33.02    4.12
   0   5   2 1051.03   15.37
   0   5   2 1029.39   13.64
   0  -5  -2  864.24   13.19
   0  -5  -2 1023.59   13.84
   0   5   3  264.87    5.11
   0   5   3  307.61    6.49
   0  -5  -3  302.12    6.35
   0  -5  -3  295.78    6.57
   0  -5  -4   19.85    4.30
   0   5   4   24.03    4.06
   0   5   4   24.61    4.10
   0  -5  -4   22.41    3.93
   0  -5  -5  162.50    5.74
   0   5   5  176.22    5.30
   0   5   5  184.78    5.28
   0  -5  -5  138.98    3.95
   0   5   6  336.85    7.00
   0   5   6  350.75    6.94
   0  -5  -6  274.30    6.82
   0  -5  -6  312.95    6.53
   0  -5  -7    4.26    3.96
   0   5   7    5.09    4.19
   0   5   7    1.24    2.89
   0   5   8    0.04    4.38
   0   5   8   -0.81    2.99
   0  -5  -8    2.29    4.20
   0   5   9    1.64    4.52
   0   5   9   -0.06    3.11
   0  -5  -9    3.49    4.33
   0  -5 -10   12.60    4.77
   0   5  10   12.53    5.15
   0   5  10    2.66    3.39
   0  -5 -11   -2.98    5.09
   0   5  11   -1.03    3.66
   0   5  11   -0.85    5.73
   0  -5 -12    1.79    5.87
   0   5  12    6.13    6.02
   0   5  12   -0.67    8.19
   0  -6   0   -0.45    3.88
   0   6   0    1.05    2.54
   0  -6   0   -1.13    4.04
   0   6   0   -0.45    4.83
   0   6   1    2.55    4.63
   0   6   1    3.81    2.69
   0  -6  -1    6.10    3.69
   0  -6  -1    3.22    3.85
   0   6   2  295.35    6.24
   0   6   2  404.72    6.94
   0  -6  -2  316.70    5.62
   0  -6  -2  314.39    6.37
   0   6   3  150.27    4.30
   0   6   3  216.42    5.30
   0  -6  -3  195.30    5.28
   0  -6  -3  205.32    5.83
   0   6   4   41.68    3.18
   0   6   4   55.54    4.46
   0  -6  -4   49.78    4.57
   0  -6  -4   36.56    3.10
   0   6   5   30.79    4.24
   0   6   5   32.90    4.47
   0  -6  -5   30.44    4.50
   0  -6  -5   28.22    4.19
   0   6   6  118.91    4.97
   0   6   6  121.72    5.14
   0  -6  -6  119.91    5.55
   0  -6  -6  107.98    4.96
   0   6   7   57.00    4.78
   0   6   7   42.31    3.50
   0  -6  -7   55.34    5.42
   0  -6  -7   45.22    4.65
   0   6   8    2.21    4.48
   0   6   8    2.76    4.64
   0  -6  -8    0.65    4.46
   0   6   9    2.06    4.83
   0   6   9    1.65    3.47
   0  -6  -9    2.59    4.72
   0  -6 -10    5.29    3.73
   0   6  10    4.23    5.37
   0   6  10    2.64    3.74
   0  -6 -11    2.65    3.91
   0   6  11    3.46    6.00
   0   6  11   -2.10    3.82
   0  -7   0    8.99    3.88
   0   7   0   12.85    5.86
   0  -7   0    9.92    4.26
   0   7   0   14.88    4.02
   0   7   1   75.43    3.28
   0  -7  -1   67.91    3.32
   0  -7  -1   72.95    4.85
   0   7   1   82.14    5.61
   0   7   2    5.28    4.62
   0  -7  -2    0.73    2.79
   0   7   2    2.47    3.90
   0  -7  -2    2.31    4.10
   0   7   3    6.15    3.17
   0   7   3    2.98    2.94
   0  -7  -3    4.19    3.05
   0  -7  -3    8.44    4.14
   0   7   4   72.22    3.54
   0   7   4   70.64    3.58
   0  -7  -4   67.87    3.60
   0  -7  -4   73.05    4.74
   0   7   5   -1.95    4.19
   0   7   5   -0.17    4.38
   0  -7  -5   -1.32    3.11
   0  -7  -5   -0.55    4.13
   0   7   6   16.86    4.81
   0   7   6   12.97    3.23
   0  -7  -6   18.47    4.91
   0  -7  -6   12.49    3.19
   0   7   7    0.00    4.53
   0   7   7    2.72    3.29
   0  -7  -7    2.02    3.52
   0  -7  -7   -0.19    3.05
   0  -7  -8    3.12    4.72
   0   7   8    6.15    4.85
   0   7   8    0.49    4.99
   0   7   9    1.76    5.07
   0   7   9   -1.43    5.30
   0  -7  -9    1.01    5.07
   0  -7 -10   -2.12    3.96
   0   7  10    4.03    5.43
   0   7  10    2.17    3.98
   0  -7 -11   15.59    4.11
   0   7  11   14.87    6.52
   0   7  11   13.19    5.98
   0   8   0  332.85    6.29
   0  -8   0  311.24    6.21
   0   8   0  388.75   14.29
   0  -8   0  343.50   10.04
   0   8   1    2.13    4.02
   0  -8  -1    1.09    2.86
   0  -8  -1    5.01    5.51
   0   8   1    5.01    5.16
   0   8   2    8.74    5.27
   0   8   2    5.96    2.94
   0  -8  -2    4.70    4.18
   0  -8  -2    6.09    3.30
   0   8   3    5.08    4.81
   0  -8  -3    3.47    4.41
   0   8   3   -0.32    4.23
   0  -8  -3    0.73    4.42
   0   8   4   10.34    4.78
   0  -8  -4    6.39    3.12
   0   8   4    5.05    3.16
   0  -8  -4    6.23    4.57
   0  -8  -5    0.33    4.62
   0   8   5    3.95    3.36
   0   8   5    5.58    4.49
   0  -8  -5    3.59    3.19
   0   8   6   87.34    4.10
   0   8   6  132.34    5.77
   0  -8  -6  106.50    5.72
   0  -8  -6   86.93    5.24
   0   8   7   66.05    5.43
   0   8   7   81.39    5.80
   0  -8  -7   69.37    5.78
   0  -8  -7   61.38    5.11
   0   8   8   13.36    5.13
   0   8   8   15.34    5.54
   0  -8  -8    9.77    5.14
   0   8   9   11.38    5.33
   0   8   9   10.29    5.72
   0  -8  -9    9.61    3.81
   0  -8 -10    9.67    5.77
   0   8  10   10.38    5.94
   0   8  10    6.62    6.01
   0   9   0    1.07    5.14
   0  -9   0   -1.20    4.33
   0   9   0    1.03    4.31
   0  -9   0   -2.21    6.46
   0   9   1    1.60    4.34
   0  -9  -1    4.73    3.10
   0   9   1    3.89    5.23
   0  -9  -1    3.10    6.40
   0   9   2   12.22    3.37
   0  -9  -2    9.89    4.72
   0  -9  -2   11.60    6.23
   0   9   2   14.96    5.72
   0   9   3   21.75    5.57
   0  -9  -3   14.18    5.09
   0  -9  -3   16.05    4.93
   0   9   3   14.40    3.16
   0   9   4   20.20    4.85
   0   9   4   21.45    5.39
   0  -9  -4   13.22    3.62
   0  -9  -4   14.84    3.56
   0   9   5    3.17    4.88
   0   9   5    4.05    5.11
   0  -9  -5    7.95    4.90
   0  -9  -5    1.43    3.43
   0  -9  -6    8.57    5.32
   0   9   6    7.83    5.39
   0  -9  -6    4.53    3.56
   0   9   6    3.84    5.07
   0   9   7    5.88    5.58
   0   9   7    4.03    5.22
   0  -9  -7    6.41    5.66
   0  -9  -7    5.14    4.98
   0   9   8    7.41    5.56
   0   9   8   15.75    4.23
   0  -9  -8   14.12    6.15
   0  -9  -8   15.59    5.47
   0   9   9   40.79    5.99
   0   9   9   53.18    6.77
   0  -9  -9   41.07    4.40
   0  10   0    3.43    7.16
   0  10   0    2.53    3.35
   0 -10   0    4.39    3.28
   0 -10   0    6.31    7.71
   0  10   1   17.16    4.82
   0  10   1   20.97    5.89
   0 -10  -1   12.86    4.85
   0 -10  -1   19.11    7.37
   0  10   2    5.51    3.40
   0 -10  -2    6.48    3.66
   0  10   2    4.95    6.10
   0 -10  -2    4.28    5.48
   0  10   3    4.93    3.51
   0 -10  -3    1.40    5.30
   0 -10  -3    4.04    5.54
   0  10   3    3.71    6.30
   0  10   4   35.84    6.14
   0  10   4   24.68    5.28
   0 -10  -4   19.85    4.02
   0 -10  -4   23.52    5.50
   0  10   5    4.28    4.04
   0  10   5    3.08    5.44
   0 -10  -5    2.18    3.95
   0 -10  -5    4.59    5.17
   0  10   6   16.61    5.97
   0  10   6   13.38    3.94
   0 -10  -6   13.68    5.86
   0 -10  -6    8.74    5.48
   0  10   7    0.51    4.29
   0 -10  -7    3.60    6.10
   0  10   7   -0.63    4.00
   0 -10  -7    1.03    5.62
   0  10   8   21.71    6.66
   0  10   8   17.79    6.07
   0 -10  -8   21.42    6.65
   0 -10  -8   16.90    5.88
   0 -11   0    0.88    7.98
   0  11   0   -3.66    5.43
   0 -11   0    0.01    5.27
   0  11   0    1.47    8.81
   0  11   1    1.84    3.84
   0  11   1   -0.67    6.12
   0 -11  -1    0.16    5.38
   0 -11  -1   -0.19    8.23
   0  11   2    2.47    3.85
   0  11   2    5.54    6.66
   0 -11  -2    3.28    4.06
   0 -11  -2   -0.04    7.82
   0  11   3    0.68    5.47
   0 -11  -3   -1.14    4.08
   0  11   3    1.41    7.02
   0 -11  -3   -0.20    6.21
   0  11   4    4.08    4.13
   0 -11  -4    7.83    4.33
   0 -11  -4   11.24    5.92
   0  11   4   10.68    6.96
   0  11   5    6.85    6.66
   0  11   5    6.03    4.23
   0 -11  -5   10.06    4.39
   0 -11  -5    5.81    5.85
   0  11   6    6.22    4.68
   0 -11  -6    3.72    4.53
   0  11   6    5.45    6.07
   0 -11  -6    5.50    5.81
   0 -12   0    2.71    6.29
   0 -12  -1    1.10    8.97
   0  12   1   -0.04    9.16
   0  12   1    1.41    4.42
   0 -12  -1    2.86    4.44
   0 -12  -2    1.64    7.41
   0  12   2    1.25    4.38
   0 -12  -2    2.16    6.45
   0  12   2   -0.04    7.44
   0  12   3    4.82    6.39
   0 -12  -3    3.99    4.67
   0  12   3    4.48    7.99
   0 -12  -3    6.14    7.18
  -1  11  -1    1.59    4.30
   1 -11   1    1.07    5.87
  -1  11  -2    6.65    4.38
   1 -11   2    6.08    4.43
  -1  10  -1   11.11    5.40
   1 -10   1    7.06    3.78
  -1  10  -2    3.44    4.00
   1 -10   2    4.69    4.00
  -1  10  -3    5.86    4.06
   1 -10   3    4.94    4.26
  -1  10  -4    1.22    4.24
   1 -10   4   -3.65    6.60
  -1  10  -5    0.08    6.70
   1 -10   5    8.00    7.30
  -1   9  -1   40.95    5.04
   1  -9   1   24.03    5.16
  -1   9  -2   13.98    5.05
   1  -9   2   15.09    3.76
  -1   9  -3    2.54    5.10
   1  -9   3    1.67    5.36
  -1   9  -4    1.13    5.42
   1  -9   4   -0.61    4.15
  -1   9  -5    0.03    5.78
   1  -9   5   -1.13    4.63
  -1   9  -6    1.62    6.43
   1  -9   6    0.57    7.26
  -1   8  -1    4.42    4.50
   1  -8   1    6.27    4.51
   1  -8   2   19.85    3.55
  -1   8  -2   31.15    4.92
  -1   8  -3   13.91    3.46
   1  -8   3   16.01    5.11
  -1   8  -4    0.69    4.92
   1  -8   4    1.88    3.65
  -1   8  -5   43.04    3.98
   1  -8   5   39.32    6.24
  -1   8  -6    8.12    5.72
   1  -8   6    7.69    4.75
   1  -8   7    8.17    7.40
   1  -8   8   21.69    8.20
   1  -7   1   68.21    4.57
  -1   7  -1   74.76    3.55
  -1   7  -2   21.47    4.37
   1  -7   2   18.79    4.47
  -1   7  -3   16.19    4.32
   1  -7   3   10.96    4.85
  -1   7  -4   31.81    3.48
   1  -7   4   31.00    5.15
  -1   7  -5   -0.95    4.77
   1  -7   5   -2.16    5.51
  -1   7  -6    3.68    3.60
   1  -7   6    1.72    5.98
   1  -7   7   -3.39    6.81
   1  -7   8   10.41    5.12
   1  -7   9   14.31    7.83
  -1   6  -1   67.91    4.33
   1  -6   1   56.80    4.35
  -1   6  -2   24.77    4.21
   1  -6   2   20.73    3.14
  -1   6  -3   -1.04    2.93
   1  -6   3    1.75    3.07
  -1   6  -4   16.68    4.17
   1  -6   4   19.87    4.77
  -1   6  -5   29.52    4.54
   1  -6   5   28.72    5.29
  -1   6  -6   30.76    4.96
   1  -6   6   30.04    5.77
   1  -6   7    3.86    6.07
   1  -6   8   15.62    6.67
   1  -6   9    3.55   11.58
   1  -6   9    3.10   11.13
   1  -6   9    3.48    6.97
   1  -6  10    6.30   12.01
   1  -6  10    4.08   11.23
   1  -6  10    5.65    7.67
  -1   5  -1  171.26    5.05
   1  -5   1  149.49    4.17
  -1   5  -2    2.43    3.91
   1  -5   2    5.61    2.83
   1  -5   3   20.49    4.27
  -1   5  -3   17.53    2.95
  -1   5  -4   38.29    3.09
   1  -5   4   42.45    3.60
  -1   5  -5    8.27    4.22
   1  -5   5    6.34    4.79
  -1   5  -6  159.32    5.94
   1  -5   6  130.03    9.09
   1  -5   6   95.86    9.96
   1  -5   6  133.89    6.95
   1  -5   7  125.99   10.05
   1  -5   7  142.05    7.54
   1  -5   7  118.16    8.53
   1  -5   8    3.58    6.26
   1  -5   8    4.29    6.04
   1  -5   8    4.81    7.30
   1  -5   9    9.63    7.16
   1  -5   9   11.57    6.53
   1  -5   9   13.15    7.80
   1  -5  10    1.04    6.64
   1  -5  10    3.84    6.93
   1  -5  10    6.47    8.20
   1  -4   1  126.79    4.77
  -1   4  -1  133.90    4.95
  -1   4  -2  260.11    6.05
   1  -4   2  259.34    6.35
   1  -4   3  420.79    9.13
  -1   4  -3  432.11    7.95
  -1   4  -4    3.32    4.01
   1  -4   4    4.53    4.30
   1  -4   5    8.29    5.62
  -1   4  -5    9.83    4.08
   1  -4   5    9.67    4.57
   1  -4   5   10.57    7.91
  -1   4  -6   18.97    4.68
   1  -4   6   15.75    6.77
   1  -4   6   15.04    5.02
   1  -4   6   11.87    5.45
   1  -4   7    2.88    5.34
   1  -4   7    0.93    5.83
   1  -4   7    3.59    6.71
   1  -4   8   40.16    7.12
   1  -4   8   43.17    6.06
   1  -4   8   46.21    6.01
   1  -4   9   15.32    6.20
   1  -4   9   20.75    6.14
   1  -4   9   26.21    7.34
   1  -4  10    2.54    6.28
   1  -4  10   -1.22    7.86
   1  -4  10    0.84    7.76
   1  -4  11    2.09    6.75
   1  -4  11   -1.87    7.42
   1  -4  11   -0.22    8.57
  -1   3  -1   13.60    4.13
   1  -3   1   15.65    2.96
   1  -3   2 1255.05   19.96
  -1   3  -2 1261.61   19.00
   1  -3   3  529.87   20.76
  -1   3  -3  652.40   10.71
   1  -3   3  502.75   19.03
   1  -3   3  675.97   12.74
  -1   3  -4   10.78    3.87
   1  -3   4    8.73    4.66
   1  -3   4    9.48    4.05
   1  -3   4    9.11    5.41
   1  -3   5   25.24    4.69
  -1   3  -5   35.41    4.20
   1  -3   5   31.74    4.52
   1  -3   5   33.33    4.52
   1  -3   6   62.54    6.17
   1  -3   6   60.01    5.21
   1  -3   6   61.29    6.09
   1  -3   7   98.42    6.56
   1  -3   7  100.18    7.18
   1  -3   7   72.94    5.89
   1  -3   8   40.51    5.89
   1  -3   8   39.98    6.75
   1  -3   8   37.20    5.14
   1  -3   9   -1.77    6.73
   1  -3   9   -1.03    5.83
   1  -3   9   -0.87    5.02
   1  -3  10    2.64    5.30
   1  -3  10    4.04    6.36
   1  -3  10    3.29    7.18
   1  -3  11    6.68    7.02
   1  -3  11   -0.28    6.06
   1  -3  11    0.25   10.19
  -1   2  -1  599.22   11.84
   1  -2   1  605.16   11.09
  -1   2  -1  515.54   17.74
  -1   2  -2  143.15    5.48
   1  -2   2  141.06    5.46
   1  -2   2  111.79    9.39
  -1   2  -2  140.93    9.27
   1  -2   3  311.26    8.96
  -1   2  -3  306.63    7.22
   1  -2   3  326.85    7.91
  -1   2  -3  309.87   10.23
   1  -2   4    1.47    3.97
  -1   2  -4    0.78    3.90
   1  -2   4    2.20    3.90
  -1   2  -4   -0.52    4.39
  -1   2  -5    9.14    4.31
  -1   2  -5    8.78    4.54
   1  -2   5    9.36    5.07
   1  -2   5    8.84    5.09
  -1   2  -6   33.03    4.64
   1  -2   6   34.79    4.74
   1  -2   6   40.37    4.80
  -1   2  -7   81.13    5.02
   1  -2   7   86.10    6.80
   1  -2   7   95.40    5.86
   1  -2   8   43.14    6.55
   1  -2   8   45.93    5.64
   1  -2   9   -0.78    4.75
   1  -2   9    1.63    5.55
   1  -2   9    1.17    7.18
   1  -2  10   16.22    5.20
   1  -2  10   12.55    9.93
   1  -2  10    9.35    4.37
   1  -2  11    7.39    5.49
   1  -2  11   13.17    6.66
   1  -2  12   19.37    7.49
   1  -2  12   14.57    6.23
   1  -1   1  205.05    9.76
  -1   1  -1  220.18    8.07
   1  -1   1  237.19    8.50
  -1   1  -1  245.50   11.20
   1  -1   2  280.57    8.47
   1  -1   2  327.47   10.28
  -1   1  -2  283.27    8.34
  -1   1  -2  295.55    9.50
  -1   1  -3  332.53    8.39
   1  -1   3  350.47    8.17
   1  -1   3  325.03    8.42
  -1   1  -3  329.24    8.24
  -1   1  -4    0.34    4.26
   1  -1   4    1.64    4.80
   1  -1   4    1.85    4.08
  -1   1  -4    1.29    4.37
   1  -1   5   22.83    4.95
   1  -1   5   22.10    4.32
  -1   1  -5   24.00    4.33
   1  -1   6  283.20    9.93
   1  -1   6  326.58    8.18
  -1   1  -6  310.50    7.32
   1  -1   7  101.02    6.98
   1  -1   7  133.03    5.77
  -1   1  -7  104.27    3.99
  -1   1  -8   -0.28    3.13
   1  -1   8    1.02    7.27
   1  -1   8    3.02    4.84
  -1   1  -9   -2.20    4.54
   1  -1   9   -1.31    5.20
   1  -1  10   28.16    5.72
   1  -1  11   28.32    6.24
   1  -1  11   24.95    5.34
   1  -1  12    0.18    5.95
   1  -1  12    0.72    4.87
  -1   0   0  943.74   21.57
   1   0   0  754.71   17.96
   1   0   1  522.98   13.72
  -1   0  -1  505.60   13.85
   1   0   2 4462.71   70.30
  -1   0  -2 4809.21   75.33
  -1   0  -3  126.42    9.26
  -1   0  -3  146.36    5.67
   1   0   3  144.20    5.48
   1   0   4 1373.20   21.24
  -1   0  -4 1383.42   21.26
   1   0   5 1557.33   25.40
  -1   0  -5 1423.66   20.45
   1   0   6  611.50   11.90
  -1   0  -6  596.66   10.06
   1   0   7   55.25    3.50
  -1   0  -7   65.23    4.59
   1   0   8  223.97    7.11
  -1   0  -8  194.74    4.97
  -1   0  -9  270.18    6.00
   1   0   9  173.57    5.83
  -1   0 -10   69.08    5.39
   1   0  10   65.31    5.94
  -1   0 -11    5.86    5.33
   1   0  11    0.62    5.77
   1   0  12    3.13    6.48
  -1  -1   0 1284.28   28.36
   1   1   0 1191.26   26.52
  -1  -1  -1 3169.70   54.33
   1   1   1 3160.18   53.24
  -1  -1  -2  249.34   10.86
   1   1   2  247.93    7.70
  -1  -1  -2  216.93    7.29
   1   1   3  410.73    7.73
  -1  -1  -3  465.42    9.29
   1   1   4  145.28    4.22
  -1  -1  -4  159.41    5.28
   1   1   5    2.77    2.63
  -1  -1  -5    1.73    2.69
   1   1   6  400.27    8.15
  -1  -1  -6  367.00    7.26
   1   1   7    0.71    3.00
  -1  -1  -7    2.35    4.04
   1   1   8   52.06    4.60
  -1  -1  -8   50.52    4.59
   1   1   9   97.41    5.42
  -1  -1  -9   88.87    5.13
  -1  -1 -10    8.59    4.89
   1   1  10   10.08    5.12
  -1  -1 -11   29.17    5.42
   1   1  11   28.00    5.82
  -1  -1 -12    3.95    4.20
   1   1  12   11.32    6.25
  -1  -2   0 1217.89   23.87
   1   2   0 1250.95   24.34
  -1  -2   0 1170.21   22.36
   1   2   1  841.46   18.83
  -1  -2  -1  938.78   17.38
  -1  -2  -1  910.48   18.23
   1   2   1  796.12   15.13
   1   2   2 1210.18   26.33
   1   2   2 1126.95   18.12
  -1  -2  -2 1247.17   22.65
  -1  -2  -2 1316.86   21.09
  -1  -2  -3  257.25    7.99
   1   2   3  295.85    9.26
   1   2   3  261.41    5.64
  -1  -2  -3  287.61    6.70
   1   2   4 2866.85   53.22
  -1  -2  -4 2631.17   45.07
   1   2   4 3258.59   40.09
  -1  -2  -4 2699.04   34.76
   1   2   5   73.54    7.21
   1   2   5   63.12    3.28
  -1  -2  -5   76.55    4.51
   1   2   6   20.17    7.43
   1   2   6   23.11    3.96
  -1  -2  -6   17.32    2.81
   1   2   7    8.16    3.84
  -1  -2  -7    8.48    2.95
   1   2   8   22.14    2.98
  -1  -2  -8   29.35    3.25
   1   2   9    3.80    4.43
  -1  -2  -9   -0.46    4.56
   1   2  10    7.40    4.97
  -1  -2 -10    2.37    4.87
  -1  -2 -11   10.38    5.35
   1   2  11   12.21    3.80
  -1  -2 -12    8.16    4.10
   1   2  12   14.45    6.04
   1   3   0   15.15    3.13
  -1  -3   0   14.53    4.46
   1   3   0   13.71    3.82
  -1  -3   0   13.28    3.78
   1   3   1  114.31    4.30
  -1  -3  -1  144.83    6.18
  -1  -3  -1  112.44    4.33
   1   3   1  140.60    6.35
   1   3   2  215.96    5.41
   1   3   2  259.07    6.81
  -1  -3  -2  205.92    5.50
  -1  -3  -2  242.03    6.52
  -1  -3  -3  184.78    5.81
   1   3   3  183.70    4.52
  -1  -3  -3  209.69    5.59
   1   3   3  234.27    6.76
   1   3   4  130.65    5.74
  -1  -3  -4  106.22    5.44
  -1  -3  -4  127.44    4.79
   1   3   4  127.63    4.77
  -1  -3  -5  346.45    6.47
   1   3   5  331.32    9.02
   1   3   5  307.05    6.02
  -1  -3  -5  318.01    9.70
   1   3   6  423.91   11.64
   1   3   6  423.21    7.23
  -1  -3  -6  418.24    7.24
   1   3   7   55.16    3.15
   1   3   7   88.15    7.86
  -1  -3  -7   66.16    3.31
   1   3   8    1.42    7.24
   1   3   8    1.38    4.07
  -1  -3  -8    2.29    4.05
   1   3   9  100.89    4.05
  -1  -3  -9   88.67    3.91
   1   3  10   13.03    3.49
  -1  -3 -10    9.02    3.42
   1   3  11    1.43    3.93
  -1  -3 -11   -0.27    5.22
  -1  -3 -12    2.71    5.70
   1   3  12    1.45    5.91
  -1  -4   0 1796.06   28.37
   1   4   0 1608.17   22.39
  -1  -4   0 1571.18   21.78
   1   4   0 1907.68   31.50
   1   4   1 1143.89   16.73
  -1  -4  -1 1351.76   20.20
  -1  -4  -1 1270.06   18.63
   1   4   1  980.23   16.48
   1   4   2  126.01    4.71
   1   4   2  130.80    5.17
  -1  -4  -2  119.47    4.73
  -1  -4  -2  113.57    3.86
   1   4   3    1.18    3.94
   1   4   3    4.45    3.80
  -1  -4  -3    0.44    3.59
  -1  -4  -3    1.14    2.61
   1   4   4   31.02    4.12
   1   4   4   33.31    4.01
  -1  -4  -4   27.31    4.16
  -1  -4  -4   26.44    3.98
   1   4   5   35.82    4.36
   1   4   5   30.26    2.89
  -1  -4  -5   34.06    2.81
  -1  -4  -5   35.58    4.72
   1   4   6   52.00    5.63
   1   4   6   55.14    4.04
  -1  -4  -6   49.07    4.08
  -1  -4  -6   35.40    4.97
   1   4   7  103.00    5.73
   1   4   7  113.77    4.56
  -1  -4  -7   98.42    4.51
   1   4   8    9.98    6.10
   1   4   8    7.30    2.87
  -1  -4  -8    6.83    2.95
   1   4   9   37.23    8.19
   1   4   9   31.78    3.23
  -1  -4  -9   31.73    3.48
   1   4  10   10.65   10.18
   1   4  10    6.62    4.90
  -1  -4 -10    8.14    3.38
   1   4  11   22.44    5.40
  -1  -4 -11   18.20    3.87
  -1  -4 -12    4.06    5.76
   1   4  12    1.42    4.26
   1   5   0   -0.15    3.77
  -1  -5   0    0.45    4.38
  -1  -5   0    2.17    3.90
   1   5   0    1.66    4.77
  -1  -5  -1  584.79    9.81
  -1  -5  -1  667.60   10.32
   1   5   1  677.52   10.35
   1   5   1  704.50   12.88
   1   5   2  992.83   15.47
   1   5   2 1190.60   17.20
  -1  -5  -2 1120.06   15.59
  -1  -5  -2  988.25   13.96
   1   5   3    0.50    2.86
   1   5   3    0.75    3.69
  -1  -5  -3    2.21    3.80
  -1  -5  -3    0.23    3.77
   1   5   4   -0.43    3.86
  -1  -5  -4    0.83    3.97
   1   5   4    0.18    2.77
  -1  -5  -4    1.01    3.72
   1   5   5   47.73    4.04
  -1  -5  -5   35.85    4.41
  -1  -5  -5   33.40    2.78
   1   5   5   35.14    4.08
   1   5   6   17.38    4.42
   1   5   6   17.13    4.03
  -1  -5  -6   18.20    4.75
  -1  -5  -6   18.70    3.93
   1   5   7  534.51   12.20
   1   5   7  600.92    9.57
  -1  -5  -7  528.07   14.31
  -1  -5  -7  431.52    7.32
   1   5   8   39.77    5.13
   1   5   8   48.83    4.36
  -1  -5  -8   41.58    3.17
   1   5   9   14.52    4.50
   1   5   9   21.13    6.59
  -1  -5  -9   14.71    3.21
   1   5  10    5.03    7.08
   1   5  10    1.76    4.82
  -1  -5 -10    3.42    3.50
   1   5  11   22.16   10.34
   1   5  11   23.57    5.58
  -1  -5 -11   22.21    5.44
   1   5  12   15.57    5.97
  -1  -5 -12   16.01    5.84
   1   6   0   41.87    2.86
  -1  -6   0   41.23    4.50
  -1  -6   0   35.56    2.85
   1   6   0   42.55    4.95
   1   6   1    1.08    2.54
  -1  -6  -1    1.46    2.62
  -1  -6  -1   -0.39    3.99
   1   6   1    0.48    3.27
   1   6   2   25.43    4.70
   1   6   2   24.06    3.76
  -1  -6  -2   13.33    2.82
  -1  -6  -2   22.13    4.07
   1   6   3  228.01    6.14
   1   6   3  173.09    4.31
  -1  -6  -3  185.64    5.38
  -1  -6  -3  174.25    4.35
   1   6   4   88.81    3.52
   1   6   4   93.03    4.48
  -1  -6  -4   90.16    4.59
  -1  -6  -4   77.89    3.30
   1   6   5  153.41    5.25
   1   6   5  137.85    3.90
  -1  -6  -5  147.48    5.36
  -1  -6  -5  129.08    3.82
   1   6   6    1.83    4.28
   1   6   6    4.56    4.17
  -1  -6  -6    0.25    4.57
  -1  -6  -6    6.20    3.85
   1   6   7   49.87    4.98
   1   6   7   63.80    4.68
  -1  -6  -7   44.87    5.47
  -1  -6  -7   39.48    3.25
   1   6   8   33.44    4.94
   1   6   8   60.89    4.73
  -1  -6  -8   43.30    3.33
   1   6   9   24.67    5.57
   1   6   9   31.33    3.56
  -1  -6  -9   28.34    4.77
   1   6  10    3.24    6.88
   1   6  10    2.12    3.53
  -1  -6 -10    4.27    4.99
   1   6  11    4.37    8.95
   1   6  11    7.16    5.45
  -1  -6 -11    4.61    3.87
   1   6  12   24.36    6.16
  -1  -6 -12   21.12    6.25
   1   7   0  212.64    4.48
  -1  -7   0  252.01    6.59
  -1  -7   0  224.31    5.45
   1   7   0  257.33    8.23
   1   7   1  260.79    5.65
  -1  -7  -1  199.44    4.51
  -1  -7  -1  241.21    6.16
   1   7   1  260.89    7.75
  -1  -7  -2   77.07    3.51
   1   7   2   92.79    4.30
  -1  -7  -2   98.22    4.66
   1   7   2  108.80    5.53
   1   7   3    4.99    3.07
   1   7   3    2.49    3.89
  -1  -7  -3    3.13    2.73
  -1  -7  -3    3.20    2.72
   1   7   4  106.86    4.03
   1   7   4  106.76    4.75
  -1  -7  -4  103.51    4.86
  -1  -7  -4   87.59    3.68
   1   7   5   12.74    3.16
   1   7   5   14.77    4.09
  -1  -7  -5   12.32    4.42
  -1  -7  -5   15.12    4.18
   1   7   6  285.20    7.42
   1   7   6  254.97    5.43
  -1  -7  -6  300.48    7.37
  -1  -7  -6  278.03    6.46
   1   7   7   38.70    4.86
   1   7   7   38.12    3.54
  -1  -7  -7   46.04    5.34
  -1  -7  -7   44.19    4.83
   1   7   8    0.80    4.91
   1   7   8    0.90    4.87
  -1  -7  -8    0.75    5.34
  -1  -7  -8    3.44    4.55
   1   7   9   56.91    5.80
   1   7   9   52.81    4.03
  -1  -7  -9   56.21    3.93
   1   7  10    4.57    5.98
   1   7  10    0.53    3.91
  -1  -7 -10    5.71    5.37
   1   7  11    1.23    4.13
   1   7  11    5.19    7.99
  -1  -7 -11    4.46    4.17
   1   8   0   13.58    4.05
  -1  -8   0   13.71    4.46
   1   8   0   13.80    5.06
  -1  -8   0   17.73    4.14
   1   8   1    2.94    3.86
   1   8   1    5.17    5.09
  -1  -8  -1    5.78    4.02
  -1  -8  -1    6.07    4.20
   1   8   2    2.33    2.70
  -1  -8  -2    3.85    3.01
  -1  -8  -2    3.40    4.15
   1   8   2    5.98    5.09
   1   8   3    8.53    4.96
   1   8   3    4.23    2.96
  -1  -8  -3    6.29    4.07
  -1  -8  -3    5.87    4.23
   1   8   4   65.55    5.08
   1   8   4   57.83    4.46
  -1  -8  -4   47.25    3.55
  -1  -8  -4   51.59    4.48
   1   8   5   14.47    3.39
   1   8   5    9.63    4.35
  -1  -8  -5    9.31    4.65
  -1  -8  -5   10.97    4.28
   1   8   6   67.92    3.85
   1   8   6   75.30    5.08
  -1  -8  -6   73.99    4.14
  -1  -8  -6   66.58    3.64
   1   8   7   87.33    5.58
   1   8   7   61.51    5.23
  -1  -8  -7   73.41    5.74
  -1  -8  -7   73.10    5.18
   1   8   8   71.08    5.74
   1   8   8   83.25    4.40
  -1  -8  -8   90.31    6.44
  -1  -8  -8   67.85    5.38
   1   8   9   29.88    4.10
   1   8   9   16.62    4.06
  -1  -8  -9   27.52    5.33
   1   8  10   -0.03    6.06
   1   8  10   -0.89    4.25
  -1  -8 -10   -2.43    4.07
  -1  -8 -11    2.86    4.27
   1   9   0   40.67    3.30
   1   9   0   45.07    5.51
  -1  -9   0   33.61    3.25
  -1  -9   0   39.68    4.77
   1   9   1   12.01    3.03
  -1  -9  -1   14.43    4.44
   1   9   1   15.11    5.44
  -1  -9  -1   15.08    4.28
  -1  -9  -2   13.73    4.42
   1   9   2   18.02    3.10
  -1  -9  -2   16.01    3.38
   1   9   2   24.46    5.56
   1   9   3    4.49    3.23
  -1  -9  -3    7.24    4.66
  -1  -9  -3    4.58    3.15
   1   9   3    8.42    5.48
   1   9   4   12.99    3.82
   1   9   4    9.57    4.32
  -1  -9  -4   10.33    3.41
  -1  -9  -4   11.88    4.49
   1   9   5   21.53    5.36
   1   9   5   20.28    4.60
  -1  -9  -5   22.28    4.99
  -1  -9  -5   15.82    3.30
   1   9   6   12.56    3.75
  -1  -9  -6   11.25    5.34
   1   9   6    8.48    3.43
  -1  -9  -6   10.68    3.52
   1   9   7   18.72    5.56
   1   9   7   12.43    3.61
  -1  -9  -7   13.28    5.73
  -1  -9  -7   12.05    5.04
   1   9   8   14.61    5.82
   1   9   8   10.32    5.36
  -1  -9  -8   14.89    4.37
  -1  -9  -8   11.76    5.32
   1   9   9    2.95    5.85
   1   9   9    1.82    6.16
  -1  -9  -9   -1.01    6.63
  -1  -9  -9    0.14    5.68
   1   9  10    2.49    6.60
   1   9  10    2.04    4.58
  -1  -9 -10    2.16    6.12
   1  10   0    1.76    6.54
   1  10   0   -0.07    4.55
  -1 -10   0    0.43    4.54
  -1 -10   0    1.05    4.67
   1  10   1   14.34    3.49
  -1 -10  -1    8.81    4.58
   1  10   1   13.91    5.55
  -1 -10  -1    9.68    3.37
   1  10   2    0.84    4.84
  -1 -10  -2   -0.57    5.16
   1  10   2    1.28    5.78
  -1 -10  -2    2.34    4.47
   1  10   3   18.37    3.59
  -1 -10  -3   18.44    3.47
  -1 -10  -3   22.28    3.87
   1  10   3   30.19    6.23
   1  10   4   16.80    4.76
  -1 -10  -4   24.84    5.39
  -1 -10  -4   21.33    3.59
   1  10   4   33.28    6.09
   1  10   5    1.96    4.11
   1  10   5    0.45    5.03
  -1 -10  -5    2.61    4.00
  -1 -10  -5    0.18    4.93
   1  10   6    3.09    5.81
   1  10   6    3.73    4.87
  -1 -10  -6    0.03    4.12
  -1 -10  -6   -1.42    5.18
   1  10   7   -0.06    6.00
   1  10   7    4.71    5.38
  -1 -10  -7    5.43    5.84
  -1 -10  -7    4.74    5.54
   1  10   8   18.21    6.50
   1  10   8   15.50    5.79
  -1 -10  -8   18.96    6.67
  -1 -10  -8   14.21    5.98
   1  10   9    5.26    6.82
   1  10   9    2.10    4.41
  -1 -10  -9   -1.19    5.08
  -1 -10  -9    2.33    4.47
   1  11   0   -1.97    3.62
  -1 -11   0   -1.53    3.61
  -1 -11   0    0.45    6.65
   1  11   0   -0.82    6.22
   1  11   1    2.67    5.04
   1  11   1    3.33    5.81
  -1 -11  -1   -0.87    3.81
  -1 -11  -1    0.84    5.10
   1  11   2    5.23    5.12
  -1 -11  -2    4.96    5.57
   1  11   2    5.01    6.28
  -1 -11  -2    3.49    5.14
   1  11   3    7.64    3.72
  -1 -11  -3    4.67    5.74
   1  11   3   11.54    6.60
  -1 -11  -3    5.67    5.16
   1  11   4    3.77    3.79
  -1 -11  -4    2.43    4.22
  -1 -11  -4    5.61    5.12
   1  11   4    2.84    6.60
   1  11   5   -0.37    3.87
  -1 -11  -5    2.30    6.13
  -1 -11  -5    0.28    3.81
   1  11   5   -4.74    6.53
   1  11   6    1.86    4.69
   1  11   6    4.75    5.85
  -1 -11  -6    5.07    4.63
  -1 -11  -6    5.16    5.67
   1  11   7   -0.57    4.82
   1  11   7    3.87    5.97
  -1 -11  -7    2.97    4.66
  -1 -11  -7    0.20    4.30
   1  12   0    4.78    4.54
  -1 -12   0   10.02    4.35
   1  12   0   10.87    7.68
  -1 -12   0   13.21    8.37
   1  12   1   -1.55    6.75
   1  12   1    1.23    4.14
  -1 -12  -1   -0.87    4.31
  -1 -12  -1    0.17    6.28
   1  12   2   -1.65    4.01
   1  12   2    1.35    6.80
  -1 -12  -2   -1.90    6.11
  -1 -12  -2    0.05    6.11
   1  12   3    6.89    5.89
  -1 -12  -3    2.56    4.61
   1  12   3    3.21    7.38
  -1 -12  -3    5.64    6.01
   1  12   4    5.92    6.04
  -1 -12  -4   -1.81    4.69
   1  12   4    3.93    7.42
  -1 -12  -4   -1.05    6.10
  -1 -12  -5   -0.76    7.00
  -1 -12  -5   -2.35    6.12
  -2  10  -1    1.48    4.28
   2 -10   1    1.63    4.32
  -2  10  -2    3.16    6.19
   2 -10   2    1.77    4.60
  -2  10  -3    1.53    4.49
   2 -10   3   -2.08    4.86
  -2   9  -1    0.30    5.35
   2  -9   1    4.05    3.90
  -2   9  -2    6.36    5.62
   2  -9   2    5.90    5.83
  -2   9  -3   -5.57    5.72
   2  -9   3   -1.23    6.24
   2  -9   4   11.34    4.80
  -2   9  -4   12.51    5.98
  -2   9  -5    6.97    4.51
   2  -9   5    4.19    7.46
   2  -8   1   22.99    3.74
  -2   8  -1   22.21    3.68
   2  -8   2   25.92    5.41
  -2   8  -2   32.53    3.79
  -2   8  -3   10.57    5.34
   2  -8   3    9.20    5.62
  -2   8  -4    2.87    5.33
   2  -8   4   -0.78    4.30
  -2   8  -5    6.87    5.57
   2  -8   5    7.92    4.69
  -2   8  -6    5.39    6.12
   2  -8   6   -0.64    7.01
  -2   8  -7    1.44    6.70
   2  -8   7    0.19    7.71
  -2   7  -1   38.27    3.45
   2  -7   1   35.32    3.48
   2  -7   2    7.33    4.79
  -2   7  -2    9.66    3.37
  -2   7  -3    4.68    3.31
   2  -7   3    2.61    3.50
  -2   7  -4   66.97    5.55
   2  -7   4   58.32    5.81
  -2   7  -5   27.77    5.44
   2  -7   5   24.10    4.55
  -2   7  -6    7.44    5.49
   2  -7   6    6.97    6.54
  -2   7  -7    1.93    6.06
   2  -7   7    2.89    6.60
   2  -7   8   -1.01    5.32
   2  -6   1    5.43    4.20
  -2   6  -1    1.23    2.87
   2  -6   2   -0.71    4.46
  -2   6  -2    4.17    3.09
   2  -6   3    5.89    4.56
  -2   6  -3   12.03    4.51
  -2   6  -4   73.84    5.09
   2  -6   4   67.09    4.19
  -2   6  -5   19.78    4.83
   2  -6   5   20.78    5.57
  -2   6  -6   26.26    3.85
   2  -6   6   29.74    5.99
  -2   6  -7    7.49    5.71
   2  -6   7    8.50    6.34
   2  -6   8    2.78    6.77
   2  -6   9   -0.33    7.09
  -2   5  -1  126.80    9.93
  -2   5  -1  138.87    5.06
  -2   5  -1  106.54   10.31
   2  -5   1  117.84    4.90
  -2   5  -2    2.81    3.08
   2  -5   2    5.00    4.27
  -2   5  -3   32.90    4.55
   2  -5   3   30.46    4.57
  -2   5  -4    4.33    3.14
   2  -5   4    3.97    4.59
  -2   5  -5   -0.51    4.39
   2  -5   5   -0.01    4.87
  -2   5  -6    4.58    4.71
   2  -5   6   -1.00    5.23
  -2   5  -7   22.76    5.37
   2  -5   7   19.00    5.65
   2  -5   8    0.27    5.85
   2  -5   9   14.59    6.54
   2  -5  10    3.00    6.98
   2  -5  10    2.16   12.20
   2  -5  10    1.15   11.47
  -2   4  -1  383.48    7.55
  -2   4  -1  332.44   11.27
   2  -4   1  338.76    6.31
  -2   4  -1  397.12   11.48
  -2   4  -2  273.62    6.58
   2  -4   2  258.62    6.28
  -2   4  -3    7.04    4.27
   2  -4   3    5.26    4.21
  -2   4  -4   67.26    4.57
   2  -4   4   62.08    4.65
  -2   4  -5    0.70    4.20
   2  -4   5    1.52    4.53
  -2   4  -6    1.21    4.49
   2  -4   6    1.16    8.22
   2  -4   6   -0.43    4.86
   2  -4   6    1.59    9.11
  -2   4  -7   86.10    5.78
   2  -4   7   76.49    8.69
   2  -4   7   72.46    5.86
   2  -4   7   66.44    8.22
   2  -4   8   -1.02    6.66
   2  -4   8    1.34    6.75
   2  -4   8   -1.75    6.47
   2  -4   9   25.51    7.36
   2  -4   9   29.53    7.47
   2  -4   9   28.68    7.41
   2  -4  10   -1.07    6.36
   2  -4  10    1.52    9.02
   2  -4  10   -1.30    7.56
   2  -4  11    3.09    8.33
   2  -4  11   -1.98    7.38
  -2   3  -1    1.95    5.13
  -2   3  -1    1.10    4.65
  -2   3  -1    0.99    4.03
   2  -3   1   -0.95    4.10
  -2   3  -2    1.94    6.21
  -2   3  -2    1.43    4.16
   2  -3   2    0.53    4.06
   2  -3   2    1.69    5.33
   2  -3   3   27.84    7.67
  -2   3  -3   34.03    6.87
  -2   3  -3   36.64    3.16
   2  -3   3   37.90    4.25
   2  -3   4    5.32    5.64
  -2   3  -4    7.67    4.19
   2  -3   4    8.98    4.05
  -2   3  -4   11.20    6.16
  -2   3  -5  236.95    6.52
   2  -3   5  236.72    6.87
   2  -3   5  274.54   10.23
  -2   3  -5  211.99    8.54
  -2   3  -6    7.53    5.52
  -2   3  -6    8.85    4.30
   2  -3   6    7.61    4.69
   2  -3   6    8.54    5.84
  -2   3  -7  115.25    5.95
   2  -3   7  126.91    6.00
  -2   3  -7  164.54    7.40
   2  -3   7  120.81    6.09
   2  -3   8   57.12    6.35
   2  -3   8   61.17    6.74
   2  -3   9   30.42    5.75
   2  -3   9   29.80    6.71
   2  -3   9   28.62    5.33
   2  -3  10   10.68    6.14
   2  -3  10    9.53    5.45
   2  -3  11   -0.96    7.05
   2  -3  11    1.61    6.01
   2  -2   1  566.30   10.76
  -2   2  -1  533.49   11.88
  -2   2  -1  587.90   11.40
   2  -2   1  505.21   12.79
  -2   2  -2 1194.27   24.46
  -2   2  -2 1272.52   19.94
   2  -2   2 1292.71   21.53
   2  -2   2 1087.08   23.68
   2  -2   3   78.36    5.52
  -2   2  -3  112.71    6.42
  -2   2  -3  112.29    5.23
   2  -2   3  116.41    5.35
  -2   2  -4  241.65    6.74
   2  -2   4  257.19    7.11
  -2   2  -4  258.73    7.97
   2  -2   4  272.37    9.02
   2  -2   5    9.76    4.47
  -2   2  -5    9.74    4.15
   2  -2   5   10.82    5.30
  -2   2  -5    8.73    4.34
   2  -2   6   36.68    4.42
  -2   2  -6   38.36    4.76
   2  -2   6   46.60    5.80
  -2   2  -6   45.19    5.59
   2  -2   7  104.71    5.48
   2  -2   7   93.53    6.52
  -2   2  -7  121.32    5.67
  -2   2  -8   33.44    4.84
   2  -2   8   33.33    5.12
  -2   2  -9    2.92    4.92
   2  -2   9    4.08    5.43
  -2   2 -10    6.78    5.22
   2  -2  10    7.76    6.12
   2  -2  11    2.49    5.65
   2  -2  11    1.64    6.81
   2  -2  12    6.74    6.39
  -2   1  -1   58.96    5.50
  -2   1  -1   65.14    5.04
   2  -1   1   66.70    5.12
  -2   1  -2  233.30    8.13
   2  -1   2  185.83    6.91
  -2   1  -2  218.00    7.17
  -2   1  -3  181.95    6.47
  -2   1  -3  180.39    6.41
   2  -1   3  174.80    6.70
  -2   1  -4   94.75    5.16
  -2   1  -4  108.02    5.30
   2  -1   4  104.72    5.39
   2  -1   5   50.59    4.40
  -2   1  -5   50.85    4.41
  -2   1  -5   49.50    5.42
  -2   1  -6 1017.49   20.60
   2  -1   6 1193.95   18.27
  -2   1  -6 1147.38   18.05
   2  -1   7  493.42   10.32
  -2   1  -7  515.02   10.04
   2  -1   8  236.00    7.67
  -2   1  -8  230.95    6.90
   2  -1   9   22.14    5.40
  -2   1  -9   21.87    5.01
  -2   1 -10   12.30    5.41
   2  -1  10    7.66    6.17
  -2   1 -11    1.66    3.99
   2  -1  11    0.70    6.73
   2  -1  12    0.60    7.68
  -2   0   0  103.97    5.75
   2   0   0  106.27    5.59
   2   0   1    1.55    3.19
  -2   0  -1   -1.79    5.06
  -2   0  -2   51.09    4.12
   2   0   2   54.07    5.33
  -2   0  -2   54.85    5.21
  -2   0  -3  120.09    5.39
  -2   0  -3  116.83    6.34
   2   0   3  126.14    5.74
   2   0   4   34.08    3.09
  -2   0  -4   35.22    4.15
  -2   0  -4   35.42    5.66
   2   0   5    3.54    3.95
  -2   0  -5    2.02    5.62
  -2   0  -5    2.63    4.06
   2   0   6   92.62    4.75
  -2   0  -6   95.61    5.02
   2   0   7    4.47    4.48
  -2   0  -7    3.90    3.05
   2   0   8  201.60    5.88
  -2   0  -8  228.83    6.74
   2   0   9   28.10    5.43
  -2   0  -9   29.19    5.12
   2   0  10   15.06    5.73
  -2   0 -10   12.68    5.18
  -2   0 -11    3.66    5.74
   2   0  11    4.41    6.41
  -2   0 -12    1.81    6.25
   2   0  12    4.19    7.27
  -2  -1   0  241.23    6.57
   2   1   0  252.32    7.49
   2   1   1  691.35   13.36
  -2  -1  -1  811.73   15.63
  -2  -1  -2  125.23    6.09
   2   1   2  104.06    4.47
  -2  -1  -3  533.07   10.18
   2   1   3  452.49    8.20
   2   1   4 1333.33   18.77
  -2  -1  -4 1242.96   18.68
  -2  -1  -4 1035.69   28.29
   2   1   5  192.07    5.33
  -2  -1  -5  185.50    5.57
   2   1   6    6.65    4.15
  -2  -1  -6    5.53    4.13
   2   1   7   11.29    4.47
  -2  -1  -7    9.61    4.41
   2   1   8    0.36    4.54
  -2  -1  -8    2.58    4.53
   2   1   9   23.48    4.99
  -2  -1  -9   20.25    4.87
   2   1  10   45.36    4.38
  -2  -1 -10   58.61    5.56
   2   1  11   11.12    6.15
  -2  -1 -11   11.47    3.96
  -2  -1 -12    1.79    6.09
   2   1  12    8.24    6.86
   2   2   0  260.86    7.40
  -2  -2   0  240.50    6.32
   2   2   1  621.49   11.32
  -2  -2  -1  705.42   13.08
  -2  -2  -2  145.70    6.04
   2   2   2  145.33    5.75
   2   2   3  808.97   12.11
  -2  -2  -3  940.48   21.12
  -2  -2  -3  832.19   12.94
   2   2   4 1032.98   14.54
  -2  -2  -4  935.82   19.04
  -2  -2  -4  889.86   12.83
   2   2   5    6.56    3.92
  -2  -2  -5    4.83    7.15
  -2  -2  -5    5.30    4.00
   2   2   6  797.06   11.73
  -2  -2  -6  873.61   13.83
   2   2   7   11.87    4.24
  -2  -2  -7    9.46    4.07
   2   2   8   58.07    4.72
  -2  -2  -8   54.80    4.72
   2   2   9    5.24    4.74
  -2  -2  -9    4.83    3.32
   2   2  10    1.26    3.58
  -2  -2 -10    2.42    3.52
   2   2  11    4.31    5.83
  -2  -2 -11   -2.06    5.63
   2   2  12    4.73    6.46
  -2  -2 -12    2.26    6.16
  -2  -3   0 1702.85   37.45
   2   3   0 1405.69   23.06
  -2  -3   0 1685.68   26.66
  -2  -3  -1   98.02    5.19
   2   3   1   87.30    4.05
  -2  -3  -1   96.54    5.38
  -2  -3  -2  321.87    7.76
  -2  -3  -2  367.98    7.85
   2   3   2  293.77    6.18
   2   3   3  802.27   11.96
  -2  -3  -3  845.91   16.33
  -2  -3  -3  814.48   12.26
   2   3   4   15.00    4.15
  -2  -3  -4   12.99    4.18
  -2  -3  -4   12.94    3.02
   2   3   5  205.67    5.16
  -2  -3  -5  150.96    6.66
  -2  -3  -5  204.10    5.34
   2   3   6   11.76    2.81
  -2  -3  -6   13.25    7.49
  -2  -3  -6   12.75    2.80
   2   3   7    3.30    3.96
  -2  -3  -7    3.22    3.94
   2   3   8   11.63    2.93
  -2  -3  -8    6.79    4.29
   2   3   9    7.93    4.59
  -2  -3  -9    4.19    4.60
   2   3  10   17.03    5.29
  -2  -3 -10   17.84    5.08
   2   3  11    6.62    5.55
  -2  -3 -11    3.98    5.56
   2   3  12    3.53    6.20
  -2  -3 -12    1.16    5.99
  -2  -4   0  490.36    9.86
   2   4   0  472.62    9.47
  -2  -4   0  441.22    8.73
  -2  -4  -1  199.11    5.95
  -2  -4  -1  200.49    5.90
   2   4   1  158.88    4.94
  -2  -4  -2   75.48    3.90
  -2  -4  -2   77.79    4.54
   2   4   2   79.70    5.10
   2   4   3  168.54    4.41
  -2  -4  -3  167.76    5.73
  -2  -4  -3  190.84    5.51
   2   4   4  405.49    7.16
  -2  -4  -4  374.31    7.91
  -2  -4  -4  364.55    6.11
   2   4   5  153.96    4.96
  -2  -4  -5  106.35    5.01
  -2  -4  -5  145.50    4.80
   2   4   6   -0.63    2.84
  -2  -4  -6    1.25    4.45
  -2  -4  -6    1.39    3.93
   2   4   7    5.00    3.97
  -2  -4  -7    2.83    5.96
  -2  -4  -7    1.84    3.91
   2   4   8   41.49    4.48
  -2  -4  -8   40.98    3.26
   2   4   9    4.68    4.54
  -2  -4  -9    2.93    3.30
   2   4  10    5.93    5.06
  -2  -4 -10    6.53    3.55
   2   4  11    4.08    5.59
  -2  -4 -11    0.93    5.42
   2   4  12   26.09    6.26
  -2  -4 -12   17.91    6.08
  -2  -5   0   19.98    3.40
  -2  -5   0   23.03    4.11
   2   5   0   21.09    3.60
  -2  -5  -1  632.60   10.31
  -2  -5  -1  683.77   11.68
   2   5   1  590.40    9.91
   2   5   2   74.74    4.63
  -2  -5  -2   72.17    3.53
  -2  -5  -2   71.21    4.68
   2   5   2   80.75    4.90
   2   5   3  134.98    5.45
  -2  -5  -3  120.90    5.10
  -2  -5  -3  118.66    3.76
   2   5   3  141.76    5.09
   2   5   4  111.89    4.74
   2   5   4  100.33    5.31
  -2  -5  -4   75.99    4.64
  -2  -5  -4  104.87    4.57
   2   5   5    4.40    4.71
   2   5   5    6.64    4.11
  -2  -5  -5    4.33    3.99
  -2  -5  -5    4.10    4.03
   2   5   6   11.15    5.20
   2   5   6   14.59    2.93
  -2  -5  -6   12.50    4.35
  -2  -5  -6   14.58    3.98
   2   5   7   10.91    6.52
   2   5   7   11.41    4.24
  -2  -5  -7    9.80    4.90
  -2  -5  -7   10.89    4.08
   2   5   8  173.50    4.54
  -2  -5  -8  194.51    5.63
   2   5   9    0.46    3.12
  -2  -5  -9    3.24    4.40
   2   5  10   21.74    5.14
  -2  -5 -10   18.65    3.69
   2   5  11   12.35    4.02
  -2  -5 -11   25.84    5.65
   2   5  12   48.22    6.42
  -2  -5 -12   42.98    6.39
  -2  -6   0  226.65    6.64
  -2  -6   0  190.04    4.68
   2   6   0  221.94    6.90
   2   6   1  252.79    6.00
  -2  -6  -1  268.43    6.76
  -2  -6  -1  264.50    6.30
   2   6   1  214.23    5.54
   2   6   2    0.44    3.88
  -2  -6  -2    1.03    3.05
  -2  -6  -2   -0.45    2.97
   2   6   2    0.37    3.17
   2   6   3   83.02    4.92
  -2  -6  -3   68.49    3.47
  -2  -6  -3   71.00    4.71
   2   6   3   85.70    4.75
   2   6   4  103.74    4.86
   2   6   4   86.79    4.06
  -2  -6  -4   82.55    4.65
  -2  -6  -4   94.51    4.66
   2   6   5   32.60    4.33
   2   6   5   29.00    5.00
  -2  -6  -5   22.06    2.98
  -2  -6  -5   23.66    4.28
   2   6   6  196.22    7.88
   2   6   6  263.94    6.03
  -2  -6  -6  208.02    6.34
  -2  -6  -6  216.33    5.66
   2   6   7   61.96    7.32
   2   6   7   61.68    4.61
  -2  -6  -7   53.20    5.48
  -2  -6  -7   60.47    4.43
   2   6   8   46.15    6.56
   2   6   8   50.33    3.51
  -2  -6  -8   50.11    6.89
  -2  -6  -8   40.08    4.66
   2   6   9    2.91    3.33
  -2  -6  -9    3.42    3.33
   2   6  10   11.02    5.16
  -2  -6 -10    4.76    5.04
   2   6  11   12.57    5.67
  -2  -6 -11    4.27    5.69
   2   6  12    3.80    4.49
  -2  -6 -12    5.57    6.13
   2   7   0    4.98    4.07
  -2  -7   0    3.83    4.84
   2   7   0    2.50    4.87
  -2  -7   0   -2.32    4.06
   2   7   1   12.87    2.86
  -2  -7  -1   12.73    4.48
  -2  -7  -1   13.89    4.11
   2   7   1   13.02    4.74
   2   7   2    2.05    4.23
  -2  -7  -2    5.33    4.17
  -2  -7  -2    4.69    4.42
   2   7   2    5.68    3.46
   2   7   3   83.62    4.95
  -2  -7  -3   85.09    3.82
  -2  -7  -3  109.57    5.11
   2   7   3   88.20    4.00
   2   7   4   41.04    3.57
   2   7   4   43.57    4.86
  -2  -7  -4   42.58    4.57
  -2  -7  -4   45.53    4.62
   2   7   5  224.81    6.10
   2   7   5  179.71    6.54
  -2  -7  -5  170.94    5.71
  -2  -7  -5  198.41    5.77
   2   7   6  819.62   11.62
   2   7   6  862.05   18.57
  -2  -7  -6  830.57   13.23
  -2  -7  -6  738.53   11.23
   2   7   7   25.85    5.84
   2   7   7   31.48    4.92
  -2  -7  -7   24.84    5.30
  -2  -7  -7   22.12    4.67
   2   7   8   39.40    6.26
   2   7   8   50.15    5.10
  -2  -7  -8   34.17    5.75
  -2  -7  -8   26.07    3.51
   2   7   9   14.97    6.42
   2   7   9   19.09    5.23
  -2  -7  -9   14.05    5.75
  -2  -7  -9    8.76    5.11
   2   7  10    6.88    5.44
  -2  -7 -10    7.50    5.30
   2   7  11   23.70    6.12
  -2  -7 -11   28.86    6.04
   2   8   0   21.96    4.45
   2   8   0   42.22    5.37
  -2  -8   0   38.57    3.68
  -2  -8   0   33.17    4.52
   2   8   1    4.85    3.06
  -2  -8  -1    2.64    3.17
  -2  -8  -1    0.90    4.32
   2   8   1    3.25    3.47
   2   8   2   17.22    3.19
  -2  -8  -2   17.69    4.50
  -2  -8  -2   25.03    4.71
   2   8   2   28.41    5.17
   2   8   3   35.40    4.58
  -2  -8  -3   26.60    3.30
  -2  -8  -3   33.77    3.56
   2   8   3   40.57    5.03
   2   8   4   31.65    3.59
  -2  -8  -4   32.20    3.54
  -2  -8  -4   37.62    4.73
   2   8   4   37.24    3.68
   2   8   5   74.69    5.30
   2   8   5   53.76    5.27
  -2  -8  -5   53.67    3.60
  -2  -8  -5   62.04    5.06
   2   8   6   40.62    3.73
   2   8   6   41.20    4.01
  -2  -8  -6   46.76    5.22
  -2  -8  -6   45.43    4.99
   2   8   7   -2.53    3.63
   2   8   7    1.92    5.43
  -2  -8  -7    1.43    5.35
  -2  -8  -7    2.23    3.41
   2   8   8    2.91    6.07
   2   8   8    0.04    3.72
  -2  -8  -8    6.04    5.88
  -2  -8  -8    3.55    3.43
   2   8   9   22.49    6.55
  -2  -8  -9   17.19    6.14
   2   8   9   18.81    4.04
  -2  -8  -9   25.13    3.99
   2   8  10   -2.13    6.95
   2   8  10    4.26    4.32
  -2  -8 -10    1.05    4.14
   2   8  11    5.08    6.46
  -2  -8 -11    4.96    4.46
   2   9   0    1.23    4.45
   2   9   0    4.34    5.12
  -2  -9   0    5.51    5.08
  -2  -9   0    2.57    4.50
   2   9   1    5.68    3.31
  -2  -9  -1    5.86    4.67
  -2  -9  -1    4.72    5.00
   2   9   1    3.23    5.27
   2   9   2    2.89    3.07
  -2  -9  -2    1.38    3.40
  -2  -9  -2    3.59    4.94
   2   9   2    4.65    5.44
   2   9   3   28.74    4.76
  -2  -9  -3   22.46    4.94
  -2  -9  -3   27.09    3.71
   2   9   3   24.36    3.89
   2   9   4   61.84    5.14
  -2  -9  -4   55.81    3.97
  -2  -9  -4   71.71    5.40
   2   9   4   86.31    5.91
   2   9   5   54.67    5.39
  -2  -9  -5   49.04    4.04
  -2  -9  -5   76.98    5.26
   2   9   5   77.95    5.72
   2   9   6    4.98    3.86
   2   9   6    7.14    5.05
  -2  -9  -6    5.75    3.44
  -2  -9  -6    6.49    5.17
   2   9   7   -0.24    5.53
   2   9   7    1.46    5.61
  -2  -9  -7    2.25    5.74
  -2  -9  -7    1.97    3.72
   2   9   8   12.40    4.17
   2   9   8    7.19    6.12
  -2  -9  -8   13.92    4.35
  -2  -9  -8   10.32    5.59
   2   9   9    3.00    6.65
   2   9   9    2.46    6.22
  -2  -9  -9   -2.13    6.76
  -2  -9  -9   -1.98    5.88
   2   9  10    9.04    5.36
   2   9  10   19.20    6.78
  -2  -9 -10   10.28    4.58
   2  10   0    0.16    5.45
   2  10   0    1.89    3.27
  -2 -10   0    3.85    4.87
  -2 -10   0   -1.86    5.19
   2  10   1    5.32    4.87
   2  10   1    7.07    5.61
  -2 -10  -1    2.36    3.57
  -2 -10  -1    3.15    5.32
   2  10   2   -0.46    4.89
  -2 -10  -2   -0.92    5.17
   2  10   2    4.81    5.75
  -2 -10  -2   -1.77    5.20
   2  10   3   22.76    3.55
  -2 -10  -3   16.21    3.88
  -2 -10  -3   23.50    5.26
   2  10   3   34.05    6.02
   2  10   4    7.85    3.55
  -2 -10  -4    7.32    3.89
  -2 -10  -4    7.45    3.72
   2  10   4    7.56    4.19
   2  10   5    3.81    5.12
  -2 -10  -5    1.25    5.40
  -2 -10  -5   -2.83    5.21
   2  10   5    0.55    5.93
   2  10   6    0.66    3.89
  -2 -10  -6    4.06    5.55
  -2 -10  -6   -3.54    5.42
   2  10   6    0.18    6.03
   2  10   7   -0.06    6.23
   2  10   7    0.12    5.66
  -2 -10  -7    2.69    6.02
  -2 -10  -7    0.45    4.12
   2  10   8   -2.14    6.40
   2  10   8    4.33    6.28
  -2 -10  -8   -1.28    4.69
  -2 -10  -8   -3.91    6.05
   2  10   9    1.45    6.92
   2  10   9   -1.63    6.91
  -2 -10  -9    1.11    7.33
  -2 -10  -9    0.31    4.43
   2  11   0   -3.06    5.36
  -2 -11   0    1.92    5.37
  -2 -11   0   -0.01    5.70
   2  11   0    1.05    5.84
   2  11   1    1.48    5.29
   2  11   1    0.05    5.76
  -2 -11  -1    0.93    5.53
  -2 -11  -1    1.10    5.45
   2  11   2   -3.38    5.31
   2  11   2    2.06    6.11
  -2 -11  -2    2.06    5.54
  -2 -11  -2    7.10    5.39
   2  11   3   11.33    5.23
  -2 -11  -3   17.71    5.99
   2  11   3   18.97    6.46
  -2 -11  -3   15.25    5.56
   2  11   4   -1.85    5.44
  -2 -11  -4    2.13    5.95
  -2 -11  -4    2.09    4.00
   2  11   4    0.95    6.63
   2  11   5    6.58    5.42
  -2 -11  -5    6.63    6.02
  -2 -11  -5   -1.74    5.82
   2  11   5    1.81    4.58
   2  11   6    2.60    5.87
  -2 -11  -6    2.92    6.22
  -2 -11  -6    2.56    5.94
   2  11   6    3.66    6.69
   2  11   7    1.22    6.27
  -2 -11  -7    1.40    6.87
  -2 -11  -7   -0.48    6.45
   2  11   7    3.01    6.93
  -2 -12   0    2.28    6.31
  -2 -12   0    8.57    6.38
   2  12   0    9.22    6.99
   2  12   1    3.32    6.06
   2  12   1    7.87    6.78
  -2 -12  -1    7.38    6.34
  -2 -12  -1    3.27    6.10
   2  12   2    4.03    4.29
   2  12   2    5.26    6.82
  -2 -12  -2    4.24    6.33
  -2 -12  -2    5.10    6.00
   2  12   3   -0.55    5.94
  -2 -12  -3   -0.88    6.62
   2  12   3   -1.97    7.16
  -2 -12  -3    2.27    6.07
   2  12   4    7.41    6.05
  -2 -12  -4    7.01    6.77
   2  12   4    2.98    7.37
  -2 -12  -4    2.74    6.13
   2  12   5    0.67    4.34
  -2 -12  -5    4.70    6.85
   2  12   5    5.89    7.59
  -2 -12  -5    1.58    4.44
  -3   9  -1    0.73    5.98
   3  -9   1    7.75    4.33
  -3   9  -2    1.79    4.34
   3  -9   2    5.45    4.53
  -3   9  -3    2.95    6.44
   3  -9   3    1.74    6.70
   3  -9   4    7.69    5.39
  -3   8  -1    6.15    3.94
   3  -8   1    3.68    3.87
  -3   8  -2    3.33    5.86
   3  -8   2    5.09    5.54
  -3   8  -3    8.22    4.27
   3  -8   3   10.46    4.28
   3  -8   4    7.35    6.61
  -3   8  -4    1.17    6.17
  -3   8  -5   -1.00    6.28
   3  -8   5   -0.59    6.92
  -3   8  -6   -0.47    6.77
   3  -8   6    6.18    7.49
  -3   7  -1   21.49    4.94
   3  -7   1   14.74    4.90
  -3   7  -2    1.84    3.66
   3  -7   2    0.55    3.57
  -3   7  -3   31.59    5.65
   3  -7   3   25.46    4.04
   3  -7   4   18.80    5.82
  -3   7  -4   28.94    5.71
  -3   7  -5    0.36    5.69
   3  -7   5    2.84    5.91
  -3   7  -6    2.24    5.92
   3  -7   6    2.25    6.45
  -3   7  -7    1.12    6.51
   3  -7   7   -0.03    7.01
  -3   6  -1   38.77    9.33
  -3   6  -1   33.52    3.59
   3  -6   1   27.52    4.71
  -3   6  -1   32.71    8.84
  -3   6  -2   -1.04    4.78
   3  -6   2    4.85    3.20
  -3   6  -3    5.49    4.88
   3  -6   3    3.04    3.44
  -3   6  -4    5.32    5.24
   3  -6   4    1.06    5.11
  -3   6  -5   32.01    4.12
   3  -6   5   34.19    5.72
  -3   6  -6    3.28    3.98
   3  -6   6    4.07    5.81
  -3   6  -7    0.27    5.93
   3  -6   7    2.01    6.11
  -3   6  -8   -0.32    6.94
   3  -6   8   -0.02    6.75
   3  -5   1    6.33    4.36
  -3   5  -1    6.96    3.16
  -3   5  -1    5.76    6.46
  -3   5  -1    6.35    5.61
   3  -5   2    1.89    3.01
  -3   5  -2    1.41    4.48
   3  -5   3   41.40    4.81
  -3   5  -3   46.52    5.06
  -3   5  -4   16.29    4.94
   3  -5   4   12.02    4.75
   3  -5   5   39.84    5.21
  -3   5  -5   38.78    5.30
  -3   5  -6    5.72    5.28
   3  -5   6   10.23    5.34
  -3   5  -7    3.59    5.65
   3  -5   7    0.14    5.75
  -3   5  -8    9.66    7.85
   3  -5   8    8.76    6.18
  -3   4  -1    2.89    4.30
  -3   4  -1    3.05    6.10
  -3   4  -1    1.95    4.89
  -3   4  -2    4.36    5.99
  -3   4  -2    4.22    4.55
   3  -4   2    3.15    3.14
  -3   4  -2    6.30    6.23
  -3   4  -3  244.40    7.32
  -3   4  -3  252.83   11.81
   3  -4   3  234.02    6.53
  -3   4  -3  238.46   12.04
  -3   4  -4   10.47    4.71
   3  -4   4    7.67    4.49
  -3   4  -5    1.34    4.74
   3  -4   5    3.17    4.58
   3  -4   6   14.11    4.91
  -3   4  -6   15.88    4.98
   3  -4   7    1.76   11.25
  -3   4  -7    1.04    5.12
   3  -4   7    1.03   11.35
   3  -4   8   34.55   10.44
  -3   4  -8   52.25    6.45
   3  -4   8   38.53    9.51
   3  -4   9    5.73    9.17
   3  -4   9    8.80    8.57
   3  -4  10    3.16   11.86
   3  -4  10    2.76    9.18
   3  -3   1    0.01    4.86
  -3   3  -1    2.31    4.89
  -3   3  -1   -3.75    4.23
   3  -3   2   19.18    6.34
  -3   3  -2   18.70    3.24
  -3   3  -2   15.40    5.04
  -3   3  -3   13.02    5.59
  -3   3  -3   14.39    4.55
   3  -3   3   15.15    6.67
  -3   3  -4   36.00    4.80
   3  -3   4   31.02    6.89
  -3   3  -4   33.37    6.04
   3  -3   5   24.07    6.18
  -3   3  -5   23.89    3.38
  -3   3  -5   25.79    6.65
  -3   3  -6   69.70    5.47
   3  -3   6   47.58    6.73
  -3   3  -6   65.54    6.47
  -3   3  -7    1.39    4.79
   3  -3   7   -0.32    6.55
  -3   3  -7    3.50    6.04
  -3   3  -8   10.95    5.11
  -3   3  -8   15.33    6.79
   3  -3   8    5.92    5.74
  -3   3  -9   17.40    6.61
   3  -3   9    4.46    6.15
   3  -3  10    0.27    8.16
   3  -3  10   -0.02    5.76
  -3   2  -1   88.41    5.45
  -3   2  -1   96.93    5.15
   3  -2   1   98.65    5.67
  -3   2  -2    9.00    4.69
   3  -2   2    9.51    4.94
  -3   2  -2   12.52    4.92
  -3   2  -3    9.00    4.69
  -3   2  -3    4.03    4.63
   3  -2   3    8.30    5.86
   3  -2   4    3.27    4.56
  -3   2  -4   -0.38    4.25
  -3   2  -4    1.50    4.34
  -3   2  -5  512.53   12.97
   3  -2   5  431.18   10.75
  -3   2  -5  475.75   11.93
  -3   2  -6 1168.81   23.13
   3  -2   6  812.90   15.77
  -3   2  -6 1105.16   20.78
  -3   2  -7   66.01    6.72
   3  -2   7   58.27    6.60
  -3   2  -7   54.88    5.40
   3  -2   8    0.32    5.07
  -3   2  -8   -0.20    6.23
   3  -2   9   14.13    5.47
  -3   2  -9   11.47    5.40
  -3   2 -10    4.47    5.79
   3  -2  10    4.38    6.01
  -3   2 -11    6.53    6.41
   3  -2  11    6.69    6.98
   3  -1   1    3.99    4.72
  -3   1  -1    5.45    4.75
  -3   1  -1    7.10    4.38
  -3   1  -2  151.74    6.21
  -3   1  -2  159.70    6.23
   3  -1   2  148.02    5.91
  -3   1  -3    0.81    4.59
   3  -1   3   -0.70    4.36
  -3   1  -3    2.45    3.19
  -3   1  -4  346.23    9.21
   3  -1   4  339.41    8.46
  -3   1  -4  321.64    9.15
  -3   1  -5    5.68    4.40
  -3   1  -5    7.32    4.33
   3  -1   5    5.42    5.03
  -3   1  -6  262.76    8.92
  -3   1  -6  272.11    8.09
   3  -1   6  242.12    7.05
  -3   1  -7    5.81    6.63
  -3   1  -7    6.20    4.76
   3  -1   7    3.78    4.68
   3  -1   8   35.23    5.15
  -3   1  -8   41.46    5.34
   3  -1   9   21.51    5.32
  -3   1  -9   28.83    5.52
   3  -1  10    1.58    5.95
  -3   1 -10    4.01    5.83
  -3   1 -11   51.98    6.80
   3  -1  11   57.72    7.52
  -3   0   0  540.69   11.20
   3   0   0  429.18    8.88
  -3   0  -1  471.21    9.73
   3   0   1  354.01    7.90
   3   0   2    1.76    2.96
  -3   0  -2    2.30    3.00
  -3   0  -2    0.47    4.71
  -3   0  -3  207.70    6.70
   3   0   3  165.82    5.00
  -3   0  -3  204.95    7.65
  -3   0  -4  783.72   14.98
  -3   0  -4  760.69   19.14
   3   0   4  776.65   13.09
  -3   0  -5   27.19    4.55
  -3   0  -5   28.27    5.77
   3   0   5   28.51    4.66
  -3   0  -6   21.75    5.90
  -3   0  -6   25.38    4.62
   3   0   6   25.86    4.62
   3   0   7  137.05    5.62
  -3   0  -7  133.75    5.86
   3   0   8   44.39    3.78
  -3   0  -8   63.07    5.37
   3   0   9    3.84    5.35
  -3   0  -9    8.20    5.32
   3   0  10    1.14    4.30
  -3   0 -10    1.38    5.78
   3   0  11   25.16    6.90
  -3   0 -11   19.27    4.38
  -3   0 -12    3.95    6.71
   3   0  12    1.90    5.65
  -3  -1   0  153.74    5.61
   3   1   0  135.68    5.51
   3   1   1   29.28    4.27
  -3  -1  -1   34.56    4.70
   3   1   2  200.76    5.97
  -3  -1  -2  195.74    5.19
  -3  -1  -3  321.13    6.94
   3   1   3  345.53    7.51
  -3  -1  -4  578.67   10.91
  -3  -1  -4  570.15   17.84
   3   1   4  617.91   10.36
  -3  -1  -5   59.66    4.84
  -3  -1  -5   59.49    6.68
   3   1   5   53.87    3.57
   3   1   6   11.04    3.00
  -3  -1  -6   10.04    8.57
  -3  -1  -6   10.48    7.72
  -3  -1  -6    9.08    3.01
   3   1   7   75.15    4.87
  -3  -1  -7   71.36    4.95
   3   1   8    9.71    4.79
  -3  -1  -8    8.53    4.72
   3   1   9   13.50    3.88
  -3  -1  -9   18.98    3.74
   3   1  10    8.45    4.29
  -3  -1 -10    5.05    4.07
   3   1  11   10.82    6.64
  -3  -1 -11    7.13    6.20
   3   1  12   15.17    7.88
  -3  -1 -12    7.80    6.85
  -3  -2   0   39.27    3.47
   3   2   0   46.42    4.65
   3   2   1   61.35    3.66
  -3  -2  -1   62.86    3.78
  -3  -2  -2  179.67    5.95
   3   2   2  172.67    5.84
  -3  -2  -3    4.07    3.34
   3   2   3    1.83    3.08
  -3  -2  -4    8.93    4.42
   3   2   4    7.56    4.27
  -3  -2  -5   29.35    5.86
  -3  -2  -5   31.88    4.52
   3   2   5   31.82    4.36
   3   2   6    6.26    3.00
  -3  -2  -6    4.76    7.61
  -3  -2  -6    2.17    3.05
  -3  -2  -6    4.45    8.38
   3   2   7   67.83    4.85
  -3  -2  -7   73.08    4.89
   3   2   8   -2.62    4.63
  -3  -2  -8   -1.04    4.54
   3   2   9   13.15    5.20
  -3  -2  -9   14.88    3.62
   3   2  10   11.37    4.12
  -3  -2 -10    9.50    5.35
   3   2  11    0.64    6.52
  -3  -2 -11    3.60    4.20
   3   2  12   22.42    5.53
  -3  -2 -12   24.19    6.77
   3   3   0    5.57    3.28
  -3  -3   0    6.18    3.30
   3   3   1  106.18    5.12
  -3  -3  -1   95.66    3.94
  -3  -3  -2    3.14    4.59
   3   3   2    1.00    3.22
  -3  -3  -3   14.29    3.28
   3   3   3   11.00    3.22
  -3  -3  -4  799.65   17.48
  -3  -3  -4  701.14   10.56
   3   3   4  681.89    9.71
  -3  -3  -5   98.43    5.47
  -3  -3  -5  106.56    4.90
   3   3   5  110.62    4.79
   3   3   6   57.63    4.67
  -3  -3  -6   45.41    6.00
  -3  -3  -6   51.30    4.61
   3   3   7   10.60    3.21
  -3  -3  -7   15.97    4.26
   3   3   8   31.47    3.57
  -3  -3  -8   32.72    3.41
   3   3   9   65.00    5.40
  -3  -3  -9   54.27    3.85
   3   3  10    0.95    5.60
  -3  -3 -10    4.06    5.28
   3   3  11    4.62    6.28
  -3  -3 -11    0.92    5.88
   3   3  12   25.20    7.28
  -3  -3 -12   16.62    6.75
  -3  -4   0   93.63    4.23
   3   4   0  166.90    5.75
  -3  -4   0  143.85    4.27
  -3  -4  -1   11.89    4.20
   3   4   1   10.68    4.46
  -3  -4  -1   14.27    3.23
  -3  -4  -2  530.98    8.99
  -3  -4  -2  515.49   12.04
   3   4   2  564.88    9.35
  -3  -4  -3  152.72    5.74
  -3  -4  -3  140.48    4.15
   3   4   3  129.92    4.00
  -3  -4  -4   27.24    4.38
  -3  -4  -4   31.93    4.45
   3   4   4   28.49    4.43
  -3  -4  -5  132.01    5.63
  -3  -4  -5  144.61    4.22
   3   4   5  175.66    5.27
   3   4   6    1.12    4.14
  -3  -4  -6    1.52    5.52
  -3  -4  -6    2.65    3.05
   3   4   7   18.53    4.54
  -3  -4  -7   16.08    7.12
  -3  -4  -7   22.85    4.52
   3   4   8  113.93    4.25
  -3  -4  -8  103.51    4.14
   3   4   9   78.51    5.40
  -3  -4  -9   67.89    5.30
   3   4  10   11.19    5.45
  -3  -4 -10    5.98    3.82
   3   4  11    5.65    5.99
  -3  -4 -11    9.03    4.12
   3   4  12   27.32    6.98
  -3  -4 -12   22.57    6.72
   3   5   0   -2.11    4.50
  -3  -5   0   -1.78    4.02
  -3  -5   0    1.17    3.21
  -3  -5  -1    1.32    4.33
  -3  -5  -1   -0.17    2.82
   3   5   1    1.60    4.50
  -3  -5  -2   44.26    4.44
  -3  -5  -2   40.40    4.49
   3   5   2   35.53    3.37
  -3  -5  -3  431.70    9.27
  -3  -5  -3  425.79    6.96
   3   5   3  400.43    6.71
  -3  -5  -4  259.94    7.17
  -3  -5  -4  254.13    5.17
   3   5   4  198.78    4.61
  -3  -5  -5    7.87    4.38
  -3  -5  -5    8.43    3.10
   3   5   5    9.44    3.13
   3   5   6    1.05    3.18
  -3  -5  -6    2.34    4.35
  -3  -5  -6    1.38    4.35
   3   5   7    1.07    3.04
  -3  -5  -7    1.64    5.83
  -3  -5  -7    2.42    4.43
   3   5   8    0.31    3.19
  -3  -5  -8    0.56    7.33
  -3  -5  -8    0.72    4.49
   3   5   9    4.00    5.15
  -3  -5  -9    1.05    3.43
   3   5  10    5.61    5.44
  -3  -5 -10    3.43    3.78
   3   5  11   -1.15    4.25
  -3  -5 -11   -1.65    5.89
   3   5  12   -1.12    4.85
  -3  -5 -12    0.25    6.57
  -3  -6   0    3.59    4.62
   3   6   0    2.93    3.48
  -3  -6   0   -2.69    4.08
  -3  -6  -1   45.73    3.56
  -3  -6  -1   45.35    3.45
   3   6   1   58.97    5.10
  -3  -6  -2  130.66    4.11
  -3  -6  -2  135.47    5.43
   3   6   2  122.55    4.13
  -3  -6  -3   89.46    5.10
  -3  -6  -3   80.92    3.61
   3   6   3  104.69    4.97
  -3  -6  -4  463.56   10.16
  -3  -6  -4  487.71    8.31
   3   6   4  505.51    8.48
  -3  -6  -5  547.14   10.74
  -3  -6  -5  651.24   10.28
   3   6   5  591.46    8.87
   3   6   6  388.48    6.86
  -3  -6  -6  348.26    8.12
  -3  -6  -6  421.80    8.02
   3   6   7    8.94    3.39
  -3  -6  -7    5.73    4.98
  -3  -6  -7    7.19    4.59
   3   6   8   10.47    3.39
  -3  -6  -8   11.59    6.89
  -3  -6  -8   11.71    4.75
   3   6   9    3.95    5.09
  -3  -6  -9   -2.10    5.05
   3   6  10    1.39    5.60
  -3  -6 -10   -3.69    5.67
   3   6  11    4.72    4.40
  -3  -6 -11    0.95    4.36
  -3  -7   0   51.65    3.77
   3   7   0   67.65    5.36
  -3  -7   0   50.92    4.69
  -3  -7  -1   -0.34    3.32
  -3  -7  -1    1.80    3.09
   3   7   1    0.51    4.87
  -3  -7  -2    5.16    3.29
  -3  -7  -2    4.55    3.25
   3   7   2    3.31    3.39
  -3  -7  -3    1.82    4.54
  -3  -7  -3    1.50    3.18
   3   7   3    5.93    4.79
  -3  -7  -4    3.87    4.69
  -3  -7  -4    4.88    3.19
   3   7   4    4.19    3.43
  -3  -7  -5   29.13    4.85
  -3  -7  -5   30.71    4.62
   3   7   5   37.63    4.97
  -3  -7  -6    0.16    4.68
  -3  -7  -6    1.22    4.59
   3   7   6    3.27    4.85
   3   7   7   -1.18    3.36
  -3  -7  -7    2.44    5.24
  -3  -7  -7    1.66    4.61
   3   7   8   48.77    5.25
  -3  -7  -8   47.60    6.21
  -3  -7  -8   50.05    5.13
   3   7   9    1.18    3.70
  -3  -7  -9    2.31    7.13
  -3  -7  -9   -0.85    3.62
   3   7  10   18.77    4.26
  -3  -7 -10   12.63    5.88
   3   7  11   18.23    6.60
  -3  -7 -11   18.68    4.59
   3   8   0    3.03    5.05
  -3  -8   0    4.80    4.85
  -3  -8   0    2.70    4.49
  -3  -8  -1    2.45    4.78
  -3  -8  -1    0.28    4.60
   3   8   1    5.12    5.19
  -3  -8  -2   56.54    4.95
  -3  -8  -2   39.22    3.66
   3   8   2   63.59    5.18
  -3  -8  -3   37.98    5.05
  -3  -8  -3   56.16    5.11
   3   8   3   60.18    5.31
  -3  -8  -4    1.07    4.83
  -3  -8  -4    1.77    3.34
   3   8   4    0.60    3.59
  -3  -8  -5   76.42    5.52
  -3  -8  -5   88.05    5.45
   3   8   5  109.18    5.77
  -3  -8  -6   40.48    3.97
  -3  -8  -6   50.82    3.88
   3   8   6   61.58    5.37
   3   8   7   24.77    3.89
  -3  -8  -7   19.89    4.07
  -3  -8  -7   17.51    3.74
   3   8   8   10.50    5.64
  -3  -8  -8    8.76    6.19
  -3  -8  -8    9.32    5.24
   3   8   9    2.63    4.00
  -3  -8  -9    0.64    7.91
  -3  -8  -9    0.68    3.86
   3   8  10   61.18    6.54
  -3  -8 -10   48.53    6.46
   3   9   0    3.66    3.88
  -3  -9   0    3.13    3.70
  -3  -9   0    2.31    3.40
   3   9   1   13.56    5.53
  -3  -9  -1    9.90    3.51
  -3  -9  -1   10.13    3.48
  -3  -9  -2   20.04    3.83
  -3  -9  -2   27.86    5.14
   3   9   2   32.19    5.50
  -3  -9  -3   31.15    5.17
  -3  -9  -3   40.72    5.29
   3   9   3   47.94    5.68
  -3  -9  -4    1.54    5.15
  -3  -9  -4    3.76    5.15
   3   9   4    5.06    5.48
  -3  -9  -5   11.36    5.37
  -3  -9  -5   16.92    3.94
   3   9   5   19.04    4.11
  -3  -9  -6    8.37    5.45
  -3  -9  -6    7.37    5.34
   3   9   6   15.48    4.07
  -3  -9  -7   11.64    5.88
  -3  -9  -7    8.39    3.88
   3   9   7   12.47    4.14
   3   9   8   13.98    4.33
  -3  -9  -8   10.84    6.59
  -3  -9  -8   10.43    4.16
   3   9   9    4.73    4.50
  -3  -9  -9    1.18    7.23
  -3  -9  -9    1.59    6.11
   3  10   0   10.86    5.71
  -3 -10   0    3.78    5.58
  -3 -10   0    5.44    3.86
   3  10   1    8.53    5.71
  -3 -10  -1    8.98    3.71
  -3 -10  -1    4.53    5.63
  -3 -10  -2   -0.16    5.35
   3  10   2   -1.19    5.67
  -3 -10  -2    4.60    5.48
  -3 -10  -3   32.06    5.69
  -3 -10  -3   42.77    5.80
   3  10   3   48.06    6.12
  -3 -10  -4   15.27    5.72
  -3 -10  -4   17.40    4.10
   3  10   4   21.95    4.38
  -3 -10  -5    4.14    4.05
  -3 -10  -5    3.85    4.06
   3  10   5    2.23    6.06
  -3 -10  -6    3.23    5.82
  -3 -10  -6    2.52    3.95
   3  10   6   -3.45    4.40
  -3 -10  -7    1.27    6.22
  -3 -10  -7    1.71    4.15
   3  10   7    1.09    6.41
  -3 -10  -8   16.48    7.12
  -3 -10  -8   11.29    4.49
   3  10   8   15.69    6.74
  -3 -11   0    0.53    5.91
  -3 -11   0    4.60    4.25
   3  11   0    4.67    4.34
   3  11   1    1.36    6.11
  -3 -11  -1    2.75    5.72
  -3 -11  -1    6.11    5.93
   3  11   2    1.90    6.08
  -3 -11  -2   -2.60    5.78
  -3 -11  -2   -2.87    5.95
  -3 -11  -3    3.37    5.84
   3  11   3    3.89    6.43
  -3 -11  -3   -1.30    4.22
  -3 -11  -4    2.67    4.34
  -3 -11  -4    6.90    6.02
   3  11   4    7.74    4.65
  -3 -11  -5   12.82    6.32
  -3 -11  -5   17.55    6.23
   3  11   5   14.95    6.72
  -3 -11  -6   11.97    4.54
  -3 -11  -6   13.35    4.63
   3  11   6   13.68    4.91
  -3 -11  -7   10.17    7.15
  -3 -11  -7   13.28    6.76
   3  11   7    4.88    7.20
   3  12   1    3.77    6.75
  -3 -12  -1    8.06    6.39
  -3 -12  -1    4.68    6.53
   3  12   2   11.41    7.04
  -3 -12  -2    8.51    6.64
  -3 -12  -2   12.92    6.67
   3  12   3   -3.19    7.06
  -3 -12  -3    3.70    6.63
  -3 -12  -3    2.35    6.60
  -3 -12  -4    1.48    6.72
   3  12   4    0.60    7.36
  -3 -12  -4    3.35    6.65
  -4   8  -1   -0.38    6.15
  -4   8  -2    1.40    4.73
  -4   8  -3   -0.40    4.87
  -4   7  -1    0.59    5.72
  -4   7  -2   -2.09    6.03
  -4   7  -3    3.10    6.19
  -4   7  -4    4.01    6.29
  -4   7  -5   -2.08    6.57
  -4   6  -1    1.09    5.36
  -4   6  -1    0.19    7.16
  -4   6  -1   -1.25    8.64
  -4   6  -2    4.61    5.64
  -4   6  -3    0.61    5.64
  -4   6  -4    2.39    5.94
  -4   6  -5    0.43    5.92
  -4   6  -6   19.02    4.52
  -4   6  -7    0.81    6.52
  -4   5  -1   56.32    5.59
  -4   5  -1   68.89    7.92
  -4   5  -1   72.61    7.27
  -4   5  -2   63.74    8.41
  -4   5  -2   65.48    5.64
  -4   5  -2   71.31    8.16
  -4   5  -3    7.02    5.42
  -4   5  -4   39.30    5.74
  -4   5  -5    2.11    3.98
  -4   5  -6    2.79    5.71
  -4   5  -7    4.47    6.09
  -4   5  -8    9.55    7.05
  -4   4  -1   14.16    5.72
  -4   4  -1   12.01    3.58
  -4   4  -1   12.48    5.67
  -4   4  -2    9.70    6.64
  -4   4  -2    8.22    5.72
  -4   4  -2    8.71    5.11
  -4   4  -3   17.88    7.09
  -4   4  -3   15.61    6.12
  -4   4  -3   14.27    5.32
  -4   4  -4  134.48    6.94
  -4   4  -4  138.42    9.71
  -4   4  -5    3.57    5.34
  -4   4  -5    0.93    8.88
  -4   4  -6   14.00    5.58
  -4   4  -7    7.56    5.73
  -4   4  -8    6.61    7.81
  -4   4  -9    0.22    9.05
  -4   3  -1   19.58    3.54
  -4   3  -1   26.03    5.49
   4  -3   1   24.86    5.58
  -4   3  -2   37.46    5.24
   4  -3   2   31.96    5.77
  -4   3  -2   33.02    5.61
  -4   3  -3  254.32   10.17
  -4   3  -3  269.45    8.93
   4  -3   3  243.83    9.28
   4  -3   4  295.24   10.44
  -4   3  -4  312.84   12.63
  -4   3  -4  319.68    9.80
   4  -3   5  114.71    8.01
  -4   3  -5  114.73    6.62
  -4   3  -5  122.36    7.97
  -4   3  -6   51.95    5.73
   4  -3   6   43.56    5.97
  -4   3  -6   58.59    7.30
  -4   3  -7    0.33    5.52
  -4   3  -7    0.23    6.96
   4  -3   7    0.71    6.90
   4  -3   8    0.56    6.11
  -4   3  -8    0.35    7.43
  -4   3  -8    1.58    7.12
  -4   3  -9    1.74    6.13
   4  -3   9    8.37    8.27
   4  -2   1    5.81    5.13
  -4   2  -1    4.00    3.43
  -4   2  -1    1.91    3.64
   4  -2   2  357.32    9.84
  -4   2  -2  395.60   11.47
  -4   2  -2  391.23    9.48
  -4   2  -3   21.84    5.07
   4  -2   3   22.64    5.22
  -4   2  -3   29.95    5.23
  -4   2  -4    1.21    4.60
  -4   2  -4    3.56    5.11
   4  -2   4    1.99    5.16
   4  -2   5   40.93    5.43
  -4   2  -5   55.92    5.49
  -4   2  -5   58.66    6.41
   4  -2   6   12.99    5.34
  -4   2  -6   11.11    5.02
  -4   2  -6   12.36    5.17
  -4   2  -7    0.17    6.52
   4  -2   7    2.06    5.58
  -4   2  -7    4.51    5.46
  -4   2  -8   20.47    7.26
   4  -2   8   20.34    7.19
  -4   2  -8   17.87    5.97
   4  -2   9    3.14    6.11
  -4   2  -9    1.68    6.28
   4  -2  10    9.22    6.96
  -4   2 -10   27.31    7.03
   4  -1   1   88.94    5.30
  -4   1  -1   96.39    5.81
  -4   1  -1   92.01    4.63
   4  -1   2   88.93    5.40
  -4   1  -2   95.57    5.68
  -4   1  -2   95.67    5.83
  -4   1  -3   80.19    4.33
  -4   1  -3  111.08    6.17
   4  -1   3   99.44    5.71
   4  -1   4    9.56    4.93
  -4   1  -4    9.15    3.42
  -4   1  -4   11.49    5.20
   4  -1   5   15.66    5.15
  -4   1  -5   13.09    4.76
  -4   1  -5   14.34    5.19
  -4   1  -6   52.77    5.42
   4  -1   6   57.00    5.43
  -4   1  -6   50.94    5.29
  -4   1  -7   40.91    5.81
   4  -1   7   23.03    5.56
  -4   1  -7   45.14    5.53
  -4   1  -8   12.15    8.97
   4  -1   8    9.09    5.54
  -4   1  -8   13.15    5.74
   4  -1   9    0.76    5.63
  -4   1  -9    0.35    5.98
   4  -1  10    3.89    6.35
  -4   1 -10    7.01    6.80
   4   0   0    1.14    4.49
  -4   0   0   -2.34    5.02
   4   0   1    2.41    4.57
  -4   0  -1    2.71    3.55
  -4   0  -2  110.19    6.35
   4   0   2  110.74    5.37
  -4   0  -2  115.32    5.63
  -4   0  -3  211.57    6.59
   4   0   3  175.26    5.13
  -4   0  -3  224.29    8.80
  -4   0  -4   69.63    4.12
   4   0   4   80.86    5.35
  -4   0  -4   82.96    5.95
  -4   0  -5  281.54    8.51
   4   0   5  213.33    5.70
  -4   0  -5  296.57   10.80
  -4   0  -6   17.32    6.04
  -4   0  -6   13.95    3.43
   4   0   6   15.35    5.06
  -4   0  -7    6.15    7.08
  -4   0  -7    5.37    3.55
   4   0   7    8.22    4.97
  -4   0  -8   50.36    5.61
   4   0   8   50.90    5.36
  -4   0  -9   -0.93    5.64
   4   0   9    0.33    5.44
  -4   0 -10   67.90    6.85
   4   0  10   59.53    6.55
   4   0  11   -0.39    6.97
  -4   0 -11   -0.64    6.97
   4   1   0    2.98    3.06
  -4  -1   0    0.33    3.37
  -4  -1  -1  195.20    5.27
   4   1   1  217.13    6.48
   4   1   2    6.57    4.57
  -4  -1  -2    2.58    3.62
  -4  -1  -3  147.41    5.87
   4   1   3  133.88    5.63
  -4  -1  -4   45.43    5.09
   4   1   4   46.57    3.58
  -4  -1  -4   45.67    5.43
  -4  -1  -5  120.99    5.77
   4   1   5  112.74    5.37
  -4  -1  -5  121.66    7.03
  -4  -1  -6   74.32    5.23
  -4  -1  -6   66.73    5.89
   4   1   6   69.56    5.24
  -4  -1  -7    7.15    8.53
  -4  -1  -7    8.41    8.10
  -4  -1  -7   15.39    4.89
   4   1   7    9.03    4.91
  -4  -1  -8   30.02    5.32
   4   1   8   25.79    5.24
  -4  -1  -9   15.06    5.37
   4   1   9    4.18    4.00
  -4  -1 -10   45.29    6.24
   4   1  10   44.63    6.55
  -4  -1 -11    0.95    4.55
   4   1  11    6.00    6.92
  -4  -2   0    2.86    3.17
   4   2   0    3.22    4.26
  -4  -2  -1   73.88    5.04
   4   2   1   68.33    4.69
   4   2   2    0.88    4.44
  -4  -2  -2   -2.00    3.29
  -4  -2  -3  118.87    5.73
   4   2   3  110.96    5.08
  -4  -2  -4   71.79    5.39
   4   2   4   70.12    4.93
  -4  -2  -5  112.06    5.65
   4   2   5   90.19    3.98
  -4  -2  -6  125.91    7.71
  -4  -2  -6  275.93    6.73
  -4  -2  -6  322.04   14.33
   4   2   6  300.05    6.96
  -4  -2  -7   67.28    9.65
  -4  -2  -7   79.77   10.00
  -4  -2  -7   80.33    5.55
   4   2   7   78.64    5.29
  -4  -2  -8    4.60    5.05
   4   2   8    0.41    5.02
  -4  -2  -9   10.01    5.38
   4   2   9   10.27    5.58
  -4  -2 -10   21.97    5.87
   4   2  10   19.74    6.19
  -4  -2 -11    5.77    6.38
   4   2  11   -1.78    7.12
  -4  -3   0  116.38    5.23
   4   3   0  124.26    5.28
   4   3   1  126.96    5.17
  -4  -3  -1  120.33    5.21
  -4  -3  -2   76.79    3.73
   4   3   2   85.94    4.84
  -4  -3  -3   79.21    3.85
   4   3   3   61.24    3.43
  -4  -3  -4   80.57    4.06
   4   3   4   70.29    3.55
  -4  -3  -5   30.47    4.95
  -4  -3  -5   39.91    3.72
   4   3   5   34.38    3.35
  -4  -3  -6    6.34    4.39
  -4  -3  -6   11.05    4.75
   4   3   6    5.91    4.73
  -4  -3  -7  120.55    9.10
  -4  -3  -7  141.91    6.03
  -4  -3  -7  119.42   10.09
   4   3   7  122.48    4.43
  -4  -3  -8   20.96    5.20
   4   3   8   19.17    5.10
  -4  -3  -9   18.61    5.53
   4   3   9   22.02    5.72
  -4  -3 -10   -0.03    5.84
   4   3  10   -0.22    4.32
  -4  -3 -11    6.13    4.48
   4   3  11    4.13    6.92
  -4  -4   0   57.71    4.82
   4   4   0   55.01    3.67
   4   4   1   84.60    3.77
  -4  -4  -1   74.67    3.83
  -4  -4  -2   14.55    3.35
   4   4   2   21.01    4.58
  -4  -4  -3  264.13    8.30
  -4  -4  -3  252.67    5.49
   4   4   3  234.27    5.09
  -4  -4  -4   38.55    5.04
  -4  -4  -4   58.07    4.89
   4   4   4   59.95    4.63
  -4  -4  -5    2.95    4.46
  -4  -4  -5    2.80    4.72
   4   4   5    4.60    4.56
  -4  -4  -6   33.08    4.88
  -4  -4  -6   43.11    5.22
   4   4   6   44.51    4.84
  -4  -4  -7    5.03    6.05
  -4  -4  -7    3.62    3.70
   4   4   7    7.27    5.07
  -4  -4  -8   12.45    5.31
   4   4   8   10.84    5.24
  -4  -4  -9    9.67    5.55
   4   4   9   10.51    5.54
   4   4  10   -2.09    6.20
  -4  -4 -10    2.01    4.07
   4   4  11    9.14    6.82
  -4  -4 -11    4.30    6.42
  -4  -5   0   96.40    5.66
  -4  -5   0   98.14    5.15
   4   5   0  101.99    5.28
  -4  -5  -1    1.45    3.24
   4   5   1   -0.27    4.56
  -4  -5  -1   -0.86    4.45
  -4  -5  -2  128.10    4.06
  -4  -5  -2  120.62    4.87
   4   5   2  127.20    4.16
  -4  -5  -3  946.33   20.96
  -4  -5  -3 1038.82   15.55
   4   5   3  886.75   13.08
  -4  -5  -4  186.46    5.81
  -4  -5  -4  227.53    6.20
   4   5   4  167.05    4.49
  -4  -5  -5  254.93    7.78
  -4  -5  -5  268.08    5.69
   4   5   5  295.52    5.74
  -4  -5  -6   51.76    5.17
  -4  -5  -6   53.59    3.86
   4   5   6   62.91    5.05
  -4  -5  -7   13.32    4.95
  -4  -5  -7   14.54    5.24
   4   5   7   13.72    3.44
  -4  -5  -8   20.80    8.19
  -4  -5  -8   17.56    3.96
   4   5   8   20.77    5.34
  -4  -5  -9    8.43    4.00
   4   5   9    8.82    5.52
   4   5  10    4.87    6.04
  -4  -5 -10    7.03    6.04
   4   5  11   -0.49    6.59
  -4  -5 -11    1.14    6.46
   4   6   0   -0.33    3.47
  -4  -6   0    0.55    2.95
  -4  -6   0   -2.19    4.80
  -4  -6  -1  151.66    5.57
  -4  -6  -1  119.35    4.88
   4   6   1  135.61    4.31
  -4  -6  -2   10.31    3.35
  -4  -6  -2   10.51    4.38
   4   6   2   11.02    3.23
  -4  -6  -3    7.84    4.71
  -4  -6  -3   15.51    4.54
   4   6   3   11.42    3.30
  -4  -6  -4    8.76    4.73
  -4  -6  -4    9.17    4.44
   4   6   4    7.96    3.24
  -4  -6  -5   19.42    3.51
  -4  -6  -5   25.44    4.78
   4   6   5   30.38    4.72
  -4  -6  -6   22.98    5.13
  -4  -6  -6   31.52    5.01
   4   6   6   29.37    4.91
  -4  -6  -7    0.40    5.11
  -4  -6  -7   -1.21    3.60
   4   6   7    1.59    5.00
  -4  -6  -8    7.81    7.24
  -4  -6  -8    7.30    5.59
   4   6   8    5.49    3.61
  -4  -6  -9    9.23    4.19
   4   6   9   12.46    4.00
   4   6  10   12.42    6.16
  -4  -6 -10   15.12    4.40
   4   6  11   -0.63    4.83
  -4  -6 -11    6.49    4.81
   4   7   0   51.55    5.44
  -4  -7   0   46.14    3.86
  -4  -7   0   32.14    3.54
  -4  -7  -1  114.08    5.42
   4   7   1  105.20    4.39
  -4  -7  -1   88.99    4.21
  -4  -7  -2    3.72    4.57
  -4  -7  -2    4.97    4.62
   4   7   2    2.61    3.39
  -4  -7  -3    0.11    4.57
  -4  -7  -3    5.83    4.68
   4   7   3    4.70    4.78
  -4  -7  -4   13.48    3.60
  -4  -7  -4   15.46    3.50
   4   7   4   17.11    5.02
  -4  -7  -5    1.47    4.92
  -4  -7  -5    6.12    4.68
   4   7   5   -0.59    3.43
  -4  -7  -6   11.38    5.08
  -4  -7  -6   10.44    3.53
   4   7   6   15.18    4.97
  -4  -7  -7   13.26    5.29
  -4  -7  -7   12.45    5.18
   4   7   7   14.69    5.13
  -4  -7  -8    7.76    6.19
  -4  -7  -8   11.01    5.42
   4   7   8   11.69    5.36
  -4  -7  -9    0.02    8.85
  -4  -7  -9    1.10    5.96
   4   7   9    1.87    4.17
  -4  -7 -10    1.80    4.59
   4   7  10    5.86    6.43
  -4  -8   0   15.69    5.49
  -4  -8   0   13.30    4.80
   4   8   0   12.09    5.46
  -4  -8  -1   57.65    5.45
   4   8   1   44.37    4.06
  -4  -8  -1   38.93    5.03
  -4  -8  -2    2.66    4.95
  -4  -8  -2    1.58    3.34
   4   8   2    0.60    3.80
  -4  -8  -3    2.18    4.94
  -4  -8  -3   10.98    4.95
   4   8   3   14.89    5.09
  -4  -8  -4   14.23    5.15
  -4  -8  -4   16.76    3.63
   4   8   4   24.26    5.33
  -4  -8  -5   13.95    3.74
  -4  -8  -5   19.12    3.66
   4   8   5   18.09    3.80
  -4  -8  -6    2.99    5.39
  -4  -8  -6    5.54    3.57
   4   8   6    8.36    5.39
  -4  -8  -7   33.56    5.69
  -4  -8  -7   37.11    5.63
   4   8   7   39.26    5.93
  -4  -8  -8    1.73    6.34
  -4  -8  -8   -2.24    5.54
   4   8   8    2.00    3.97
  -4  -8  -9    9.14    8.76
  -4  -8  -9    7.17    6.26
   4   8   9    7.01    4.40
  -4  -8 -10   16.55   10.19
  -4  -8 -10   19.31    6.87
   4   8  10   24.20    6.82
  -4  -9   0    2.24    5.77
  -4  -9   0   -0.35    3.61
   4   9   0    3.02    5.80
   4   9   1   -1.08    3.96
  -4  -9  -1    1.47    3.78
  -4  -9  -1    3.29    3.68
  -4  -9  -2    0.99    5.38
   4   9   2   -0.04    4.00
  -4  -9  -2    1.11    5.26
  -4  -9  -3    2.39    5.30
  -4  -9  -3   -1.76    5.22
   4   9   3    1.15    5.49
  -4  -9  -4   12.05    5.45
  -4  -9  -4   18.08    3.79
   4   9   4   15.35    4.00
  -4  -9  -5   -1.17    5.54
  -4  -9  -5    1.08    5.32
   4   9   5    2.39    5.62
  -4  -9  -6    3.67    5.50
  -4  -9  -6    1.25    3.94
   4   9   6    3.18    4.11
  -4  -9  -7    8.17    6.09
  -4  -9  -7    8.05    5.90
   4   9   7   14.06    4.36
  -4  -9  -8    1.31    6.69
  -4  -9  -8    3.90    4.25
   4   9   8   -1.30    6.35
  -4  -9  -9    3.97    9.58
  -4  -9  -9    7.76    6.50
   4   9   9    8.88    6.75
  -4 -10   0    0.98    6.17
  -4 -10   0    3.33    5.53
   4  10   0    2.47    4.34
   4  10   1    0.89    6.05
  -4 -10  -1   -1.91    5.90
  -4 -10  -1   -0.18    3.85
   4  10   2   -0.62    4.14
  -4 -10  -2   -1.06    5.70
  -4 -10  -2   -1.45    3.99
  -4 -10  -3    1.20    5.75
   4  10   3    2.01    6.03
  -4 -10  -3    1.90    4.07
  -4 -10  -4    0.87    5.88
  -4 -10  -4    3.03    5.68
   4  10   4    4.34    4.14
  -4 -10  -5   75.86    6.35
  -4 -10  -5  105.24    6.69
   4  10   5  116.41    7.03
  -4 -10  -6    9.30    6.00
  -4 -10  -6   19.16    6.06
   4  10   6   15.29    4.47
  -4 -10  -7   -0.13    6.19
  -4 -10  -7    2.85    4.29
   4  10   7   -1.26    4.54
  -4 -11   0    5.12    6.58
  -4 -11   0   11.30    6.09
   4  11   0    6.12    4.61
   4  11   1    6.29    6.68
  -4 -11  -1    4.92    6.35
  -4 -11  -1    4.41    4.30
   4  11   2    9.96    4.67
  -4 -11  -2   10.26    6.07
  -4 -11  -2   10.27    6.39
   4  11   3    4.00    4.78
  -4 -11  -3    4.05    4.35
  -4 -11  -3    4.78    4.46
  -4 -11  -4   -2.60    6.16
   4  11   4    5.84    4.73
  -4 -11  -4    1.19    4.44
  -4 -11  -5   12.22    6.52
  -4 -11  -5   17.60    6.55
   4  11   5   12.14    4.95
  -4 -11  -6    7.05    6.81
  -4 -11  -6    1.82    6.65
  -5   7  -1   -1.69    4.82
  -5   6  -1    0.85    8.89
  -5   6  -1    0.38    4.44
  -5   6  -1    0.95    7.13
  -5   6  -2    0.41   12.46
  -5   6  -2    4.54    6.69
  -5   6  -2    0.32   11.77
  -5   6  -3    5.29    6.83
  -5   6  -4    6.94    6.88
  -5   5  -1    3.28    5.87
  -5   5  -1    5.07    7.07
  -5   5  -1    3.20    7.50
  -5   5  -2    2.19    7.43
  -5   5  -2   -3.05    6.00
  -5   5  -2    2.35    7.36
  -5   5  -3    7.79    8.91
  -5   5  -3    6.48    4.52
  -5   5  -3    8.11    8.26
  -5   5  -4   24.34    6.59
  -5   5  -5    6.13    6.41
  -5   5  -6    3.94    4.67
  -5   4  -1    3.08    6.28
  -5   4  -1   -6.61    5.91
  -5   4  -1    0.94    6.59
  -5   4  -2   59.08    6.95
  -5   4  -2   59.92    8.03
  -5   4  -2   55.83    6.32
  -5   4  -3  154.09    9.80
  -5   4  -3  133.39    8.69
  -5   4  -3  122.86    6.10
  -5   4  -4   23.42    7.41
  -5   4  -4   19.25    6.17
  -5   4  -5    1.58    6.02
  -5   4  -5    1.29    8.97
  -5   4  -6    6.72   12.59
  -5   4  -6    5.61    6.12
  -5   4  -6    6.77   12.70
  -5   4  -7    2.25    6.36
  -5   3  -1  127.59    7.15
  -5   3  -1  127.29    7.44
   5  -3   1  104.87    7.04
   5  -3   2   29.65    6.03
  -5   3  -2   31.36    6.04
  -5   3  -2   29.83    6.28
  -5   3  -3   22.21    5.75
  -5   3  -3   20.58    5.95
   5  -3   3   23.83    5.84
   5  -3   4    1.14    7.10
  -5   3  -4   -0.45    4.99
  -5   3  -4    5.13    5.86
  -5   3  -5   37.84    6.14
  -5   3  -5   33.64    6.23
   5  -3   5   38.15    7.49
   5  -3   6   21.00    7.49
  -5   3  -6   14.50    5.80
  -5   3  -6   19.76    6.49
   5  -3   7    1.21    7.78
  -5   3  -7    1.27    5.82
  -5   3  -7    2.41    8.05
  -5   3  -8    4.06    6.99
   5  -3   8    8.14    8.50
  -5   3  -8    6.50    8.65
   5  -2   1  108.90    6.39
  -5   2  -1  102.75    6.49
  -5   2  -1  114.99    6.92
   5  -2   2    2.93    5.35
  -5   2  -2    1.02    5.43
  -5   2  -2    3.47    5.80
  -5   2  -3    9.58    5.54
  -5   2  -3   11.48    5.73
   5  -2   3   10.24    5.53
  -5   2  -4   55.58    5.76
   5  -2   4   59.95    5.97
  -5   2  -4   62.46    6.49
  -5   2  -5    0.49    5.05
   5  -2   5    3.91    6.83
  -5   2  -5    1.29    5.61
  -5   2  -6    1.60    5.42
  -5   2  -6    2.59    5.55
   5  -2   6    3.49    5.79
  -5   2  -7    1.63    5.69
  -5   2  -7    4.01    6.07
   5  -2   7    3.29    6.15
   5  -2   8    1.75    8.04
  -5   2  -8    1.27    8.01
  -5   2  -8    1.76    6.64
   5  -2   9    1.47    7.46
  -5   2  -9    0.83   11.31
  -5   2  -9    0.88    7.46
  -5   1  -1   84.04    5.01
  -5   1  -1   84.60    6.15
   5  -1   1   75.75    5.63
   5  -1   2   25.15    5.34
  -5   1  -2   30.44    5.48
  -5   1  -2   27.55    5.72
  -5   1  -3   17.76    5.56
   5  -1   3   16.52    5.44
  -5   1  -3   14.13    4.15
  -5   1  -4   14.70    3.71
  -5   1  -4   21.28    5.84
   5  -1   4   21.11    5.40
  -5   1  -5   16.09    3.60
  -5   1  -5   18.87    5.83
   5  -1   5   14.70    5.60
   5  -1   6    0.13    5.63
  -5   1  -6    3.33    5.12
  -5   1  -6    0.83    6.54
   5  -1   7    0.70    5.91
  -5   1  -7    3.17    6.70
  -5   1  -7    2.51    5.40
   5  -1   8    1.52    6.16
  -5   1  -8    3.32    7.81
  -5   1  -8    4.14    5.95
   5  -1   9    8.18    6.69
  -5   1  -9    9.92    6.81
  -5   0   0    6.67    3.92
  -5   0   0    6.91    3.74
   5   0   0    5.56    3.46
   5   0   1   41.13    5.05
  -5   0  -1   50.07    5.53
  -5   0  -1   39.43    4.14
   5   0   2    9.36    5.22
  -5   0  -2   15.25    5.20
  -5   0  -2   12.71    3.99
  -5   0  -3    2.76    5.29
  -5   0  -3    2.63    5.28
   5   0   3    0.24    5.07
  -5   0  -4   -0.57    5.26
  -5   0  -4    0.69    5.73
   5   0   4    4.55    5.26
   5   0   5   15.26    5.42
  -5   0  -5   14.33    5.24
  -5   0  -5   12.29    5.92
   5   0   6   -2.05    5.44
  -5   0  -6    3.21    5.02
  -5   0  -6    2.38    5.50
   5   0   7   18.63    5.69
  -5   0  -7   19.88    6.62
  -5   0  -7   23.85    5.39
  -5   0  -8    1.78    9.90
   5   0   8    4.40    3.99
  -5   0  -8    4.25    5.47
   5   0   9   18.19    6.09
  -5   0  -9   17.95    6.41
   5   0  10   14.81    6.68
  -5   0 -10    8.87    6.90
   5   1   0   -1.66    4.76
  -5  -1   0   -2.41    5.40
   5   1   1    9.31    4.73
  -5  -1  -1   14.03    5.17
   5   1   2   49.32    3.77
  -5  -1  -2   61.04    5.66
  -5  -1  -3   10.86    5.34
  -5  -1  -3   11.13    5.31
   5   1   3   13.64    5.07
   5   1   4   11.30    5.03
  -5  -1  -4   15.85    5.27
  -5  -1  -4   14.45    5.49
   5   1   5  269.88    7.46
  -5  -1  -5  292.37    8.60
  -5  -1  -5  267.52   12.56
   5   1   6   67.67    5.65
  -5  -1  -6   59.88    4.29
  -5  -1  -6   60.92    6.66
   5   1   7    7.76    5.42
  -5  -1  -7   11.53    5.38
  -5  -1  -7    7.64    6.52
   5   1   8    1.60    5.29
  -5  -1  -8    2.13    5.42
   5   1   9   14.68    4.16
  -5  -1  -9   18.72    5.97
   5   1  10    1.23    6.39
  -5  -1 -10    1.79    6.41
   5   2   0   51.50    5.08
  -5  -2   0   40.65    3.93
   5   2   1   15.28    4.95
  -5  -2  -1   14.31    3.64
   5   2   2    1.79    3.37
  -5  -2  -2   -0.81    3.70
  -5  -2  -3   90.77    4.27
   5   2   3  104.63    5.65
  -5  -2  -4   26.35    5.42
   5   2   4   26.57    5.20
  -5  -2  -5  216.05    7.05
   5   2   5  207.06    6.41
  -5  -2  -5  203.00   11.44
  -5  -2  -6   18.04    5.44
   5   2   6   13.68    5.18
  -5  -2  -6   15.95    7.16
  -5  -2  -7   -0.70    6.22
  -5  -2  -7   -1.13    3.83
   5   2   7   -0.21    5.13
  -5  -2  -7    2.87    6.55
  -5  -2  -8    6.24    4.01
   5   2   8    3.00    5.41
  -5  -2  -9   34.47    5.86
   5   2   9   19.76    4.17
  -5  -2 -10   16.37    6.38
   5   2  10   13.75    6.55
   5   3   0  180.21    6.00
  -5  -3   0  166.98    6.14
   5   3   1   19.85    4.79
  -5  -3  -1   22.31    5.19
   5   3   2    4.44    3.44
  -5  -3  -2    3.56    5.43
  -5  -3  -3  307.70    7.28
   5   3   3  304.13    7.18
  -5  -3  -4  121.47    5.83
   5   3   4  118.61    5.50
  -5  -3  -5    8.74    5.21
   5   3   5    8.94    3.54
  -5  -3  -6   24.87    5.55
  -5  -3  -6   31.47    5.50
   5   3   6   27.75    3.70
  -5  -3  -6   31.76    5.96
  -5  -3  -7   20.75    5.21
  -5  -3  -7   36.74    4.16
   5   3   7   33.00    5.27
  -5  -3  -7   37.75    7.64
  -5  -3  -8    6.63    5.65
   5   3   8    1.06    3.76
  -5  -3  -9   25.71    4.42
   5   3   9   28.18    6.07
  -5  -3 -10    5.53    4.59
   5   3  10    2.40    6.70
   5   4   0    6.82    3.38
  -5  -4   0   10.27    4.99
   5   4   1   87.31    5.22
  -5  -4  -1   82.70    4.01
  -5  -4  -2  217.21    6.38
   5   4   2  199.37    5.99
  -5  -4  -3  551.51    9.40
   5   4   3  618.93   10.55
  -5  -4  -4   16.00    5.71
  -5  -4  -4   19.89    5.11
   5   4   4   16.46    4.87
  -5  -4  -5    2.45    5.27
  -5  -4  -5    5.72    3.73
   5   4   5    5.39    5.04
  -5  -4  -6    7.58    5.00
  -5  -4  -6    7.74    5.49
   5   4   6    9.89    5.10
  -5  -4  -7    0.23    5.07
  -5  -4  -7    1.12    5.57
   5   4   7   -3.71    5.25
  -5  -4  -8    4.91    9.90
  -5  -4  -8    5.01    4.21
  -5  -4  -8    3.84   10.25
   5   4   8    8.82    5.62
  -5  -4  -9    1.93    4.42
   5   4   9    2.73    6.04
  -5  -4 -10   12.56    6.59
   5   4  10    3.12    4.72
   5   5   0   44.08    5.25
  -5  -5   0   42.94    5.18
   5   5   1  128.84    5.71
  -5  -5  -1  143.89    5.86
  -5  -5  -2   21.83    4.98
  -5  -5  -2   10.07    5.40
   5   5   2   18.05    4.86
  -5  -5  -3   57.12    5.86
  -5  -5  -3   56.21    3.79
   5   5   3   47.73    3.64
  -5  -5  -4    4.59    5.19
  -5  -5  -4    4.60    3.71
   5   5   4    7.46    4.73
  -5  -5  -5   14.85    5.28
  -5  -5  -5   16.48    3.83
   5   5   5   11.94    3.65
  -5  -5  -6    4.65    4.96
  -5  -5  -6   -1.49    4.03
   5   5   6    8.72    5.13
  -5  -5  -7    2.03    5.25
  -5  -5  -7    2.38    4.04
   5   5   7    3.16    5.37
  -5  -5  -8   23.18    9.22
  -5  -5  -8   29.85    6.31
   5   5   8   24.15    5.89
  -5  -5  -9    2.90    6.38
   5   5   9    3.32    6.15
  -5  -5 -10   -2.76    4.78
   5   5  10    5.25    4.82
  -5  -6   0   31.67    5.34
   5   6   0   40.69    5.51
  -5  -6   0   32.67    3.78
   5   6   1   18.65    3.61
  -5  -6  -1   25.17    3.57
  -5  -6  -1   14.66    3.77
  -5  -6  -2   16.98    3.53
   5   6   2   16.07    4.92
  -5  -6  -2    6.74    3.75
  -5  -6  -3    5.49    5.29
  -5  -6  -3    7.65    4.85
   5   6   3   10.47    4.76
  -5  -6  -4    2.05    5.30
  -5  -6  -4    2.38    3.47
   5   6   4    3.41    3.35
  -5  -6  -5   -1.59    5.25
  -5  -6  -5    6.33    5.05
   5   6   5   -4.15    4.87
  -5  -6  -6   -2.11    5.18
  -5  -6  -6    1.63    3.92
   5   6   6   -0.34    3.58
  -5  -6  -7   -0.01    6.51
  -5  -6  -7    4.39    5.72
   5   6   7    2.26    3.98
  -5  -6  -8    0.96    7.62
  -5  -6  -8    1.72    4.39
   5   6   8   -1.12    5.91
  -5  -6  -9    2.54    6.50
   5   6   9    6.35    6.29
  -5  -6 -10   10.61    7.04
  -5  -7   0    1.69    4.00
  -5  -7   0    5.03    3.73
   5   7   0    4.44    3.98
   5   7   1    4.97    5.57
  -5  -7  -1   -0.51    5.38
  -5  -7  -1    2.83    5.16
  -5  -7  -2   47.46    3.95
   5   7   2   47.45    3.90
  -5  -7  -2   31.22    3.93
  -5  -7  -3    5.97    3.75
  -5  -7  -3    9.50    3.59
   5   7   3   10.59    5.14
  -5  -7  -4   50.95    4.21
  -5  -7  -4   61.56    5.21
   5   7   4   59.31    5.24
  -5  -7  -5   15.81    3.87
  -5  -7  -5   21.59    5.16
   5   7   5   19.40    5.17
  -5  -7  -6    2.33    5.33
  -5  -7  -6    3.41    5.23
   5   7   6   -0.77    5.33
  -5  -7  -7    0.58    5.61
  -5  -7  -7   -1.50    4.16
   5   7   7   -2.81    5.75
  -5  -7  -8    0.80    7.76
  -5  -7  -8    1.79    4.40
   5   7   8    2.17    5.99
  -5  -7  -9    8.66   10.31
  -5  -7  -9    6.66    4.95
   5   7   9    9.94    6.40
  -5  -8   0   30.92    6.23
  -5  -8   0   17.42    5.32
   5   8   0   24.62    4.47
   5   8   1    2.01    5.83
  -5  -8  -1    4.70    3.99
  -5  -8  -1    3.24    3.74
   5   8   2    3.64    5.68
  -5  -8  -2    2.11    5.40
  -5  -8  -2    2.54    3.79
  -5  -8  -3    6.17    3.80
  -5  -8  -3    1.22    3.98
   5   8   3    5.91    5.37
  -5  -8  -4    6.81    5.57
  -5  -8  -4    1.56    3.73
   5   8   4    5.35    5.37
  -5  -8  -5    0.17    5.66
  -5  -8  -5    6.60    5.29
   5   8   5    1.24    5.33
  -5  -8  -6    0.59    5.63
  -5  -8  -6   -1.36    5.51
   5   8   6   -0.76    3.91
  -5  -8  -7    0.79    5.94
  -5  -8  -7    4.21    6.00
   5   8   7    0.85    4.19
  -5  -8  -8    3.71    6.68
  -5  -8  -8    5.38    4.52
   5   8   8    5.27    6.51
  -5  -9   0    3.77    4.58
  -5  -9   0    2.46    4.07
   5   9   0    4.42    4.53
  -5  -9  -1    1.84    4.41
  -5  -9  -1    2.59    5.57
   5   9   1    1.55    6.27
   5   9   2   25.01    6.13
  -5  -9  -2   18.52    4.23
  -5  -9  -2   17.06    5.80
   5   9   3   43.06    6.12
  -5  -9  -3   34.39    6.02
  -5  -9  -3   40.79    5.86
  -5  -9  -4   29.53    6.11
  -5  -9  -4   28.13    4.19
   5   9   4   39.85    4.29
  -5  -9  -5   34.60    6.27
  -5  -9  -5   41.46    5.96
   5   9   5   45.19    6.11
  -5  -9  -6   -0.86    5.98
  -5  -9  -6    6.56    6.03
   5   9   6    3.72    4.33
  -5  -9  -7    2.50    6.35
  -5  -9  -7    1.69    4.40
   5   9   7   -0.76    4.70
  -5 -10   0    7.37    7.18
  -5 -10   0   14.62    6.03
   5  10   0    6.17    4.95
  -5 -10  -1    7.77    4.69
  -5 -10  -1    9.73    4.21
   5  10   1    8.94    6.74
   5  10   2    0.75    6.61
  -5 -10  -2   -0.14    4.52
  -5 -10  -2    1.67    4.37
   5  10   3    3.22    6.29
  -5 -10  -3    2.97    4.56
  -5 -10  -3    2.43    4.38
   5  10   4   13.52    6.39
  -5 -10  -4   10.21    6.46
  -5 -10  -4    5.02    4.32
  -5 -10  -5   13.80    6.49
   5  10   5   14.10    6.62
  -5 -10  -5   15.59    4.47
  -5 -10  -6    1.42    6.36
  -5 -10  -6    2.61    4.55
   5  10   6    3.71    6.66
  -6   4  -1   11.29    6.96
  -6   4  -1    2.62    4.92
  -6   4  -1   17.91    8.22
  -6   4  -2    2.58    8.32
  -6   4  -2    0.27    9.39
  -6   4  -2   -0.51    4.98
  -6   4  -3   24.18    6.88
  -6   4  -3   30.04    7.28
  -6   4  -3   19.00    7.30
  -6   4  -4    6.48    8.13
  -6   4  -4    5.94    8.61
  -6   4  -4    6.74    7.35
  -6   3  -1    4.12    4.73
  -6   3  -1    7.88    7.38
  -6   3  -2    1.67    7.07
   6  -3   2    2.54    6.25
  -6   3  -2   -2.82    4.69
  -6   3  -3   -0.16    8.11
  -6   3  -3    3.81    4.75
   6  -3   3   -0.61    6.13
  -6   3  -4    3.14    6.29
   6  -3   4    0.35    7.57
  -6   3  -4    1.71    6.95
  -6   3  -5    6.47    8.09
  -6   3  -5    8.09    7.09
   6  -3   5    5.88    6.35
   6  -2   1    1.09    6.00
  -6   2  -1    1.58    6.31
  -6   2  -1    1.74    6.73
  -6   2  -2   13.66    4.86
   6  -2   2   13.67    4.23
  -6   2  -2   13.87    6.45
  -6   2  -3    3.33    6.41
   6  -2   3    3.09    5.99
  -6   2  -3    4.48    6.56
  -6   2  -4    5.27    5.91
  -6   2  -4    4.05    6.67
   6  -2   4    6.71    5.75
   6  -2   5    4.31    6.27
  -6   2  -5    7.04    5.96
  -6   2  -5    7.07    6.71
   6  -2   6    4.72    6.45
  -6   2  -6    5.13    6.38
  -6   2  -6    4.56    6.34
   6  -1   1   -0.15    4.04
  -6   1  -1    4.05    6.01
  -6   1  -1   -1.68    6.50
  -6   1  -2    6.79    6.18
   6  -1   2    6.54    4.10
  -6   1  -2    3.01    6.47
   6  -1   3   34.27    4.43
  -6   1  -3   37.62    6.60
  -6   1  -3   32.25    4.89
  -6   1  -4    1.74    4.23
   6  -1   4    2.99    4.29
  -6   1  -4   -0.90    6.61
  -6   1  -5    2.84    5.95
   6  -1   5   -3.14    6.23
  -6   1  -5    3.26    6.65
  -6   1  -6   -0.66    5.89
  -6   1  -6    0.71    6.45
   6  -1   6   -0.33    6.50
  -6   1  -7    0.48    6.24
  -6   1  -7    2.01    6.07
   6  -1   7    5.71    6.97
   6   0   0   18.79    3.98
  -6   0   0   26.42    6.18
  -6   0   0   16.56    4.59
  -6   0  -1    6.08    5.92
  -6   0  -1   -0.39    6.25
   6   0   1    2.14    5.58
   6   0   2   20.49    5.77
  -6   0  -2   21.92    6.07
  -6   0  -2   15.21    6.27
  -6   0  -3  104.69    6.85
   6   0   3   79.10    4.84
  -6   0  -3   72.98    5.65
  -6   0  -4   11.22    6.02
   6   0   4    4.28    6.07
  -6   0  -4    8.21    6.18
  -6   0  -5    9.15    5.80
  -6   0  -5    6.16    6.47
   6   0   5    4.70    6.24
  -6   0  -6    4.91    5.76
  -6   0  -6    1.35    6.51
   6   0   6    4.67    6.19
   6   0   7    0.49    6.49
  -6   0  -7   -0.98    7.49
  -6   0  -7    0.71    6.00
   6   0   8    2.20    6.70
  -6   0  -8   -0.50    8.06
  -6   0  -8    1.91    6.31
  -6  -1   0    3.60    4.46
   6   1   0    7.01    5.40
   6   1   1   93.45    4.60
  -6  -1  -1  111.28    6.87
   6   1   2   30.05    5.85
  -6  -1  -2   28.99    6.13
  -6  -1  -2   32.46    6.20
  -6  -1  -3    1.80    5.92
   6   1   3    2.91    4.21
  -6  -1  -3    2.89    5.83
  -6  -1  -4   23.15    5.94
  -6  -1  -4   22.84    4.44
   6   1   4   23.89    5.92
  -6  -1  -5   20.05    5.91
  -6  -1  -5   17.42    6.46
   6   1   5   17.22    4.43
   6   1   6    5.00    6.08
  -6  -1  -6    2.65    4.02
  -6  -1  -6   -0.88    6.53
   6   1   7    4.72    6.08
  -6  -1  -7    3.26    5.95
  -6  -1  -7   -0.24    6.25
  -6  -1  -8    1.53    9.34
   6   1   8    1.45    6.28
  -6  -1  -8   -0.65    8.03
  -6  -1  -8    3.22    6.12
   6   2   0    7.45    4.01
  -6  -2   0   11.74    6.25
   6   2   1   64.89    5.88
  -6  -2  -1   64.81    6.47
   6   2   2   51.39    5.86
  -6  -2  -2   53.55    6.36
  -6  -2  -3   73.74    6.22
   6   2   3   61.23    4.46
  -6  -2  -4    5.44    5.85
  -6  -2  -4    5.95    5.84
   6   2   4    3.79    4.11
   6   2   5    3.25    4.15
  -6  -2  -5    5.42    4.15
  -6  -2  -5    1.44    6.21
   6   2   6    7.65    5.85
  -6  -2  -6    7.36    5.99
  -6  -2  -6    5.86    6.53
   6   2   7    9.85    5.98
  -6  -2  -7   11.95    6.21
  -6  -2  -7   11.35    8.06
  -6  -2  -8   15.80    8.75
   6   2   8   12.40    6.22
  -6  -2  -8   11.30    7.72
  -6  -2  -8   17.58    6.31
   6   3   0   18.51    4.05
  -6  -3   0   22.16    5.93
   6   3   1   93.26    6.08
  -6  -3  -1   86.14    6.35
  -6  -3  -2  158.27    6.90
   6   3   2  144.92    6.37
  -6  -3  -3   19.18    5.89
   6   3   3   15.71    4.05
   6   3   4   44.65    4.26
  -6  -3  -4   63.74    6.18
   6   3   5    2.50    3.96
  -6  -3  -5    2.00    4.17
   6   3   6    9.34    5.81
  -6  -3  -6    8.63    6.07
  -6  -3  -6    8.99    7.91
  -6  -3  -7    1.66    7.16
   6   3   7   -1.00    5.80
  -6  -3  -7    5.36    6.24
  -6  -3  -7    1.33    6.69
  -6  -3  -8    4.81    7.63
   6   3   8    5.17    6.03
  -6  -3  -8    2.85    4.59
  -6  -3  -8    3.17    9.14
   6   4   0   39.78    5.67
  -6  -4   0   44.12    5.97
   6   4   1    6.61    3.88
  -6  -4  -1    7.96    5.72
  -6  -4  -2   50.22    6.01
   6   4   2   52.84    4.21
   6   4   3   42.30    5.66
  -6  -4  -3   28.82    4.20
   6   4   4    7.99    5.57
  -6  -4  -4   10.39    5.74
  -6  -4  -5    5.76    7.96
   6   4   5    3.34    5.52
  -6  -4  -5    9.75    5.83
  -6  -4  -6    4.15    6.05
   6   4   6   -1.24    5.64
  -6  -4  -6    1.81    6.19
  -6  -4  -7   18.76    7.10
   6   4   7   13.74    5.87
  -6  -4  -7   20.61    6.44
  -6  -4  -7   20.99    7.02
  -6  -4  -8   17.17    9.20
   6   4   8   16.95    6.24
  -6  -4  -8   22.50    6.81
  -6  -4  -8   18.15    8.64
   6   5   0   19.39    4.20
  -6  -5   0   20.91    4.14
   6   5   1   -2.77    3.88
  -6  -5  -1    9.25    5.72
  -6  -5  -2   48.80    5.87
   6   5   2   52.79    5.77
   6   5   3   -1.40    3.89
  -6  -5  -3    1.39    6.58
  -6  -5  -3    3.42    5.60
  -6  -5  -4    4.47    6.54
   6   5   4    5.50    3.80
  -6  -5  -4    7.02    3.92
  -6  -5  -5   13.76    6.25
   6   5   5   20.05    5.56
  -6  -5  -5   21.62    5.94
  -6  -5  -6   14.53    5.88
  -6  -5  -6   17.30    4.44
   6   5   6   15.10    4.02
  -6  -5  -7    3.51    5.74
  -6  -5  -7    4.42    6.39
   6   5   7    4.22    4.14
  -6  -5  -8   10.92    8.19
   6   5   8   13.33    6.34
  -6  -5  -8   11.58    4.92
  -6  -5  -8   11.59   10.91
  -6  -6   0   -1.95    6.06
   6   6   0    1.86    4.11
  -6  -6   0   -0.77    4.08
  -6  -6  -1    4.08    4.03
  -6  -6  -1   10.41    6.33
   6   6   1   10.00    4.03
  -6  -6  -2   66.67    5.94
  -6  -6  -2   16.45    4.80
   6   6   2   71.65    5.92
   6   6   3    1.36    4.02
  -6  -6  -3    3.32    6.50
  -6  -6  -3    4.06    5.69
  -6  -6  -4    3.15    4.32
   6   6   4    4.21    3.88
  -6  -6  -4    8.63    5.51
  -6  -6  -5    0.45    6.06
   6   6   5    0.55    5.69
  -6  -6  -5   -2.26    5.90
  -6  -6  -6    3.19    5.79
  -6  -6  -6   -0.06    4.31
   6   6   6    2.77    4.04
  -6  -6  -7   12.79    6.08
  -6  -6  -7   12.16    4.67
   6   6   7   18.35    4.33
  -6  -6  -8    4.17    8.45
  -6  -6  -8    9.18    6.94
   6   6   8    4.75    6.32
  -6  -7   0   14.34    4.49
  -6  -7   0   14.43    6.28
   6   7   0   21.29    6.43
  -6  -7  -1    1.61    4.14
  -6  -7  -1   -1.37    6.31
   6   7   1    8.96    6.19
  -6  -7  -2    3.40    5.84
  -6  -7  -2    0.65    6.27
   6   7   2    1.49    4.20
   6   7   3   13.51    5.68
  -6  -7  -3   11.80    4.52
  -6  -7  -3    7.97    4.12
   6   7   4   -3.99    5.64
  -6  -7  -4    1.49    6.33
  -6  -7  -4    3.20    5.65
  -6  -7  -5    1.30    6.19
   6   7   5   -0.18    4.16
  -6  -7  -5    0.45    5.90
  -6  -7  -6    4.12    6.03
  -6  -7  -6   -3.11    6.34
   6   7   6   -0.88    6.12
  -6  -7  -7    9.65    6.40
  -6  -7  -7   13.00    4.78
   6   7   7    5.87    4.53
  -6  -8   0   15.13    6.81
  -6  -8   0    5.07    4.46
   6   8   0   16.12    5.00
  -6  -8  -1   15.40    6.28
  -6  -8  -1   11.57    6.58
   6   8   1   16.25    6.58
  -6  -8  -2   63.56    6.45
  -6  -8  -2   39.15    6.84
   6   8   2   48.55    4.61
   6   8   3   25.20    6.26
  -6  -8  -3   20.45    4.88
  -6  -8  -3   24.02    6.08
   6   8   4   11.63    6.19
  -6  -8  -4   15.23    6.72
  -6  -8  -4    7.38    4.30
  -6  -8  -5    7.85    6.42
   6   8   5    4.23    4.38
  -6  -8  -5    7.56    6.11
  -6  -8  -6    0.80    6.32
   6   8   6    1.57    4.43
  -6  -8  -6   -2.03    4.51
  -6  -9   0    4.36    5.04
  -6  -9   0    0.11    6.68
  -6  -9  -1   24.26    6.93
  -6  -9  -1   18.19    4.89
   6   9   1   18.35    7.05
  -6  -9  -2   -4.27    6.47
  -6  -9  -2    4.29    4.83
   6   9   2    2.37    4.71
   6   9   3   -0.77    4.66
  -6  -9  -3    1.54    6.96
  -6  -9  -3    2.97    6.25
   6   9   4    9.15    4.51
  -6  -9  -4   10.57    7.20
  -6  -9  -4   14.63    6.31
   7  -1   1   -1.69    6.58
  -7   1  -1    1.39    5.14
  -7   1  -1   -1.86    7.69
  -7   1  -2   12.64    7.91
   7  -1   2   10.39    6.73
  -7   1  -2    4.54    7.47
  -7   1  -3   11.33    8.00
  -7   0   0    6.40    7.52
  -7   0   0   15.22    5.43
   7   0   0   16.16    4.75
   7   0   1   21.11    6.63
  -7   0  -1   18.44    5.36
  -7   0  -1   16.75    5.38
  -7   0  -2    4.78    7.43
  -7   0  -2    7.06    7.23
   7   0   2    4.32    6.70
  -7   0  -3    1.88    5.19
  -7   0  -3    4.05    7.13
   7   0   3    6.45    6.77
   7   0   4    6.76    5.12
  -7   0  -4    4.72    7.42
  -7   0  -4    1.70    7.47
   7   1   0   30.61    4.66
  -7  -1   0   36.35    7.72
  -7  -1   0   46.28    7.59
  -7  -1  -1   27.83    7.49
   7   1   1   30.57    4.77
  -7  -1  -1   31.63    7.65
   7   1   2    0.76    6.69
  -7  -1  -2    0.22    7.28
  -7  -1  -2   -3.11    7.03
  -7  -1  -3   24.84    7.02
   7   1   3   14.89    6.75
  -7  -1  -3   12.07    6.94
  -7  -1  -4   -3.44    7.17
   7   1   4    2.65    6.99
  -7  -1  -4    2.86    7.05
  -7  -1  -5    7.86    6.95
   7   1   5    5.90    5.20
  -7  -1  -5   11.03    7.67
   7   2   0   45.73    6.51
  -7  -2   0   52.72    7.72
   7   2   1   10.84    6.49
  -7  -2  -1   14.93    5.09
  -7  -2  -2    0.94    5.07
   7   2   2   -0.42    6.71
  -7  -2  -2   -1.30    6.89
  -7  -2  -3    4.06    6.86
   7   2   3    3.95    4.84
  -7  -2  -3    1.07    6.76
  -7  -2  -4    4.11    6.96
   7   2   4    1.19    6.78
  -7  -2  -4    0.46    4.64
  -7  -2  -5    3.71    6.91
  -7  -2  -5    0.49    7.31
   7   2   5   -1.80    4.97
  -7  -3   0   10.44    5.13
   7   3   0   12.70    6.43
   7   3   1   12.32    6.47
  -7  -3  -1   11.57    5.10
  -7  -3  -2   14.95    5.17
   7   3   2   11.99    6.80
  -7  -3  -3    2.20    4.86
   7   3   3    3.39    6.78
  -7  -3  -4    1.30    6.80
  -7  -3  -4    2.12    6.63
   7   3   4    4.25    4.64
  -7  -3  -5   -2.86    6.69
  -7  -3  -5    2.41    6.96
   7   3   5    2.70    4.87
   7   4   0    1.65    6.51
  -7  -4   0   -2.71    7.10
   7   4   1    4.36    4.54
  -7  -4  -1    4.97    6.97
  -7  -4  -2   10.06    4.94
   7   4   2    7.91    4.57
  -7  -4  -3    1.44    4.74
   7   4   3    0.76    6.45
  -7  -4  -4    6.15    4.84
   7   4   4    5.76    6.57
  -7  -4  -5    1.98    7.58
  -7  -4  -5   13.66    6.82
   7   4   5    7.16    6.67
   7   5   0   12.07    6.64
  -7  -5   0    2.25    7.11
  -7  -5  -1   10.34    6.87
   7   5   1   11.49    6.70
  -7  -5  -2   -1.49    6.88
   7   5   2   -6.22    6.55
  -7  -5  -3    0.66    5.37
  -7  -5  -3    6.73    6.71
   7   5   3    7.09    6.51
  -7  -5  -4    4.46    7.67
  -7  -5  -4    4.37    4.70
   7   5   4    5.60    4.54
   7   5   5    5.03    6.48
  -7  -5  -5   -1.30    7.52
  -7  -5  -5    2.95    4.82
  -7  -6   0    1.50    5.02
  -7  -6   0    2.85    7.81
   7   6   0    6.77    7.08
  -7  -6  -1    4.99    7.07
  -7  -6  -1   10.49    7.93
   7   6   1   -1.66    4.81
  -7  -6  -2    7.49    6.84
  -7  -6  -2   -0.35    5.62
   7   6   2    2.45    4.72
  -7  -6  -3   17.79    7.84
  -7  -6  -3   13.29    4.83
   7   6   3   15.21    6.58
  -7  -6  -4    4.23    7.67
  -7  -6  -4    0.01    6.71
   7   6   4    2.83    6.65
;
_shelx_hkl_checksum              18329
_shelx_res_file
;
TITL   LOESTER_1600KW
CELL  0.71073  5.41940  9.06190  9.46070 81.28500 82.77100 77.20800
ZERR 1  0.00080  0.00120  0.00130  0.01100  0.01100  0.01100
LATT 1
SFAC C H N O
UNIT 16 20 2 8
PLAN 30
FMAP 2
L.S. 9
BOND $H
CONF
ACTA
WGHT    0.065400
EXTI    0.054462
FVAR       1.47628
O1    4    0.446189   -0.061687    0.770315    11.00000    0.04365    0.06709 =
         0.06474   -0.01971   -0.02255    0.00525
O2    4    0.117621    0.131545    0.812762    11.00000    0.04376    0.05490 =
         0.03816   -0.01202   -0.01167   -0.00398
O3    4    0.409099    0.251239    0.543804    11.00000    0.05761    0.06696 =
         0.05424    0.00045   -0.01825   -0.03107
O4    4    0.151968    0.364343    0.372250    11.00000    0.04711    0.04655 =
         0.05405    0.00011   -0.01007   -0.01662
N1    3    0.015602   -0.107409    0.623164    11.00000    0.03352    0.04532 =
         0.03768   -0.00621   -0.00464   -0.00982
C1    1    0.121284    0.014619    0.608849    11.00000    0.02888    0.04391 =
         0.03638   -0.00923   -0.00284   -0.00668
C2    1    0.108607    0.120836    0.486174    11.00000    0.03045    0.04297 =
         0.03813   -0.00886   -0.00257   -0.00877
C3    1    0.253008    0.024236    0.738043    11.00000    0.03585    0.04539 =
         0.03983   -0.00659   -0.00590   -0.01106
C4    1    0.219426    0.149075    0.944061    11.00000    0.06026    0.05753 =
         0.03864   -0.01011   -0.01532   -0.01268
AFIX  23
H4B   2    0.387052    0.172806    0.921460    11.00000   -1.20000
H4A   2    0.233266    0.055245    1.010036    11.00000   -1.20000
AFIX   0
C5    1    0.041431    0.275583    1.010160    11.00000    0.08693    0.07066 =
         0.04696   -0.02199   -0.00731   -0.00804
AFIX 137
H5A   2   -0.126020    0.253739    1.026639    11.00000   -1.50000
H5B   2    0.037878    0.369129    0.946620    11.00000   -1.50000
H5C   2    0.097531    0.285546    1.099892    11.00000   -1.50000
AFIX   0
C6    1    0.242360    0.252021    0.470802    11.00000    0.03798    0.04876 =
         0.03731   -0.00776   -0.00179   -0.01346
C7    1    0.268926    0.498236    0.347976    11.00000    0.05753    0.04592 =
         0.05935   -0.00422   -0.00475   -0.01837
AFIX  23
H7A   2    0.311286    0.518547    0.438783    11.00000   -1.20000
H7B   2    0.148483    0.586521    0.309177    11.00000   -1.20000
AFIX   0
C8    1    0.503357    0.473796    0.246367    11.00000    0.06990    0.07129 =
         0.07106   -0.00237    0.00592   -0.02811
AFIX 137
H8A   2    0.463305    0.448194    0.158295    11.00000   -1.50000
H8B   2    0.628240    0.391992    0.288352    11.00000   -1.50000
H8C   2    0.569579    0.565454    0.226985    11.00000   -1.50000
AFIX   0
HKLF 4
REM    LOESTER_1600KW
REM R1 =  0.0492 for    1414 Fo > 4sig(Fo)  and  0.0837 for all    2408 data
REM    121 parameters refined using      0 restraints
END
WGHT      0.0651      0.0000
REM Highest difference peak  0.263,  deepest hole -0.210,  1-sigma level  0.056
Q1    1  -0.0407 -0.1649  0.7045  11.00000  0.05    0.26
Q2    1   0.2115  0.2062  0.7432  11.00000  0.05    0.21
Q3    1   0.3043  0.2716  0.6356  11.00000  0.05    0.20
Q4    1   0.3110  0.3022  0.3624  11.00000  0.05    0.20
Q5    1   0.1240  0.0791  0.5472  11.00000  0.05    0.20
Q6    1   0.1561  0.1863  0.4972  11.00000  0.05    0.20
Q7    1   0.3442  0.1802  0.6263  11.00000  0.05    0.19
Q8    1  -0.1048 -0.2325  0.7253  11.00000  0.05    0.19
Q9    1   0.1995  0.3282  0.2793  11.00000  0.05    0.18
Q10   1   0.4659  0.3009  0.4621  11.00000  0.05    0.16
Q11   1   0.4213  0.4446  0.3288  11.00000  0.05    0.16
Q12   1   0.3182  0.5461  0.2582  11.00000  0.05    0.16
Q13   1   0.0647  0.0420  0.8855  11.00000  0.05    0.16
Q14   1   0.3183  0.2260  0.3103  11.00000  0.05    0.15
Q15   1  -0.0251  0.1541  1.2027  11.00000  0.05    0.15
Q16   1   0.4904  0.6441  0.1547  11.00000  0.05    0.14
Q17   1   0.0468  0.1421  0.5147  11.00000  0.05    0.14
Q18   1   0.1156  0.0339  0.6717  11.00000  0.05    0.13
Q19   1   0.3309  0.2110  0.8612  11.00000  0.05    0.13
Q20   1   0.3193  0.3764  1.0586  11.00000  0.05    0.13
Q21   1   0.5717  0.7044  0.2816  11.00000  0.05    0.13
Q22   1   0.5418  0.5429  0.1484  11.00000  0.05    0.13
Q23   1   0.6731  0.6155  0.2619  11.00000  0.05    0.13
Q24   1   0.3552 -0.0938  0.8823  11.00000  0.05    0.13
Q25   1   0.5797  0.6177  0.3339  11.00000  0.05    0.13
Q26   1   0.2929  0.4224  0.5674  11.00000  0.05    0.13
Q27   1   0.4967  0.0405  0.6801  11.00000  0.05    0.12
Q28   1   0.3718  0.1822  0.3789  11.00000  0.05    0.12
Q29   1   0.1723  0.0597  0.9853  11.00000  0.05    0.11
Q30   1   0.2203  0.4234  0.3190  11.00000  0.05    0.11
;
_shelx_res_checksum              6920
_shelxl_version_number           2014/6
loop_
_space_group_symop_operation_xyz
'x, y, z'
'-x, -y, -z'
loop_
_atom_site_type_symbol
_atom_site_label
_atom_site_fract_x
_atom_site_fract_y
_atom_site_fract_z
_atom_site_U_iso_or_equiv
_atom_site_adp_type
_atom_site_calc_flag
_atom_site_occupancy
O O1 0.4462(2) -0.06169(15) 0.77032(15) 0.0584(4) Uani d 1
O O2 0.1176(2) 0.13155(13) 0.81276(11) 0.0453(3) Uani d 1
O O3 0.4091(2) 0.25124(15) 0.54380(14) 0.0565(4) Uani d 1
O O4 0.1520(2) 0.36434(13) 0.37225(13) 0.0484(3) Uani d 1
N N1 0.0156(2) -0.10741(14) 0.62316(14) 0.0384(3) Uani d 1
C C1 0.1213(3) 0.01462(17) 0.60885(16) 0.0361(3) Uani d 1
C C2 0.1086(3) 0.12084(17) 0.48617(16) 0.0367(3) Uani d 1
C C3 0.2530(3) 0.02424(17) 0.73804(17) 0.0396(4) Uani d 1
C C4 0.2194(4) 0.1491(2) 0.94406(18) 0.0507(4) Uani d 1
H H4B 0.3871 0.1728 0.9215 0.061 Uiso calc 1
H H4A 0.2333 0.0552 1.0100 0.061 Uiso calc 1
C C5 0.0414(5) 0.2756(2) 1.0102(2) 0.0679(6) Uani d 1
H H5A -0.1260 0.2537 1.0266 0.102 Uiso calc 1
H H5B 0.0379 0.3691 0.9466 0.102 Uiso calc 1
H H5C 0.0975 0.2855 1.0999 0.102 Uiso calc 1
C C6 0.2424(3) 0.25202(18) 0.47080(17) 0.0406(4) Uani d 1
C C7 0.2689(4) 0.4982(2) 0.3480(2) 0.0534(4) Uani d 1
H H7A 0.3113 0.5185 0.4388 0.064 Uiso calc 1
H H7B 0.1485 0.5865 0.3092 0.064 Uiso calc 1
C C8 0.5034(4) 0.4738(3) 0.2464(2) 0.0704(6) Uani d 1
H H8A 0.4633 0.4482 0.1583 0.106 Uiso calc 1
H H8B 0.6282 0.3920 0.2884 0.106 Uiso calc 1
H H8C 0.5696 0.5655 0.2270 0.106 Uiso calc 1
loop_
_atom_site_aniso_label
_atom_site_aniso_U_11
_atom_site_aniso_U_22
_atom_site_aniso_U_33
_atom_site_aniso_U_12
_atom_site_aniso_U_13
_atom_site_aniso_U_23
O1 0.0437(7) 0.0671(8) 0.0647(8) 0.0053(6) -0.0225(6) -0.0197(6)
O2 0.0438(6) 0.0549(6) 0.0382(6) -0.0040(5) -0.0117(5) -0.0120(5)
O3 0.0576(7) 0.0670(8) 0.0542(8) -0.0311(6) -0.0183(6) 0.0004(6)
O4 0.0471(6) 0.0465(6) 0.0540(7) -0.0166(5) -0.0101(5) 0.0001(5)
N1 0.0335(6) 0.0453(7) 0.0377(7) -0.0098(6) -0.0046(5) -0.0062(5)
C1 0.0289(7) 0.0439(8) 0.0364(8) -0.0067(6) -0.0028(6) -0.0092(6)
C2 0.0304(7) 0.0430(8) 0.0381(8) -0.0088(6) -0.0026(6) -0.0089(6)
C3 0.0359(8) 0.0454(8) 0.0398(8) -0.0111(7) -0.0059(6) -0.0066(7)
C4 0.0603(11) 0.0575(10) 0.0386(9) -0.0127(9) -0.0153(8) -0.0101(7)
C5 0.0869(15) 0.0707(12) 0.0470(11) -0.0080(11) -0.0073(10) -0.0220(9)
C6 0.0380(8) 0.0488(9) 0.0373(8) -0.0135(7) -0.0018(6) -0.0078(7)
C7 0.0575(11) 0.0459(9) 0.0594(11) -0.0184(8) -0.0047(8) -0.0042(8)
C8 0.0699(13) 0.0713(13) 0.0711(14) -0.0281(11) 0.0059(11) -0.0024(11)
loop_
_atom_type_symbol
_atom_type_description
_atom_type_scat_dispersion_real
_atom_type_scat_dispersion_imag
_atom_type_scat_source
C C 0.0033 0.0016 'International Tables Vol C Tables 4.2.6.8 and 6.1.1.4'
H H 0.0000 0.0000 'International Tables Vol C Tables 4.2.6.8 and 6.1.1.4'
N N 0.0061 0.0033 'International Tables Vol C Tables 4.2.6.8 and 6.1.1.4'
O O 0.0106 0.0060 'International Tables Vol C Tables 4.2.6.8 and 6.1.1.4'
loop_
_geom_angle_atom_site_label_1
_geom_angle_atom_site_label_2
_geom_angle_atom_site_label_3
_geom_angle_site_symmetry_1
_geom_angle_site_symmetry_3
_geom_angle
C3 O2 C4 . . 116.24(12)
C6 O4 C7 . . 117.08(13)
C1 N1 C2 . 2_556 116.40(13)
N1 C1 C2 . . 122.26(13)
N1 C1 C3 . . 113.45(13)
C2 C1 C3 . . 124.29(13)
N1 C2 C1 2_556 . 121.33(13)
N1 C2 C6 2_556 . 118.01(14)
C1 C2 C6 . . 120.63(13)
O1 C3 O2 . . 125.92(15)
O1 C3 C1 . . 123.30(14)
O2 C3 C1 . . 110.63(12)
O2 C4 C5 . . 107.54(15)
O2 C4 H4B . . 110.2
C5 C4 H4B . . 110.2
O2 C4 H4A . . 110.2
C5 C4 H4A . . 110.2
H4B C4 H4A . . 108.5
C4 C5 H5A . . 109.5
C4 C5 H5B . . 109.5
H5A C5 H5B . . 109.5
C4 C5 H5C . . 109.5
H5A C5 H5C . . 109.5
H5B C5 H5C . . 109.5
O3 C6 O4 . . 125.77(15)
O3 C6 C2 . . 121.82(15)
O4 C6 C2 . . 112.39(13)
O4 C7 C8 . . 111.08(15)
O4 C7 H7A . . 109.4
C8 C7 H7A . . 109.4
O4 C7 H7B . . 109.4
C8 C7 H7B . . 109.4
H7A C7 H7B . . 108.0
C7 C8 H8A . . 109.5
C7 C8 H8B . . 109.5
H8A C8 H8B . . 109.5
C7 C8 H8C . . 109.5
H8A C8 H8C . . 109.5
H8B C8 H8C . . 109.5
loop_
_geom_bond_atom_site_label_1
_geom_bond_atom_site_label_2
_geom_bond_site_symmetry_2
_geom_bond_distance
O1 C3 . 1.2012(18)
O2 C3 . 1.3212(19)
O2 C4 . 1.4642(18)
O3 C6 . 1.2026(19)
O4 C6 . 1.324(2)
O4 C7 . 1.465(2)
N1 C1 . 1.3359(19)
N1 C2 2_556 1.3370(19)
C1 C2 . 1.389(2)
C1 C3 . 1.513(2)
C2 N1 2_556 1.3370(19)
C2 C6 . 1.504(2)
C4 C5 . 1.487(3)
C4 H4B . 0.9700
C4 H4A . 0.9700
C5 H5A . 0.9600
C5 H5B . 0.9600
C5 H5C . 0.9600
C7 C8 . 1.490(3)
C7 H7A . 0.9700
C7 H7B . 0.9700
C8 H8A . 0.9600
C8 H8B . 0.9600
C8 H8C . 0.9600
loop_
_geom_torsion_atom_site_label_1
_geom_torsion_atom_site_label_2
_geom_torsion_atom_site_label_3
_geom_torsion_atom_site_label_4
_geom_torsion_site_symmetry_1
_geom_torsion_site_symmetry_4
_geom_torsion
C2 N1 C1 C2 2_556 . -1.3(2)
C2 N1 C1 C3 2_556 . 178.62(12)
N1 C1 C2 N1 . 2_556 1.4(2)
C3 C1 C2 N1 . 2_556 -178.55(13)
N1 C1 C2 C6 . . -176.59(14)
C3 C1 C2 C6 . . 3.5(2)
C4 O2 C3 O1 . . 2.1(2)
C4 O2 C3 C1 . . 177.82(13)
N1 C1 C3 O1 . . 69.8(2)
C2 C1 C3 O1 . . -110.23(19)
N1 C1 C3 O2 . . -105.99(15)
C2 C1 C3 O2 . . 73.95(18)
C3 O2 C4 C5 . . 179.40(16)
C7 O4 C6 O3 . . 1.3(2)
C7 O4 C6 C2 . . -179.88(13)
N1 C2 C6 O3 2_556 . -160.17(15)
C1 C2 C6 O3 . . 17.9(2)
N1 C2 C6 O4 2_556 . 21.0(2)
C1 C2 C6 O4 . . -160.99(14)
C6 O4 C7 C8 . . 84.0(2)
