#------------------------------------------------------------------------------
#$Date: 2016-03-04 11:53:49 +0200 (Fri, 04 Mar 2016) $
#$Revision: 177428 $
#$URL: svn://www.crystallography.net/cod/cif/1/54/23/1542332.cif $
#------------------------------------------------------------------------------
#
# This file is available in the Crystallography Open Database (COD),
# http://www.crystallography.net/
#
# All data on this site have been placed in the public domain by the
# contributors.
#
data_1542332
loop_
_publ_author_name
'Bigler, Raphael'
'Mezzetti, Antonio'
_publ_section_title
;
 Highly Enantioselective Transfer Hydrogenation of Polar Double Bonds by
 Macrocyclic Iron(II)/(NH)2P2Catalysts
;
_journal_issue                   2
_journal_name_full               'Organic Process Research &amp; Development'
_journal_page_first              253
_journal_paper_doi               10.1021/acs.oprd.5b00391
_journal_volume                  20
_journal_year                    2016
_chemical_absolute_configuration syn
_chemical_formula_moiety         'C16 H17 O4 P'
_chemical_formula_sum            'C16 H17 O4 P'
_chemical_formula_weight         304.26
_space_group_crystal_system      monoclinic
_space_group_IT_number           4
_space_group_name_Hall           'P 2yb'
_space_group_name_H-M_alt        'P 1 21 1'
_symmetry_space_group_name_Hall  'P 2yb'
_symmetry_space_group_name_H-M   'P 1 21 1'
_atom_sites_solution_hydrogens   geom
_audit_creation_date             2015-10-21
_audit_creation_method
;
Olex2 1.2
(compiled 2015.09.30 svn.r3233 for OlexSys, GUI svn.r5103)
;
_cell_angle_alpha                90
_cell_angle_beta                 105.314(6)
_cell_angle_gamma                90
_cell_formula_units_Z            2
_cell_length_a                   8.4621(4)
_cell_length_b                   10.2910(6)
_cell_length_c                   8.8558(6)
_cell_measurement_reflns_used    2649
_cell_measurement_temperature    100(2)
_cell_measurement_theta_max      31.6560
_cell_measurement_theta_min      3.1950
_cell_volume                     743.81(8)
_computing_cell_refinement       'Bruker SAINT'
_computing_data_collection       'Bruker APEX2'
_computing_data_reduction        'Bruker SAINT'
_computing_molecular_graphics    'Olex2 (Dolomanov et al., 2009)'
_computing_publication_material  'Olex2 (Dolomanov et al., 2009)'
_computing_structure_refinement  'XL (Sheldrick, 2008)'
_computing_structure_solution    'XS (Sheldrick, 2008)'
_diffrn_ambient_temperature      100(2)
_diffrn_detector                 'Bruker Photon 100 area detector'
_diffrn_detector_area_resol_mean 10.24
_diffrn_detector_type            'CMOS area detector'
_diffrn_measured_fraction_theta_full 0.999
_diffrn_measured_fraction_theta_max 0.999
_diffrn_measurement_device       'kappa-stage diffractometer'
_diffrn_measurement_device_type  'Bruker D8 Venture'
_diffrn_measurement_method       '\w and \f scans'
_diffrn_radiation_monochromator  'focusing graphite'
_diffrn_radiation_probe          x-ray
_diffrn_radiation_type           MoK\a
_diffrn_radiation_wavelength     0.71073
_diffrn_reflns_av_R_equivalents  0.0347
_diffrn_reflns_av_unetI/netI     0.0611
_diffrn_reflns_laue_measured_fraction_full 0.999
_diffrn_reflns_laue_measured_fraction_max 0.999
_diffrn_reflns_limit_h_max       11
_diffrn_reflns_limit_h_min       -11
_diffrn_reflns_limit_k_max       13
_diffrn_reflns_limit_k_min       -14
_diffrn_reflns_limit_l_max       12
_diffrn_reflns_limit_l_min       -12
_diffrn_reflns_number            6869
_diffrn_reflns_point_group_measured_fraction_full 0.957
_diffrn_reflns_point_group_measured_fraction_max 0.927
_diffrn_reflns_theta_full        26.000
_diffrn_reflns_theta_max         29.564
_diffrn_reflns_theta_min         2.962
_diffrn_source                   'sealed tube'
_diffrn_standards_number         0
_exptl_absorpt_coefficient_mu    0.198
_exptl_absorpt_correction_type   none
_exptl_crystal_density_diffrn    1.359
_exptl_crystal_description       block
_exptl_crystal_F_000             320
_exptl_crystal_size_max          0.444
_exptl_crystal_size_mid          0.366
_exptl_crystal_size_min          0.29
_refine_diff_density_max         0.289
_refine_diff_density_min         -0.257
_refine_diff_density_rms         0.054
_refine_ls_abs_structure_details
;
 Flack x determined using 1338 quotients [(I+)-(I-)]/[(I+)+(I-)]
 (Parsons, Flack and Wagner, Acta Cryst. B69 (2013) 249-259).
;
_refine_ls_abs_structure_Flack   0.05(7)
_refine_ls_extinction_method     none
_refine_ls_goodness_of_fit_ref   1.030
_refine_ls_hydrogen_treatment    constr
_refine_ls_matrix_type           full
_refine_ls_number_parameters     191
_refine_ls_number_reflns         3877
_refine_ls_number_restraints     1
_refine_ls_restrained_S_all      1.030
_refine_ls_R_factor_all          0.0477
_refine_ls_R_factor_gt           0.0413
_refine_ls_shift/su_max          0.000
_refine_ls_shift/su_mean         0.000
_refine_ls_structure_factor_coef Fsqd
_refine_ls_weighting_details
'w=1/[\s^2^(Fo^2^)+(0.0379P)^2^+0.0190P] where P=(Fo^2^+2Fc^2^)/3'
_refine_ls_weighting_scheme      calc
_refine_ls_wR_factor_gt          0.0878
_refine_ls_wR_factor_ref         0.0927
_reflns_Friedel_coverage         0.763
_reflns_friedel_fraction_full    0.910
_reflns_friedel_fraction_max     0.847
_reflns_number_gt                3517
_reflns_number_total             3877
_reflns_threshold_expression     'I > 2\s(I)'
_cod_data_source_file            op5b00391_si_002.cif
_cod_data_source_block           Compound2
_cod_depositor_comments
'Adding full bibliography for 1542332--1542333.cif.'
_cod_database_code               1542332
_shelx_space_group_comment
;
The symmetry employed for this shelxl refinement is uniquely defined
by the following loop, which should always be used as a source of
symmetry information in preference to the above space-group names.
They are only intended as comments.
;
_olex2_refinement_description
;
1. Fixed Uiso
 At 1.2 times of:
  All C(H) groups, All C(H,H) groups
 At 1.5 times of:
  All O(H) groups
2.a Ternary CH refined with riding coordinates:
 C14(H14)
2.b Secondary CH2 refined with riding coordinates:
 C1(H1A,H1B), C15(H15A,H15B), C16(H16A,H16B)
2.c Aromatic/amide H refined with riding coordinates:
 C5(H5), C6(H6), C7(H7), C12(H12), C4(H4), C11(H11), C9(H9), C3(H3), C10(H10)
2.d Idealised tetrahedral OH refined as rotating group:
 O2(H2)
;
_shelx_res_file
;
    a.res created by SHELXL-2014/7

TITL a in P2(1)
CELL 0.71073 8.46209 10.29099 8.85576 90 105.3142 90
ZERR 2 0.00042 0.00064 0.0006 0 0.006 0
LATT -1
SYMM -X,0.5+Y,-Z
SFAC C H O P
UNIT 32 34 8 2

L.S. 20
PLAN  20
BOND
MORE -1
BOND $H
CONF
fmap 2
acta 52
REM <olex2.extras>
REM <HklSrc "%.\\a.hkl">
REM </olex2.extras>

WGHT    0.037900    0.019000
FVAR       0.31943
P1    4    0.826548    0.655604    0.033710    11.00000    0.01180    0.01294 =
         0.01890   -0.00037    0.00483   -0.00045
O2    3    0.863735    0.452524   -0.141256    11.00000    0.01919    0.01982 =
         0.02857   -0.00464    0.00393    0.00720
AFIX 147
H2    2    0.933582    0.396159   -0.111803    11.00000   -1.50000
AFIX   0
O1    3    0.881377    0.793979    0.063855    11.00000    0.01799    0.01483 =
         0.03065   -0.00137    0.00620   -0.00331
C2    1    0.613793    0.645882   -0.070923    11.00000    0.01435    0.01455 =
         0.01607    0.00042    0.00585    0.00249
O3    3    0.637360    0.758770    0.421204    11.00000    0.02191    0.02802 =
         0.02347   -0.01143    0.00468   -0.00027
C8    1    0.861587    0.562450    0.213024    11.00000    0.01391    0.01458 =
         0.01793   -0.00215    0.00099   -0.00351
C14   1    0.627950    0.672412    0.296591    11.00000    0.01713    0.02005 =
         0.01701   -0.00297    0.00431   -0.00366
AFIX  13
H14   2    0.615554    0.720790    0.198831    11.00000   -1.20000
AFIX   0
O4    3    0.486533    0.595627    0.288047    11.00000    0.01690    0.02845 =
         0.03850   -0.00748    0.00634   -0.00749
C1    1    0.932489    0.575079   -0.094176    11.00000    0.01619    0.01982 =
         0.02314    0.00390    0.00729    0.00307
AFIX  23
H1A   2    0.925644    0.628566   -0.185872    11.00000   -1.20000
H1B   2    1.047317    0.564866   -0.039559    11.00000   -1.20000
AFIX   0
C5    1    0.286933    0.639917   -0.237464    11.00000    0.01361    0.02585 =
         0.01840   -0.00104    0.00355   -0.00112
AFIX  43
H5    2    0.177510    0.637733   -0.294269    11.00000   -1.20000
AFIX   0
C6    1    0.375444    0.753219   -0.229703    11.00000    0.01871    0.01584 =
         0.01860    0.00389    0.00551    0.00534
AFIX  43
H6    2    0.324860    0.827514   -0.279901    11.00000   -1.20000
AFIX   0
C13   1    0.776409    0.586170    0.326250    11.00000    0.01667    0.01425 =
         0.01876   -0.00450    0.00224   -0.00463
C7    1    0.540314    0.757299   -0.147129    11.00000    0.01912    0.01358 =
         0.01794    0.00243    0.00783    0.00002
AFIX  43
H7    2    0.600369    0.833505   -0.143053    11.00000   -1.20000
AFIX   0
C12   1    0.824467    0.522651    0.470676    11.00000    0.02457    0.02141 =
         0.01703   -0.00358    0.00311   -0.00816
AFIX  43
H12   2    0.768398    0.538725    0.546021    11.00000   -1.20000
AFIX   0
C4    1    0.359760    0.529976   -0.161517    11.00000    0.01768    0.01801 =
         0.02816   -0.00088    0.00793   -0.00344
AFIX  43
H4    2    0.299125    0.454018   -0.166128    11.00000   -1.20000
AFIX   0
C11   1    0.954198    0.436260    0.503077    11.00000    0.02851    0.02262 =
         0.01753    0.00218   -0.00517   -0.00555
AFIX  43
H11   2    0.985954    0.395427    0.600088    11.00000   -1.20000
AFIX   0
C9    1    0.991370    0.472696    0.246853    11.00000    0.01577    0.01808 =
         0.02447   -0.00114    0.00235    0.00089
AFIX  43
H9    2    1.047423    0.454697    0.171993    11.00000   -1.20000
AFIX   0
C15   1    0.470950    0.798142    0.403350    11.00000    0.02432    0.03577 =
         0.02682   -0.00301    0.01212    0.00437
AFIX  23
H15A  2    0.442254    0.870919    0.331721    11.00000   -1.20000
H15B  2    0.452829    0.822324    0.503319    11.00000   -1.20000
AFIX   0
C3    1    0.523859    0.532211   -0.077872    11.00000    0.01626    0.01421 =
         0.02363    0.00116    0.00661    0.00155
AFIX  43
H3    2    0.573148    0.457828   -0.026789    11.00000   -1.20000
AFIX   0
C10   1    1.036461    0.410850    0.390720    11.00000    0.01964    0.02233 =
         0.02747    0.00212   -0.00338    0.00162
AFIX  43
H10   2    1.122714    0.351798    0.411867    11.00000   -1.20000
AFIX   0
C16   1    0.372992    0.678164    0.337231    11.00000    0.02578    0.04747 =
         0.07783   -0.01537    0.02439   -0.00449
AFIX  23
H16A  2    0.331208    0.635648    0.416539    11.00000   -1.20000
H16B  2    0.281520    0.700693    0.249297    11.00000   -1.20000
AFIX   0
HKLF 4

REM  a in P2(1)
REM R1 =  0.0413 for    3517 Fo > 4sig(Fo)  and  0.0477 for all    3877 data
REM    191 parameters refined using      1 restraints

END

WGHT      0.0378      0.0192

REM Highest difference peak  0.289,  deepest hole -0.257,  1-sigma level  0.054
Q1    1   0.9212  0.5225  0.2408  11.00000  0.05    0.29
Q2    1   0.8737  0.5926  0.1244  11.00000  0.05    0.27
Q3    1   0.7116  0.6544 -0.0058  11.00000  0.05    0.25
Q4    1   0.8803  0.7210  0.1026  11.00000  0.05    0.25
Q5    1   0.8129  0.5850  0.1246  11.00000  0.05    0.24
Q6    1   0.4499  0.5390 -0.1442  11.00000  0.05    0.23
Q7    1   0.8945  0.6091 -0.0140  11.00000  0.05    0.22
Q8    1   0.5394  0.5954 -0.0905  11.00000  0.05    0.22
Q9    1   0.4292  0.5662 -0.1013  11.00000  0.05    0.22
Q10   1   0.8460  0.7169  0.2854  11.00000  0.05    0.20
Q11   1   0.4556  0.7558 -0.1532  11.00000  0.05    0.20
Q12   1   0.8231  0.7367  0.0817  11.00000  0.05    0.20
Q13   1   0.3512  0.6728 -0.2624  11.00000  0.05    0.20
Q14   1   0.8286  0.5892  0.2677  11.00000  0.05    0.19
Q15   1   0.5440  0.8806  0.6147  11.00000  0.05    0.19
Q16   1   0.5407  0.7200  0.1947  11.00000  0.05    0.19
Q17   1   0.3333  0.5984 -0.1785  11.00000  0.05    0.19
Q18   1   0.7132  0.8043  0.1650  11.00000  0.05    0.18
Q19   1   0.5511  0.4380  0.0981  11.00000  0.05    0.18
Q20   1   1.0203  0.4481  0.4625  11.00000  0.05    0.18
;
_shelx_res_checksum              95478
_shelx_hkl_file
;
   0 -14   0   16.51    1.85
   0 -14  -1    8.89    1.38
   0 -14   1    8.86    1.35
   0 -14  -2   12.22    1.65
   0 -13   0   -0.03    0.28
   0 -13  -1    3.99    0.93
   0 -13   1    5.41    1.01
   0 -13   2   11.03    1.38
   0 -13  -2    9.04    1.36
   0 -13  -3    3.60    0.92
   0 -13  -4    3.37    0.91
   0 -12   0    9.64    1.29
   0 -12   1   10.33    1.29
   0 -12  -1   11.80    1.44
   0 -12  -2    1.83    0.59
   0 -12   2    0.97    0.43
   0 -12   3   14.23    1.46
   0 -12  -3   12.71    1.57
   0 -12  -4    4.17    0.92
   0 -12  -5    7.54    1.29
   0 -12  -6    4.96    1.08
   0 -11   0   -0.31    0.33
   0 -11  -1   12.40    1.42
   0 -11   1   12.07    1.33
   0 -11  -2    2.78    0.70
   0 -11   2    1.65    0.53
   0 -11   3    0.28    0.31
   0 -11  -3    0.45    0.34
   0 -11  -4    3.39    0.81
   0 -11  -5    1.61    0.59
   0 -11  -6    6.47    1.18
   0 -11  -7    5.70    1.13
   0 -10   0   47.95    2.61
   0 -10   1   23.91    1.78
   0 -10  -1   30.56    2.08
   0 -10   2    8.89    1.05
   0 -10  -2   10.75    1.25
   0 -10   3   14.51    1.31
   0 -10  -3   16.02    1.57
   0 -10   4    6.14    0.83
   0 -10  -4    5.72    0.99
   0 -10  -5    3.78    0.82
   0 -10  -6    1.03    0.57
   0 -10  -7    0.86    0.46
   0 -10  -8    0.59    0.45
   0  -9   0   -0.06    0.19
   0  -9  -1   28.98    1.93
   0  -9   1   36.43    2.05
   0  -9  -2    3.77    0.72
   0  -9   2    4.91    0.73
   0  -9   3   18.55    1.39
   0  -9  -3   15.04    1.45
   0  -9   4    5.75    0.77
   0  -9  -4    6.05    0.96
   0  -9  -5    8.60    1.17
   0  -9  -6   15.09    1.61
   0  -9  -7    6.75    1.13
   0  -9  -8    4.63    0.99
   0  -9  -9    1.95    0.68
   0  -8   0   76.83    3.06
   0  -8   1   16.83    1.30
   0  -8  -1   18.58    1.42
   0  -8   2   68.66    2.70
   0  -8  -2   59.56    2.79
   0  -8  -3    6.53    0.89
   0  -8   3    7.57    0.81
   0  -8  -3    6.64    0.71
   0  -8  -4    1.76    0.38
   0  -8   4    1.67    0.40
   0  -8  -4    2.26    0.56
   0  -7   0    0.02    0.15
   0  -7  -1    4.19    0.34
   0  -7   1    5.23    0.66
   0  -7  -1    5.59    0.73
   0  -7   2   12.02    0.97
   0  -7  -2   10.83    0.87
   0  -7  -2   11.37    1.06
   0  -7   3   54.73    2.16
   0  -7  -3   45.25    1.87
   0  -7  -4    6.49    0.64
   0  -7  -5   10.51    0.82
   0  -6   0   72.56    1.60
   0  -6   0   80.69    2.69
   0  -6  -1   52.29    1.48
   0  -6  -1   51.56    2.17
   0  -6   1   52.46    2.06
   0  -6  -2   25.85    1.25
   0  -6   2   24.58    1.31
   0  -6  -3   27.58    1.29
   0  -6   3   28.55    1.41
   0  -6  -4   22.40    1.15
   0  -6  -5    0.50    0.20
   0  -6  -6    3.98    0.49
   0  -5   0    0.13    0.16
   0  -5  -1    9.63    0.79
   0  -5   1   10.11    0.76
   0  -5  -1    8.98    0.69
   0  -5   1    9.70    0.35
   0  -5   2   15.53    0.65
   0  -5   2   17.49    0.98
   0  -5  -2   15.58    0.88
   0  -5  -3   12.06    0.76
   0  -5   3   12.80    0.85
   0  -5  -4   35.24    1.40
   0  -5  -5    2.62    0.38
   0  -5  -6   11.87    0.84
   0  -4   0    0.28    0.14
   0  -4   1    6.99    0.31
   0  -4   1    7.62    0.59
   0  -4  -1    7.90    0.55
   0  -4   2    1.24    0.19
   0  -4   2    1.19    0.24
   0  -4  -2    0.98    0.21
   0  -4  -3  151.77    3.54
   0  -4   3  149.61    3.62
   0  -4  -4   24.66    1.08
   0  -4  -5    3.85    0.44
   0  -4  -6   14.09    0.93
   0  -4  -7    4.45    0.55
   0  -3   0    0.05    0.09
   0  -3   0    0.58    0.18
   0  -3   1   26.00    0.99
   0  -3   1   24.14    0.68
   0  -3  -1   22.21    0.88
   0  -3  -2   18.95    0.77
   0  -3   2   17.34    0.74
   0  -3   2   16.67    0.79
   0  -3  -3  134.42    3.14
   0  -3   3  138.44    3.38
   0  -3  -4   27.93    1.13
   0  -3  -5   27.90    1.25
   0  -3  -6    6.95    0.65
   0  -3  -7   45.47    1.93
   0  -3  -8   26.21    1.52
   0  -2   0  373.18    7.01
   0  -2   0  369.57    6.83
   0  -2   1  138.81    2.98
   0  -2   1  140.01    2.94
   0  -2  -1  137.78    2.96
   0  -2   1  138.76    2.77
   0  -2  -1  132.28    2.86
   0  -2   2   37.74    1.21
   0  -2  -2   38.68    1.11
   0  -2   3  181.80    4.26
   0  -2  -3  183.76    3.98
   0  -2  -4   57.73    2.15
   0  -2  -4   61.65    1.86
   0  -2  -5   37.04    1.50
   0  -2  -5   36.49    1.75
   0  -2  -6   12.58    1.06
   0  -2  -6   11.87    0.87
   0  -2  -7    2.92    0.49
   0  -2  -7    3.24    0.60
   0  -2  -8   17.30    1.47
   0  -2  -8   18.65    1.30
   0  -2  -9    1.43    0.40
   0  -1   1   60.26    1.42
   0  -1  -1   63.43    1.36
   0  -1  -2  450.81    8.91
   0  -1   2  463.98    8.90
   0  -1  -3  178.49    4.16
   0  -1  -4   43.87    1.72
   0  -1  -5   31.63    1.56
   0  -1  -6    4.79    0.64
   0  -1  -7   42.02    2.14
   0  -1  -8   20.86    1.59
   0  -1  -9    5.62    0.89
   0  -1 -10   10.65    1.28
   0   0   2    0.03    0.09
   0   0  -2    0.19    0.11
   0   0  -3    0.24    0.13
   0   0  -4    4.36    0.49
   0   0  -5    2.15    0.40
   0   0  -6    8.43    0.83
   0   0  -7    0.45    0.25
   0   0  -8    0.88    0.35
   0   0  -9    6.61    0.94
   0   0 -10    1.25    0.47
   0   0 -11   16.73    1.68
   0   1  -1   60.30    1.34
   0   1  -1   60.76    1.40
   0   1   1   63.22    1.35
   0   1   1   59.84    1.46
   0   1  -3  184.67    4.26
   0   1  -4   41.53    1.64
   0   1  -5   32.61    1.57
   0   1  -6    5.10    0.65
   0   1   6    4.22    0.33
   0   1  -7   40.62    2.08
   0   1  -8   26.99    1.79
   0   1  -9    3.68    0.71
   0   1 -10    8.58    1.12
   0   1  11   13.69    1.74
   0   2   0  355.80    6.94
   0   2   0  364.36    6.84
   0   2  -1  137.16    2.95
   0   2  -1  137.56    2.78
   0   2   1  138.76    2.98
   0   2   1  141.53    2.91
   0   2   2   40.25    1.15
   0   2  -2   39.53    1.14
   0   2   2   39.07    1.33
   0   2   3  190.40    4.50
   0   2  -4   60.16    2.12
   0   2  -5   38.59    1.77
   0   2  -6   12.39    1.03
   0   2  -7    4.18    0.66
   0   2  -8   15.84    1.37
   0   2   9    1.54    0.54
   0   2  -9    1.41    0.45
   0   2 -10    1.58    0.52
   0   2  10    0.39    0.41
   0   2  11    1.44    0.71
   0   3   0    0.12    0.09
   0   3  -1   24.22    0.91
   0   3   1   22.64    0.88
   0   3   2   18.36    0.88
   0   3   3  140.62    3.63
   0   3   4   27.00    1.41
   0   3  -5   28.91    1.55
   0   3   5   29.24    1.63
   0   3   6    7.73    0.90
   0   3  -6    7.12    0.82
   0   3   7   40.93    2.33
   0   3  -7   43.55    2.23
   0   3   8   27.43    2.03
   0   3  -8   28.86    1.90
   0   3   9   14.13    1.55
   0   3  -9   15.36    1.46
   0   3  10    8.96    1.31
   0   3 -10    7.77    1.09
   0   3  11    6.43    1.24
   0   4   0    0.59    0.16
   0   4  -1    7.83    0.55
   0   4   1    7.97    0.54
   0   4  -2    1.04    0.17
   0   4   2    1.19    0.26
   0   4   3  149.53    3.86
   0   4   4   21.75    1.27
   0   4   5    4.15    0.61
   0   4  -6   15.07    1.23
   0   4   6   16.28    1.32
   0   4   7    4.05    0.72
   0   4  -7    3.03    0.59
   0   4  -8    8.26    1.03
   0   4   8    9.36    1.18
   0   4   9    3.17    0.77
   0   4  -9    2.77    0.65
   0   4  10    2.89    0.80
   0   4 -10    2.80    0.68
   0   4  11    1.65    0.67
   0   5   0   -0.01    0.11
   0   5  -1    9.10    0.64
   0   5   1    9.96    0.66
   0   5   2   15.20    0.90
   0   5   3   12.18    0.88
   0   5   4   34.86    1.69
   0   5   5    2.96    0.52
   0   5   6   11.82    1.14
   0   5   7    5.73    0.85
   0   5  -7    5.40    0.83
   0   5  -8   14.84    1.42
   0   5   8   15.48    1.52
   0   5  -9   12.03    1.34
   0   5   9   14.20    1.57
   0   5 -10    0.28    0.36
   0   5  10    0.63    0.44
   0   5  11    1.79    0.67
   0   6   0   75.37    2.32
   0   6   1   53.52    1.87
   0   6  -1   52.72    1.87
   0   6   2   25.61    1.26
   0   6   3   30.17    1.50
   0   6   4   25.06    1.47
   0   6   5    0.23    0.24
   0   6   6    3.88    0.68
   0   6   7    0.64    0.33
   0   6   8    2.10    0.62
   0   6  -8    1.62    0.52
   0   6   9    4.40    0.89
   0   6  -9    7.33    1.07
   0   6  10    6.63    1.19
   0   7   0    0.18    0.16
   0   7   1    5.34    0.57
   0   7  -1    4.19    0.51
   0   7   2   10.49    0.83
   0   7   3   52.18    2.13
   0   7   4    6.37    0.74
   0   7   5   10.93    1.06
   0   7   6    6.02    0.86
   0   7   7    7.02    0.99
   0   7  -8   10.08    1.26
   0   7   8   12.43    1.39
   0   7  -9   10.44    1.35
   0   7   9   13.49    1.54
   0   7  10    2.05    0.64
   0   8   0   77.27    2.61
   0   8  -1   17.43    1.13
   0   8   1   18.15    1.12
   0   8   2   65.17    2.42
   0   8   3    6.40    0.72
   0   8   4    1.80    0.41
   0   8   5   12.57    1.17
   0   8   6    3.60    0.67
   0   8   7    3.30    0.70
   0   8   8    1.53    0.54
   0   8  -9    5.84    1.07
   0   8   9    9.38    1.30
   0   9   0    0.23    0.18
   0   9  -1   31.63    1.64
   0   9   1   33.30    1.65
   0   9   2    4.91    0.63
   0   9   3   16.19    1.22
   0   9   4    8.45    0.92
   0   9   5   10.15    1.08
   0   9   6   14.44    1.37
   0   9   7    8.66    1.15
   0   9   8    3.93    0.81
   0   9  -9    0.24    0.33
   0   9   9    0.64    0.39
   0  10   0   48.49    2.15
   0  10   1   28.55    1.60
   0  10  -1   26.73    1.57
   0  10   2    7.80    0.83
   0  10   3   14.67    1.20
   0  10   4    6.89    0.86
   0  10   5    3.26    0.64
   0  10   6    0.26    0.26
   0  10   7    0.92    0.42
  -1 -14   2    2.99    0.81
   1 -14  -2    2.37    0.72
  -1 -14   1    1.97    0.70
   1 -14  -1    0.05    0.35
   1 -14   0    9.13    1.34
  -1 -14   0    8.42    1.39
  -1 -14  -1    3.64    0.94
   1 -14   1    3.47    0.83
   1 -13  -5    4.45    1.02
   1 -13  -4    4.19    0.96
  -1 -13   3    8.12    1.25
   1 -13  -3   10.06    1.46
   1 -13  -2    1.92    0.66
  -1 -13   2    4.31    0.91
  -1 -13   1   11.05    1.46
   1 -13  -1   15.20    1.70
   1 -13   0    9.69    1.34
  -1 -13   0   11.23    1.50
   1 -13   1    9.45    1.28
  -1 -13  -1   10.35    1.45
  -1 -13  -2    4.78    1.05
  -1 -13  -3    0.70    0.47
  -1 -13  -4    2.49    0.80
   1 -12  -6    7.20    1.27
   1 -12  -5    0.10    0.32
   1 -12  -4    3.37    0.83
  -1 -12   4    2.52    0.67
  -1 -12   3    3.16    0.73
   1 -12  -3    1.87    0.61
  -1 -12   2   16.03    1.62
   1 -12  -2   12.94    1.55
  -1 -12   1    2.13    0.64
   1 -12  -1    1.66    0.60
  -1 -12   0   11.21    1.42
   1 -12   0   10.23    1.28
  -1 -12  -1    8.35    1.28
   1 -12   1    8.55    1.14
   1 -12   2    3.29    0.72
  -1 -12  -2    3.69    0.88
  -1 -12  -3    1.98    0.68
  -1 -12  -4    1.28    0.59
  -1 -12  -5    5.98    1.20
  -1 -12  -6    1.61    0.73
   1 -11  -7    2.83    0.82
   1 -11  -6    7.12    1.22
   1 -11  -5   11.91    1.52
   1 -11  -4    6.89    1.12
  -1 -11   4    4.64    0.83
   1 -11  -3    0.44    0.36
  -1 -11   3    0.67    0.36
   1 -11  -2    4.78    0.90
  -1 -11   2    5.81    0.92
   1 -11  -1   23.63    1.90
  -1 -11   1   25.06    1.97
   1 -11   0    8.90    1.14
  -1 -11   0   11.78    1.36
   1 -11   1    2.93    0.66
  -1 -11  -1    2.00    0.59
  -1 -11  -2    2.15    0.68
   1 -11   2    2.86    0.62
   1 -11   3   15.90    1.40
  -1 -11  -3   17.52    1.78
  -1 -11  -4    6.54    1.17
  -1 -11  -5    3.79    0.91
  -1 -11  -6    0.40    0.40
  -1 -11  -7    2.61    0.80
   1 -10  -5    8.51    1.22
   1 -10  -4    8.13    0.94
  -1 -10   4    7.06    0.96
   1 -10  -4    7.33    1.11
   1 -10  -3    2.63    0.69
  -1 -10   3    2.82    0.63
  -1 -10   2    0.24    0.23
   1 -10  -2    0.55    0.33
  -1 -10   1   13.65    1.37
   1 -10  -1   13.90    1.36
   1 -10   0    2.03    0.54
  -1 -10   0    1.84    0.55
  -1 -10  -1   21.74    1.84
   1 -10   1   24.45    1.73
  -1 -10  -2    0.07    0.30
   1 -10   2    1.06    0.40
   1 -10   3    0.11    0.19
  -1 -10  -3    0.14    0.34
  -1 -10  -4    7.73    1.18
  -1 -10  -5   12.86    1.53
  -1 -10  -6   17.50    1.85
  -1 -10  -7    2.10    0.69
  -1 -10  -8    3.62    0.90
   1  -9  -5    7.92    0.87
  -1  -9   4   10.21    1.11
   1  -9  -4   13.03    1.12
  -1  -9   3   15.55    1.34
   1  -9  -3   16.93    1.52
   1  -9  -3   17.31    1.31
   1  -9  -2   69.43    3.17
  -1  -9   2   70.53    3.05
   1  -9  -1   28.32    1.86
  -1  -9   1   31.28    1.98
  -1  -9   0   32.19    2.04
   1  -9   0   31.09    1.89
  -1  -9  -1   22.17    1.72
   1  -9   1   23.69    1.59
  -1  -9  -2   11.05    1.22
   1  -9   2    8.94    0.95
   1  -9   3    5.14    0.70
  -1  -9  -3    4.93    0.85
   1  -9   4    0.04    0.12
  -1  -9  -4   -0.05    0.22
  -1  -9  -5    3.26    0.75
  -1  -9  -6    5.24    0.99
  -1  -9  -7    1.10    0.51
  -1  -9  -8    3.53    0.90
   1  -8  -6    2.15    0.45
   1  -8  -5    6.65    0.77
  -1  -8   4    7.53    0.89
   1  -8  -4    8.42    0.87
   1  -8  -3    7.97    0.84
  -1  -8   3    6.56    0.82
   1  -8  -2    0.64    0.31
  -1  -8   2    1.20    0.38
   1  -8  -1   18.01    1.36
  -1  -8   1   17.00    1.35
  -1  -8   0   26.82    1.74
   1  -8   0   24.18    0.93
   1  -8   1    5.08    0.68
  -1  -8  -1    3.81    0.67
   1  -8   1    4.36    0.34
   1  -8   2   32.14    1.15
  -1  -8  -2   33.95    2.05
   1  -8   2   31.95    1.70
  -1  -8  -3   37.81    2.26
   1  -8   3   42.80    1.93
  -1  -8  -4   12.81    1.32
   1  -8   4   11.93    0.97
  -1  -8  -5   20.86    1.76
  -1  -8  -6    7.68    1.11
  -1  -8  -7    5.46    0.98
  -1  -8  -8    6.68    1.11
  -1  -8  -9    3.97    0.91
   1  -7  -6    0.79    0.27
   1  -7  -5   17.15    1.18
   1  -7  -4   76.11    2.72
  -1  -7   3   83.79    3.02
   1  -7  -3   80.69    2.85
  -1  -7   2  176.26    4.83
   1  -7  -2  159.73    4.55
   1  -7  -1   50.98    2.26
  -1  -7   1   54.77    2.34
   1  -7  -1   48.18    2.13
   1  -7   0    5.05    0.63
  -1  -7   0    5.30    0.72
  -1  -7  -1    3.55    0.30
  -1  -7  -1    5.68    0.76
   1  -7   1    4.93    0.38
   1  -7   1    5.14    0.63
  -1  -7  -2    1.09    0.39
   1  -7   2    1.22    0.22
   1  -7   2    1.43    0.33
  -1  -7  -3    8.73    1.00
   1  -7   3    9.29    0.68
   1  -7   3    8.29    0.74
   1  -7   4   20.32    1.17
  -1  -7  -4   21.41    1.62
  -1  -7  -5    5.82    0.88
  -1  -7  -6    2.22    0.57
  -1  -7  -7   10.26    1.27
  -1  -7  -8    2.65    0.68
  -1  -7  -9   11.37    1.45
  -1  -7 -10    1.25    0.51
   1  -6  -7    0.68    0.28
   1  -6  -6    1.39    0.37
   1  -6  -5   30.20    1.53
   1  -6  -4    9.37    0.81
  -1  -6   3    4.09    0.56
   1  -6  -3    3.32    0.48
  -1  -6   2   30.31    1.55
   1  -6  -2   29.31    1.47
   1  -6  -1   29.11    1.48
  -1  -6   1   29.77    1.56
   1  -6   0    9.99    0.83
  -1  -6   0    9.99    0.90
  -1  -6  -1   19.55    0.78
   1  -6   1   20.98    1.16
   1  -6   1   19.78    0.84
  -1  -6  -1   18.69    1.30
   1  -6   2    6.75    0.62
  -1  -6  -2    7.21    0.80
   1  -6   2    7.88    0.55
  -1  -6  -3    4.42    0.67
   1  -6   3    5.12    0.51
   1  -6   3    4.72    0.51
  -1  -6  -4   50.21    1.62
   1  -6   4   55.18    2.07
  -1  -6  -4   55.20    2.53
   1  -6   5   21.47    1.36
  -1  -6  -9    9.53    1.24
  -1  -6 -10    5.24    0.98
   1  -5  -8    4.29    0.63
   1  -5  -7    0.73    0.27
   1  -5  -6   30.10    1.56
   1  -5  -5   37.31    1.67
   1  -5  -4   23.04    1.23
   1  -5  -3   25.45    1.27
  -1  -5   3   26.97    1.38
  -1  -5   2    0.81    0.25
   1  -5  -2    0.78    0.23
   1  -5  -1   40.46    1.67
  -1  -5   1   41.18    1.74
   1  -5   0   12.70    0.91
  -1  -5   0   14.07    0.98
   1  -5   1  179.18    3.89
   1  -5   1  181.20    4.30
  -1  -5  -1  180.16    3.83
  -1  -5  -1  173.06    4.67
   1  -5   2   47.01    1.57
   1  -5   2   49.41    1.66
  -1  -5  -2   47.03    2.03
   1  -5   3    0.79    0.19
  -1  -5  -3    0.75    0.31
  -1  -5  -3    0.27    0.10
   1  -5   3    0.65    0.20
  -1  -5  -4    9.34    0.55
   1  -5   4   10.28    0.83
   1  -5   5   18.29    1.25
  -1  -5  -5   16.94    0.80
   1  -4  -8    4.22    0.64
   1  -4  -7    6.15    0.71
   1  -4  -6    1.97    0.38
   1  -4  -5   28.74    1.42
   1  -4  -4   82.50    2.55
   1  -4  -3    3.75    0.45
   1  -4  -2   10.43    0.72
  -1  -4   2    9.35    0.71
  -1  -4   1    5.19    0.35
  -1  -4   1    5.02    0.53
   1  -4  -1    5.65    0.53
   1  -4   0   61.08    2.08
  -1  -4   0   66.34    1.60
  -1  -4   0   64.22    2.15
  -1  -4  -1   79.37    1.98
   1  -4   1   76.50    2.01
  -1  -4  -1   82.32    2.54
   1  -4   1   80.69    2.18
   1  -4   2   31.81    1.12
  -1  -4  -2   27.60    1.39
   1  -4   2   30.76    1.18
  -1  -4  -2   27.89    0.95
   1  -4   3   32.78    1.38
  -1  -4  -3   29.44    0.96
  -1  -4  -4    4.07    0.33
   1  -4   4    4.03    0.53
  -1  -4  -5   43.16    1.40
   1  -4   5   44.14    2.04
  -1  -4  -6    9.25    0.63
   1  -3  -9    2.12    0.50
   1  -3  -8    0.73    0.30
   1  -3  -7    6.48    0.74
   1  -3  -6   23.16    1.32
   1  -3  -5    3.30    0.45
   1  -3  -4    3.49    0.44
   1  -3  -3  180.57    4.22
  -1  -3   2   20.43    0.99
   1  -3  -2   20.13    0.95
  -1  -3   1   24.69    1.07
  -1  -3   1   25.63    0.78
   1  -3  -1   25.15    1.05
   1  -3   0    1.37    0.26
  -1  -3   0    1.10    0.25
  -1  -3   0    1.29    0.13
  -1  -3  -1  202.30    4.34
  -1  -3  -1  216.50    4.82
   1  -3   1  210.80    4.42
   1  -3   1  214.80    4.35
   1  -3   2   19.63    0.91
   1  -3   2   19.90    0.72
  -1  -3  -2   18.31    0.60
   1  -3   3    1.01    0.24
  -1  -3  -3    0.71    0.12
   1  -3   4   45.32    1.90
  -1  -3  -4   43.93    1.31
  -1  -3  -5    2.54    0.31
   1  -3   5    2.98    0.52
  -1  -3  -6    0.18    0.12
  -1  -3  -7   18.98    1.08
   1  -2 -10   16.36    1.48
   1  -2  -9    2.34    0.53
   1  -2  -8   37.54    2.00
   1  -2  -7   13.36    1.09
   1  -2  -6    1.93    0.40
   1  -2  -5   56.30    2.07
   1  -2  -4    2.24    0.33
   1  -2  -3   11.35    0.69
   1  -2  -2   22.21    0.92
   1  -2  -1   86.06    2.22
  -1  -2   1   92.44    2.28
  -1  -2   0  407.84    8.10
   1  -2   0  414.65    8.08
   1  -2   1  311.45    5.96
   1  -2   1  311.92    6.29
  -1  -2  -1  311.23    6.45
  -1  -2  -2   69.61    2.19
   1  -2   2   69.77    2.01
   1  -2   3  125.90    3.32
  -1  -2  -3  124.37    2.67
  -1  -2  -3  121.19    3.45
  -1  -2  -4    8.78    0.82
   1  -2   4    9.35    0.81
   1  -2   5   41.77    1.98
  -1  -2  -5   38.29    1.95
  -1  -2  -6   13.28    1.18
  -1  -2  -7   15.42    1.38
  -1  -2  -8    7.01    1.01
  -1  -2  -9   25.66    2.04
  -1  -1  12    7.06    1.30
   1  -1 -10    0.07    0.21
   1  -1  -9    4.76    0.75
   1  -1  -8   23.26    1.56
   1  -1  -7   12.85    1.06
   1  -1  -6   61.63    2.31
   1  -1  -5    8.52    0.70
   1  -1  -4    6.52    0.54
   1  -1  -3   53.93    1.72
   1  -1  -2  989.24   18.41
   1  -1  -1   63.35    1.59
   1  -1  -1   60.10    1.57
   1  -1   0  312.87    6.15
  -1  -1   0  313.37    6.14
   1  -1   0  323.80    6.14
   1  -1   1   78.23    2.02
  -1  -1  -1   83.33    2.10
  -1  -1  -1   86.16    1.97
  -1  -1  -1   79.71    2.01
  -1  -1  -2   63.02    1.95
   1  -1   2   61.74    1.86
   1  -1   3   19.85    1.06
  -1  -1  -3   20.40    1.11
  -1  -1  -4   29.94    1.53
   1  -1   4   37.14    1.68
   1  -1   5   34.18    1.79
  -1  -1  -5   35.94    1.80
  -1  -1  -6   20.48    1.45
  -1  -1  -7    3.53    0.65
  -1  -1  -8    8.28    1.06
  -1  -1  -9   17.12    1.63
  -1  -1 -10    0.90    0.45
  -1  -1 -11    0.23    0.30
  -1   0  12    1.04    0.64
  -1   0  11    4.99    1.04
   1   0 -10   11.63    1.23
   1   0  -9    2.98    0.59
   1   0  -8    1.40    0.37
   1   0  -7   82.40    2.91
   1   0  -6    9.60    0.81
   1   0  -5   72.50    2.30
   1   0  -4    6.50    0.51
   1   0  -3    0.13    0.09
  -1   0   3    0.16    0.09
  -1   0   2  154.49    3.53
   1   0  -2  162.28    3.19
  -1   0   2  163.39    3.20
   1   0  -1   53.27    1.31
  -1   0   1   54.22    1.31
  -1   0  -1  268.45    5.49
  -1   0  -1  264.23    5.46
  -1   0  -1  269.15    5.28
   1   0   1  265.41    5.43
  -1   0  -1  252.92    5.08
   1   0   1  262.70    5.48
  -1   0  -2   70.62    1.69
   1   0   2   67.09    1.99
  -1   0  -2   70.13    2.06
  -1   0  -3   37.13    1.53
   1   0   3   35.78    1.50
   1   0   4   22.35    1.28
  -1   0  -4   18.44    1.16
   1   0   5   96.40    3.32
  -1   0  -5   92.94    3.20
  -1   0  -6   35.69    1.95
  -1   0  -7    1.18    0.41
  -1   0  -8   14.31    1.38
  -1   0  -9    3.65    0.77
  -1   0 -10    8.57    1.22
  -1   0 -11    0.45    0.35
  -1   1  12    7.37    1.35
  -1   1  11    8.08    1.32
  -1   1  10    0.31    0.35
   1   1 -10    0.18    0.25
   1   1  -9    5.52    0.79
  -1   1   9    4.71    0.90
   1   1  -8   20.43    1.41
   1   1  -7   12.41    1.01
   1   1  -6   66.45    2.37
   1   1  -5    9.20    0.70
   1   1  -4    5.12    0.46
  -1   1   4    6.40    0.64
  -1   1   3   56.62    1.89
   1   1  -3   58.00    1.60
   1   1  -2 1000.00   18.24
  -1   1   2  999.33   18.65
  -1   1   1   62.26    1.57
   1   1  -1   59.45    1.51
  -1   1   1   62.34    1.58
  -1   1   0  315.22    6.17
   1   1   0  334.16    6.19
  -1   1   0  329.22    6.19
  -1   1  -1   82.72    2.01
   1   1   1   83.33    2.05
  -1   1  -1   86.13    2.06
   1   1   2   58.06    1.81
  -1   1  -2   60.02    1.87
  -1   1  -3   19.84    1.09
  -1   1  -3   20.53    0.69
   1   1   3   20.97    1.11
   1   1   4   34.87    1.66
  -1   1  -4   31.78    1.57
  -1   1  -5   37.60    1.86
  -1   1  -6   18.20    1.36
  -1   1  -7    3.12    0.62
  -1   1  -8    6.57    0.94
  -1   1  -9   18.22    1.66
  -1   1 -10   -0.07    0.30
  -1   1 -11   -0.32    0.37
  -1   2  11    8.85    1.40
  -1   2  10   17.05    1.78
   1   2 -10   16.41    1.46
  -1   2   9    1.87    0.63
   1   2  -9    1.03    0.35
  -1   2   8   35.72    2.30
   1   2  -8   34.36    1.91
   1   2  -7   13.67    1.07
  -1   2   7   10.43    1.13
   1   2  -6    1.68    0.36
  -1   2   6    1.88    0.47
   1   2  -5   58.06    2.04
  -1   2   5   55.07    2.31
  -1   2   4    1.89    0.38
   1   2  -3   11.14    0.53
  -1   2   3   11.92    0.78
  -1   2   2   22.79    0.99
  -1   2   1   90.80    2.26
   1   2   0  421.58    7.82
  -1   2   0  420.85    8.20
  -1   2  -1  308.84    6.26
   1   2   1  300.05    6.05
   1   2   2   69.16    2.04
  -1   2  -3  121.80    2.45
   1   2   3  108.61    3.21
  -1   2  -4   11.02    0.91
   1   2   4    8.88    0.81
  -1   2  -5   41.45    2.00
  -1   2  -6   12.11    1.12
  -1   2  -7   14.49    1.32
  -1   2  -8    6.62    0.95
  -1   2  -9   25.48    2.00
  -1   2 -10    8.56    1.21
  -1   2 -11    5.47    1.03
   1   2  11    5.93    1.17
  -1   3  11    0.54    0.61
  -1   3  10    4.95    1.03
  -1   3   9    1.98    0.65
   1   3  -9    1.92    0.47
   1   3  -8    1.38    0.38
  -1   3   8    0.93    0.44
   1   3  -7    6.79    0.77
  -1   3   7    4.86    0.78
   1   3  -6   24.82    1.41
  -1   3   6   22.33    1.54
  -1   3   5    3.01    0.52
   1   3  -5    1.66    0.19
  -1   3   4    4.72    0.57
  -1   3   3  171.96    4.28
   1   3  -2   21.02    0.76
  -1   3   2   21.86    1.03
  -1   3   1   26.88    1.08
   1   3   0    1.18    0.12
  -1   3   0    1.41    0.25
   1   3   0    1.77    0.15
   1   3   1  210.45    4.36
   1   3   1  208.30    4.19
  -1   3  -1  208.57    4.69
   1   3   1  209.85    4.26
   1   3   2   19.70    0.91
   1   3   2   21.16    0.99
   1   3   2   21.63    0.66
  -1   3  -3    0.90    0.13
  -1   3  -4   42.80    1.20
  -1   3  -5    2.59    0.26
  -1   3  -5    2.60    0.51
  -1   3  -6    0.08    0.19
  -1   3  -7   19.67    1.57
  -1   3  -8   14.96    1.45
   1   3   9   12.66    1.48
  -1   3  -9   12.72    1.42
   1   3  10    3.51    0.87
  -1   3 -10    1.56    0.56
   1   3  11    1.75    0.72
  -1   3 -11    2.23    0.64
  -1   4  11   17.02    1.91
  -1   4  10    6.41    1.14
  -1   4   9   18.23    1.74
   1   4  -9   15.05    1.38
   1   4  -8    5.88    0.80
  -1   4   8    4.42    0.80
   1   4  -7    5.08    0.69
  -1   4   7    4.20    0.75
  -1   4   6    2.13    0.49
  -1   4   5   30.87    1.70
  -1   4   4   86.47    2.89
  -1   4   3    3.84    0.50
   1   4  -2   10.27    0.45
  -1   4   2   10.21    0.73
  -1   4   1    4.47    0.45
  -1   4   0   63.21    1.98
   1   4   0   62.16    1.55
   1   4   1   79.91    1.99
  -1   4  -1   76.07    2.33
   1   4   2   30.57    0.98
   1   4   2   28.58    1.16
   1   4   3   33.04    1.43
  -1   4  -4    4.28    0.36
   1   4   4    5.50    0.62
   1   4   5   45.36    2.12
  -1   4  -6    9.32    1.03
   1   4   6    7.30    0.90
   1   4   7   12.40    1.26
  -1   4  -7   14.57    1.39
  -1   4  -8   26.91    2.01
   1   4   8   30.70    2.16
   1   4   9    5.75    1.01
  -1   4  -9    6.54    1.05
   1   4  10    3.43    0.92
  -1   4 -10    5.06    0.99
   1   4  11   -0.57    0.52
  -1   4 -11    0.61    0.43
  -1   5  11    1.03    0.58
  -1   5  10   -0.12    0.35
   1   5  -9    6.66    0.94
  -1   5   9    8.83    1.23
   1   5  -8    5.75    0.82
  -1   5   8    7.08    1.05
   1   5  -7    0.67    0.32
  -1   5   7    0.63    0.39
  -1   5   6   30.17    1.86
  -1   5   5   30.87    1.75
  -1   5   4   23.64    1.41
  -1   5   3   26.77    1.40
   1   5  -2    0.98    0.11
  -1   5   2    1.12    0.28
  -1   5   1   39.65    1.60
   1   5  -1   41.04    1.31
  -1   5   0   11.83    0.81
   1   5   0   12.14    0.61
   1   5   1  175.21    3.92
  -1   5  -1  178.42    4.41
   1   5   2   43.27    1.55
   1   5   3    0.30    0.17
   1   5   4    9.87    0.85
   1   5   5   18.73    1.32
   1   5   6    1.57    0.44
   1   5   7    6.37    0.91
  -1   5  -7    5.39    0.90
   1   5   8    1.51    0.53
  -1   5  -8    2.30    0.64
   1   5   9    4.51    0.89
  -1   5  -9    4.70    0.91
  -1   5 -10    2.71    0.73
   1   5  10    3.73    0.91
  -1   6  10   12.69    1.57
  -1   6   9    8.32    1.19
   1   6  -9    8.32    1.09
  -1   6   8   11.43    1.33
   1   6  -8   12.77    1.28
  -1   6   7    0.55    0.40
  -1   6   6    1.50    0.44
  -1   6   5   26.79    1.67
  -1   6   4    9.20    0.89
   1   6  -3    4.09    0.32
  -1   6   3    4.09    0.56
  -1   6   2   28.74    1.45
  -1   6   1   31.16    1.48
   1   6  -1   29.39    1.16
   1   6   0    9.27    0.59
  -1   6   0    9.74    0.79
   1   6   1   18.20    0.90
  -1   6  -1   19.20    1.14
   1   6   2    7.14    0.60
  -1   6  -2    7.50    0.75
   1   6   3    4.85    0.55
   1   6   4   53.14    2.17
   1   6   5   21.12    1.42
   1   6   6   16.30    1.36
  -1   6  -7   27.65    2.03
   1   6   7   22.22    1.73
   1   6   8   10.22    1.26
  -1   6  -8   11.50    1.38
  -1   6  -9   13.38    1.54
   1   6   9   10.72    1.39
   1   6  10    7.27    1.20
  -1   6 -10    5.45    1.06
  -1   7  10    2.29    0.75
  -1   7   9    2.64    0.73
   1   7  -8    3.29    0.68
  -1   7   8    3.74    0.81
  -1   7   7    3.73    0.76
  -1   7   6    0.88    0.38
  -1   7   5   14.04    1.22
  -1   7   4   71.58    2.83
  -1   7   3   78.57    2.86
  -1   7   2  167.58    4.57
   1   7  -1   49.88    1.72
  -1   7   1   49.22    2.04
  -1   7   0    4.70    0.58
   1   7   0    5.34    0.49
   1   7   1    6.31    0.55
  -1   7  -1    4.89    0.60
   1   7   2    1.57    0.30
  -1   7  -2    0.98    0.31
   1   7   3    8.87    0.78
   1   7   4   22.95    1.39
   1   7   5    5.35    0.74
   1   7   6    2.27    0.51
   1   7   7   10.36    1.17
   1   7   8    1.78    0.54
  -1   7  -8    2.74    0.72
  -1   7  -9   13.26    1.59
   1   7   9   10.40    1.37
   1   7  10    1.26    0.55
  -1   7 -10    0.47    0.39
  -1   8  10    0.89    0.48
  -1   8   9   11.25    1.45
  -1   8   8    9.08    1.23
  -1   8   7    8.96    1.14
  -1   8   6    1.52    0.47
  -1   8   5    7.45    0.93
  -1   8   4    8.72    0.93
  -1   8   3    8.24    0.87
  -1   8   2    0.92    0.31
   1   8  -1   18.65    1.03
  -1   8   1   18.27    1.25
   1   8   0   26.27    1.23
  -1   8   0   27.93    1.55
  -1   8  -1    4.37    0.63
   1   8   1    4.53    0.50
   1   8   2   32.71    1.51
   1   8   3   41.54    1.84
   1   8   4   13.88    1.11
   1   8   5   19.09    1.40
   1   8   6    8.66    1.00
   1   8   7    7.33    1.01
  -1   8  -8    6.51    1.11
   1   8   8    7.88    1.12
   1   8   9    3.66    0.81
  -1   8  -9    3.69    0.92
  -1   9   9    0.46    0.36
  -1   9   8    0.21    0.30
  -1   9   7    3.72    0.76
  -1   9   6    5.04    0.85
  -1   9   5   10.42    1.13
  -1   9   4   12.78    1.18
  -1   9   3   14.70    1.23
  -1   9   2   75.51    2.94
  -1   9   1   29.36    1.68
  -1   9   0   32.18    1.76
   1   9   0   31.57    1.44
   1   9   1   25.11    1.29
  -1   9  -1   25.12    1.57
   1   9   2   11.30    0.88
   1   9   3    5.17    0.63
   1   9   4    0.02    0.14
   1   9   5    1.73    0.44
   1   9   6    3.81    0.70
   1   9   7    0.82    0.38
  -1  10   8    2.29    0.68
  -1  10   7    4.53    0.86
  -1  10   6   10.09    1.19
  -1  10   5   10.73    1.17
  -1  10   4    9.85    1.08
  -1  10   3    2.19    0.51
  -1  10   2    0.67    0.33
  -1  10   1   15.02    1.24
  -1  10   0    1.41    0.39
  -1  10  -1   26.18    1.69
  -1  11   6    6.17    0.96
  -1  11   5   11.50    1.27
  -1  11   4    3.54    0.69
  -1  11   3    0.71    0.32
  -1  11   2    5.45    0.77
  -1  11   1   25.70    1.71
  -1  11   0   10.58    1.08
  -1  11  -1    1.84    0.48
  -2 -14   1    9.86    1.48
   2 -14  -1    8.22    1.28
   2 -14   0    3.01    0.79
  -2 -14   0    5.11    1.08
   2 -13  -5   -0.10    0.30
   2 -13  -4    0.20    0.32
   2 -13  -3    5.98    1.12
  -2 -13   3    5.05    1.09
   2 -13  -2    3.42    0.83
  -2 -13   2    5.06    1.00
   2 -13  -1    4.50    0.92
  -2 -13   1    3.51    0.87
  -2 -13   0    2.58    0.79
   2 -13   0    4.04    0.84
  -2 -13  -1    5.15    1.07
  -2 -13  -2    7.23    1.27
  -2 -13  -3    3.87    0.98
   2 -12  -6    5.78    1.22
   2 -12  -5    4.30    0.96
  -2 -12   4    3.52    0.90
   2 -12  -4    5.47    1.07
   2 -12  -3    8.37    1.28
  -2 -12   3    8.04    1.22
  -2 -12   2   11.91    1.46
   2 -12  -2   12.48    1.49
   2 -12  -1   12.10    1.41
  -2 -12   1   11.70    1.44
   2 -12   0    2.43    0.63
  -2 -12   0    3.73    0.86
  -2 -12  -1    2.68    0.75
   2 -12   1    0.73    0.36
  -2 -12  -2    1.96    0.68
  -2 -12  -3    4.34    0.95
  -2 -12  -4    0.95    0.56
  -2 -12  -5    7.05    1.29
   2 -11  -4    1.34    0.49
   2 -11  -4    1.82    0.58
  -2 -11   4    2.21    0.61
   2 -11  -3    3.19    0.77
  -2 -11   3    3.86    0.80
   2 -11  -2    1.27    0.49
  -2 -11   2    2.02    0.56
  -2 -11   1    2.84    0.70
   2 -11  -1    3.78    0.77
   2 -11   0    3.74    0.74
  -2 -11   0    4.50    0.90
   2 -11   1   11.11    1.22
  -2 -11  -1   12.79    1.50
  -2 -11  -2    1.38    0.59
   2 -11   2    0.82    0.35
  -2 -11  -3   15.19    1.69
  -2 -11  -4   10.03    1.40
  -2 -11  -5    7.37    1.25
  -2 -11  -6    2.23    0.72
   2 -10  -5   12.14    1.23
  -2 -10   4   10.45    1.27
   2 -10  -4   10.72    1.15
   2 -10  -3   11.32    1.21
  -2 -10   3   14.02    1.44
   2 -10  -2    9.93    1.17
  -2 -10   2   12.06    1.31
   2 -10  -2   12.31    1.32
   2 -10  -1    0.71    0.34
  -2 -10   1    0.74    0.37
  -2 -10   0    5.28    0.91
   2 -10   0    9.11    1.05
   2 -10   1    4.80    0.76
  -2 -10  -1    4.67    0.88
  -2 -10  -2    0.97    0.47
   2 -10   2    0.95    0.35
  -2 -10  -3    3.20    0.76
  -2 -10  -4    1.57    0.60
  -2 -10  -5    1.34    0.57
  -2 -10  -6   16.55    1.82
  -2 -10  -7    5.20    1.07
   2  -9  -6    5.29    0.82
   2  -9  -5    0.35    0.27
   2  -9  -4   11.59    1.15
   2  -9  -3    2.39    0.53
  -2  -9   3    3.25    0.67
  -2  -9   2    5.26    0.82
   2  -9  -2    5.06    0.75
  -2  -9   1    5.39    0.82
   2  -9  -1    7.98    0.95
  -2  -9   0   18.98    1.62
   2  -9   0   21.14    1.51
  -2  -9  -1   29.97    2.06
   2  -9   1   27.01    1.67
   2  -9   2    9.15    0.92
  -2  -9  -2    9.23    1.17
   2  -9   3    1.64    0.40
  -2  -9  -3    1.68    0.51
  -2  -9  -4   22.57    1.91
  -2  -9  -5   22.35    1.96
  -2  -9  -6    7.99    1.23
  -2  -9  -7    2.24    0.67
  -2  -9  -8   12.26    1.58
   2  -8  -7   11.63    1.14
   2  -8  -6   24.47    1.64
   2  -8  -5   22.30    1.54
   2  -8  -4   84.14    3.22
  -2  -8   3   36.98    2.14
   2  -8  -3   42.05    2.14
  -2  -8   2   34.62    2.00
   2  -8  -2   32.58    1.88
   2  -8  -1   13.70    1.20
  -2  -8   1   12.57    1.20
   2  -8   0    7.40    0.81
  -2  -8   0    7.10    0.93
   2  -8   1    3.28    0.53
   2  -8   1    2.96    0.39
  -2  -8  -1    2.82    0.61
   2  -8   2   16.61    1.15
  -2  -8  -2   17.73    1.50
   2  -8   2   16.42    0.97
   2  -8   3   19.59    1.16
   2  -8   3   19.42    1.17
  -2  -8  -3   20.15    1.67
  -2  -8  -4    1.48    0.52
   2  -8   4    1.62    0.37
   2  -8   5   13.88    1.15
  -2  -8  -5   10.54    1.27
  -2  -8  -6    8.96    1.21
  -2  -8  -7    3.82    0.82
  -2  -8  -8   -0.30    0.36
  -2  -8  -9    3.82    0.90
   2  -7  -7    3.55    0.62
   2  -7  -6    0.09    0.17
   2  -7  -5    6.69    0.82
   2  -7  -4   10.23    0.96
  -2  -7   3    6.64    0.81
   2  -7  -3    6.62    0.78
  -2  -7   2   17.42    1.32
   2  -7  -2   17.07    1.26
   2  -7  -1   12.51    1.09
  -2  -7   1   15.06    1.23
   2  -7   0    6.97    0.76
   2  -7   0    7.24    0.84
  -2  -7   0    6.11    0.80
  -2  -7  -1    5.06    0.76
   2  -7   1    6.02    0.67
   2  -7   1    6.21    0.56
   2  -7   2   53.22    1.92
  -2  -7  -2   49.60    2.50
   2  -7   2   53.18    2.01
   2  -7   3   25.08    1.21
   2  -7   3   24.12    1.30
  -2  -7  -4   19.67    1.59
   2  -7   4   21.97    1.35
   2  -7   5   40.48    2.04
  -2  -7  -5   39.49    2.37
   2  -7   6    2.31    0.55
  -2  -7  -6    2.42    0.61
  -2  -7  -7    5.55    0.93
  -2  -7  -8    8.46    1.21
  -2  -7  -9    0.64    0.40
   2  -6  -8    3.72    0.65
   2  -6  -7    3.56    0.62
   2  -6  -6   20.11    1.39
   2  -6  -5   32.52    1.76
   2  -6  -4   22.93    1.40
   2  -6  -3   91.04    3.02
  -2  -6   3   78.69    2.99
  -2  -6   2   20.48    1.34
   2  -6  -2   18.45    1.24
  -2  -6   1   28.88    1.61
  -2  -6   1   26.26    0.87
   2  -6  -1   28.02    1.54
  -2  -6   0   44.86    2.09
   2  -6   0   41.65    1.96
  -2  -6   0   41.19    1.16
   2  -6   1   19.84    1.08
   2  -6   1   17.75    0.97
  -2  -6  -1   20.75    1.39
   2  -6   2    3.66    0.46
   2  -6   2    3.57    0.43
  -2  -6  -2    2.57    0.52
   2  -6   3   40.36    1.73
   2  -6   3   37.45    1.42
  -2  -6  -3   36.88    2.03
  -2  -6  -4   24.68    1.68
   2  -6   4   26.72    1.50
  -2  -6  -5   22.48    1.65
   2  -6   5   24.01    1.54
  -2  -6  -6   13.14    1.30
   2  -6   6    9.81    1.08
  -2  -6  -7    4.04    0.75
  -2  -6  -8    8.69    1.15
  -2  -6  -9   11.15    1.36
   2  -5  -9    1.98    0.52
   2  -5  -8    1.52    0.41
   2  -5  -7    5.77    0.75
   2  -5  -6    3.20    0.56
   2  -5  -5    1.98    0.43
   2  -5  -4   11.96    0.96
   2  -5  -3    6.88    0.70
  -2  -5   2   65.30    2.44
   2  -5  -2   66.15    2.38
  -2  -5   1   57.81    1.37
   2  -5  -1   56.69    2.19
  -2  -5   1   59.67    2.28
   2  -5   0   14.68    1.04
  -2  -5   0   16.04    1.12
  -2  -5  -1   24.71    1.42
   2  -5   1   23.55    1.09
   2  -5   1   21.91    1.33
   2  -5   2   26.42    1.06
  -2  -5  -2   28.19    1.57
   2  -5   2   27.12    1.28
   2  -5   3    7.93    0.73
  -2  -5  -3    7.42    0.81
   2  -5   3    5.98    0.44
  -2  -5  -4    3.22    0.57
   2  -5   4    2.73    0.49
   2  -5   5   22.40    1.50
  -2  -5  -5   20.87    1.50
   2  -5   6   19.52    1.52
  -2  -5  -6   18.42    1.47
   2  -5   7   37.42    2.29
  -2  -5  -7   33.07    2.08
  -2  -5  -8   20.23    1.66
  -2  -5  -9    0.98    0.44
   2  -4  -9    2.11    0.53
   2  -4  -8    9.03    0.99
   2  -4  -7    7.18    0.85
   2  -4  -6    6.06    0.74
   2  -4  -5   13.50    1.03
   2  -4  -4    4.44    0.56
   2  -4  -3   33.46    1.53
   2  -4  -2    0.24    0.20
  -2  -4   2    0.14    0.08
  -2  -4   2    0.11    0.19
  -2  -4   1  112.08    3.21
   2  -4  -1  106.79    3.13
   2  -4   0   24.49    1.28
  -2  -4   0   30.33    1.42
   2  -4   1  127.10    3.55
   2  -4   1  124.89    3.20
  -2  -4  -1  122.34    3.54
  -2  -4  -2    8.86    0.79
   2  -4   2    8.82    0.47
   2  -4   2    7.36    0.64
  -2  -4  -3    1.54    0.37
   2  -4   3    2.49    0.40
  -2  -4  -4    9.89    0.91
   2  -4   4   10.12    0.90
   2  -4   5    0.97    0.38
  -2  -4  -5    0.99    0.34
  -2  -4  -6   21.58    1.52
   2  -4   6   24.39    1.70
   2  -4   7    4.53    0.83
  -2  -4  -7    4.36    0.71
  -2  -4  -8    8.42    1.01
   2  -3 -10    8.69    1.08
   2  -3  -9    3.76    0.68
   2  -3  -8    4.08    0.68
   2  -3  -7    9.52    0.96
   2  -3  -6   12.69    1.03
   2  -3  -5   22.61    1.31
   2  -3  -4    9.22    0.76
   2  -3  -3   65.37    2.22
   2  -3  -2    9.15    0.70
   2  -3  -1   32.25    1.36
  -2  -3   1   31.53    1.37
  -2  -3   0   56.34    1.91
   2  -3   0   53.44    1.87
   2  -3   1   15.83    0.86
   2  -3   1   17.85    0.99
  -2  -3  -1   17.54    0.99
  -2  -3  -2    4.70    0.52
   2  -3   2    4.88    0.24
   2  -3   2    4.90    0.52
  -2  -3  -3   83.62    2.68
  -2  -3  -3   82.97    2.97
   2  -3   3   85.56    2.74
  -2  -3  -4   10.27    0.85
  -2  -3  -4   11.04    1.03
   2  -3   4   11.56    0.97
  -2  -3  -5   35.72    1.74
  -2  -3  -5   36.00    1.07
   2  -3   5   36.22    1.94
  -2  -3  -5   34.33    2.01
  -2  -3  -6   13.93    1.10
  -2  -3  -6   13.84    1.32
   2  -3   6   15.12    1.34
  -2  -3  -7    3.81    0.62
  -2  -3  -7    4.31    0.83
   2  -3   7    5.14    0.87
  -2  -3  -8   17.75    1.38
  -2  -2  12   -0.03    0.46
  -2  -2  11    2.33    0.72
   2  -2 -10    0.67    0.35
   2  -2  -9    7.24    0.98
   2  -2  -8   20.81    1.55
   2  -2  -7    2.89    0.55
   2  -2  -6   34.61    1.78
   2  -2  -5   92.43    3.00
   2  -2  -4  124.23    3.49
   2  -2  -3  178.98    4.34
  -2  -2   2  144.67    3.16
   2  -2  -2  145.62    3.58
  -2  -2   1   19.60    0.55
   2  -2  -1   19.94    0.95
  -2  -2   1   19.70    0.97
  -2  -2   0  130.27    3.18
   2  -2   0  126.00    3.15
  -2  -2  -1   70.46    2.08
   2  -2   1   68.64    2.06
   2  -2   1   66.68    2.04
  -2  -2  -1   70.34    2.16
  -2  -2  -2  102.31    3.02
  -2  -2  -2   97.49    2.74
   2  -2   2  106.04    2.92
  -2  -2  -3   18.86    1.00
  -2  -2  -3   19.00    1.22
   2  -2   3   19.72    1.15
   2  -2   4    1.09    0.34
  -2  -2  -4    0.62    0.21
  -2  -2  -4    0.86    0.31
  -2  -2  -5   11.75    1.10
   2  -2   5   11.71    1.08
   2  -2   6   13.93    1.27
  -2  -2  -6   13.82    1.29
  -2  -2  -7   22.19    1.76
   2  -2   7   19.94    1.68
  -2  -2  -8    4.83    0.90
  -2  -2  -8    4.96    0.67
  -2  -2  -9    9.27    1.30
  -2  -2 -10    5.24    1.03
  -2  -1  12    2.02    0.78
  -2  -1  11    4.72    1.05
   2  -1 -11    6.26    1.02
  -2  -1  10    8.10    1.24
   2  -1 -10    7.15    1.05
   2  -1  -9    3.24    0.68
   2  -1  -8   10.64    1.11
   2  -1  -5   13.49    1.00
  -2  -1   5   13.27    0.63
   2  -1  -4   24.31    1.27
  -2  -1   4   25.06    0.95
  -2  -1   3  347.60    6.97
  -2  -1   3  333.31    6.69
   2  -1  -2   44.77    1.57
  -2  -1   2   50.09    1.42
  -2  -1   2   48.43    1.50
  -2  -1   1   78.94    2.16
  -2  -1   1   79.92    1.82
   2  -1  -1   81.98    2.17
  -2  -1   0  332.29    6.28
  -2  -1   0  327.05    6.63
  -2  -1   0  335.09    6.78
   2  -1   0  325.12    6.62
  -2  -1   0  324.92    6.57
  -2  -1  -1   67.61    2.00
   2  -1   1   65.11    1.82
   2  -1   1   64.23    1.96
  -2  -1  -1   65.19    1.46
   2  -1   1   65.69    1.47
  -2  -1  -1   66.34    1.80
   2  -1   2   35.68    1.46
  -2  -1  -2   34.62    0.92
  -2  -1  -2   35.03    1.50
  -2  -1  -2   35.71    1.22
   2  -1   3   91.40    2.91
  -2  -1  -3   88.27    2.95
  -2  -1  -3   91.73    2.47
  -2  -1  -4   47.84    1.70
  -2  -1  -4   53.63    2.27
   2  -1   4   55.39    2.24
   2  -1   5    7.82    0.88
  -2  -1  -5    6.59    0.82
   2  -1   6   24.38    1.71
  -2  -1  -6   24.26    1.70
   2  -1   7   13.68    1.41
  -2  -1  -7   16.12    1.47
  -2  -1  -8    2.27    0.61
  -2  -1  -9    5.00    0.96
  -2  -1 -10   -0.74    0.46
  -2  -1 -11    1.92    0.64
   2   0 -12    0.83    0.44
  -2   0  12    2.03    0.78
   2   0 -11   -0.09    0.25
  -2   0  11    0.32    0.39
  -2   0  10    7.67    1.20
  -2   0   9   21.49    1.84
   2   0  -9   25.68    1.59
  -2   0   8    4.78    0.81
   2   0  -8    4.37    0.59
  -2   0   7   33.16    1.00
  -2   0   7   37.36    2.11
   2   0  -7   39.60    1.69
  -2   0   6  122.44    3.97
   2   0  -6  124.69    3.30
   2   0  -5  107.31    2.76
  -2   0   5  107.60    3.37
  -2   0   4  317.08    6.25
  -2   0   4  307.60    7.00
   2   0  -4  316.13    6.23
  -2   0   3   68.84    1.54
  -2   0   3   77.84    2.21
   2   0  -2    7.43    0.56
  -2   0   2    7.36    0.50
   2   0  -1    2.33    0.28
  -2   0   1    2.04    0.18
   2   0  -1    2.01    0.23
  -2   0   1    1.92    0.23
   2   0   0  103.57    2.38
  -2   0   0  102.14    2.40
   2   0   0  103.15    2.40
   2   0   0  105.84    2.48
  -2   0   0  102.37    2.46
  -2   0   0  105.29    2.39
   2   0   1   28.49    0.91
   2   0   1   27.40    0.86
   2   0   1   28.75    1.16
  -2   0  -1   26.76    0.89
  -2   0  -1   28.65    0.88
  -2   0  -1   27.78    1.14
  -2   0  -1   26.66    1.06
  -2   0  -2    2.40    0.37
  -2   0  -2    2.10    0.21
   2   0   2    1.99    0.33
  -2   0  -2    2.20    0.24
  -2   0  -2    2.19    0.29
  -2   0  -3    6.94    0.70
  -2   0  -3    6.37    0.40
   2   0   3    6.42    0.66
  -2   0  -4   38.45    1.90
   2   0   4   39.94    1.88
  -2   0  -4   40.92    1.31
   2   0   5   10.07    1.01
  -2   0  -5    8.91    0.93
  -2   0  -6    6.04    0.85
   2   0   6    6.25    0.87
  -2   0  -7   25.15    1.85
  -2   0  -8    2.03    0.58
  -2   0  -9    0.42    0.34
  -2   0 -10    4.36    0.94
  -2   0 -11    2.65    0.75
  -2   1  12    2.42    0.85
  -2   1  11    4.78    1.05
  -2   1  10    9.13    1.31
  -2   1   9    4.36    0.87
   2   1  -9    3.61    0.57
  -2   1   8   11.96    1.29
   2   1  -8   12.31    0.99
  -2   1   7   63.45    2.85
   2   1  -7   59.81    2.19
  -2   1   6    9.50    0.96
   2   1  -6    9.67    0.71
  -2   1   5   14.53    1.08
   2   1  -5   12.89    0.72
  -2   1   4   24.54    1.30
   2   1  -4   27.07    0.92
  -2   1   3  333.78    6.49
   2   1  -3  331.59    6.25
  -2   1   3  331.87    7.10
  -2   1   2   45.67    1.53
   2   1  -1   82.46    1.86
  -2   1   1   81.19    2.14
   2   1  -1   83.22    1.86
   2   1   0  334.64    6.33
  -2   1   0  332.49    6.70
   2   1   0  327.80    6.39
   2   1   1   65.41    1.93
   2   1   1   65.25    1.45
  -2   1  -1   64.94    1.93
  -2   1  -2   33.43    1.47
   2   1   2   33.75    1.40
  -2   1  -3   99.61    2.44
  -2   1  -3   87.61    1.87
   2   1   3  104.54    3.02
  -2   1  -3   93.66    2.98
   2   1   4   54.21    2.26
  -2   1  -4   57.49    2.35
  -2   1  -4   51.76    1.32
  -2   1  -4   52.54    1.63
   2   1   5    5.79    0.76
  -2   1  -5    5.95    0.79
   2   1   6   21.80    1.62
  -2   1  -6   23.99    1.68
  -2   1  -7   14.17    1.38
  -2   1  -8    3.18    0.71
  -2   1  -9    2.43    0.71
  -2   1 -10    0.24    0.32
  -2   1 -11   -0.03    0.29
  -2   2  12   -1.00    0.62
  -2   2  11    2.33    0.74
  -2   2  10    0.39    0.35
  -2   2   9    7.59    1.12
   2   2  -9    8.24    0.88
  -2   2   8   22.41    1.77
   2   2  -8   23.58    1.40
   2   2  -7    2.95    0.45
  -2   2   7    3.62    0.68
  -2   2   6   35.29    1.94
   2   2  -6   36.89    1.51
   2   2  -5   90.44    2.47
  -2   2   5   85.72    3.04
  -2   2   4  123.55    3.56
  -2   2   3  173.67    4.31
  -2   2   2  142.85    3.55
  -2   2   1   19.61    0.93
  -2   2   0  124.17    3.10
   2   2   0  124.44    2.85
  -2   2  -1   68.78    2.10
   2   2   1   66.44    1.95
   2   2   2  107.22    2.96
   2   2   3   17.84    1.11
  -2   2  -3   18.23    1.19
  -2   2  -4    0.81    0.18
  -2   2  -4    1.13    0.37
   2   2   4    0.93    0.33
  -2   2  -5   11.69    0.63
   2   2   5   11.25    1.07
  -2   2  -5   12.55    1.14
  -2   2  -6   14.68    1.32
   2   2   6   14.88    1.34
  -2   2  -7   23.65    1.82
  -2   2  -8    5.49    0.94
  -2   2  -9   10.97    1.38
  -2   2 -10    4.26    0.96
  -2   2 -11   12.04    1.61
  -2   3  11    0.85    0.67
  -2   3  10   10.08    1.38
  -2   3   9    3.14    0.75
  -2   3   8    5.54    0.93
   2   3  -8    5.62    0.68
   2   3  -7    9.58    0.83
  -2   3   7    6.80    0.94
   2   3  -6   12.01    0.87
  -2   3   6   11.75    1.12
  -2   3   5   22.93    1.44
  -2   3   4    9.52    0.84
  -2   3   3   66.27    2.28
  -2   3   2    8.86    0.69
  -2   3   1   31.37    1.32
  -2   3   0   52.65    1.81
   2   3   0   53.13    1.49
   2   3   1   16.70    0.54
   2   3   1   16.00    0.82
  -2   3  -1   16.96    0.98
   2   3   2    5.45    0.54
   2   3   3   77.18    2.62
   2   3   4    9.37    0.90
  -2   3  -4   11.58    1.04
   2   3   5   36.72    1.99
  -2   3  -5   32.88    1.96
  -2   3  -6   15.29    1.39
  -2   3  -7    5.17    0.86
  -2   3  -8   17.87    1.68
  -2   3  -9    5.08    0.99
  -2   3 -10    1.92    0.67
   2   3  10    1.57    0.60
  -2   4  11    5.92    1.16
  -2   4  10    0.48    0.45
  -2   4   9    2.27    0.69
  -2   4   8    8.25    1.10
   2   4  -8   10.07    0.96
  -2   4   7    9.64    1.12
   2   4  -7    7.28    0.77
  -2   4   6    7.56    0.91
  -2   4   5   12.56    1.08
  -2   4   4    4.96    0.64
  -2   4   3   32.30    1.56
  -2   4   2    0.22    0.20
  -2   4   1  112.36    3.19
  -2   4   0   29.96    1.38
   2   4   0   28.55    0.96
   2   4   1  126.04    3.06
  -2   4  -1  123.92    3.49
   2   4   1  127.22    2.74
   2   4   1  122.97    2.73
   2   4   2    7.99    0.64
   2   4   2    7.24    0.53
   2   4   2    6.62    0.29
  -2   4  -2    7.96    0.76
   2   4   3    2.37    0.36
   2   4   3    2.39    0.41
   2   4   4    9.76    0.92
  -2   4  -5    0.86    0.42
  -2   4  -6   21.74    1.73
  -2   4  -7    3.14    0.70
  -2   4  -8    7.10    1.09
   2   4   8    8.69    1.17
  -2   4  -9    1.97    0.65
   2   4   9    1.85    0.61
  -2   4 -10   14.01    1.67
   2   4  10   12.47    1.60
  -2   5  11   16.10    1.91
  -2   5  10    9.01    1.33
  -2   5   9    2.14    0.67
   2   5  -8    1.93    0.46
  -2   5   8    1.21    0.47
  -2   5   7    5.04    0.83
   2   5  -7    5.06    0.67
  -2   5   6    3.33    0.64
  -2   5   5    2.01    0.46
  -2   5   4    7.95    0.83
  -2   5   3    6.99    0.74
  -2   5   2   65.45    2.38
   2   5  -1   53.30    1.21
  -2   5   1   57.74    2.14
   2   5   0   15.36    0.62
   2   5   0   14.32    0.50
  -2   5   0   16.05    1.04
  -2   5  -1   23.90    1.33
   2   5   1   23.02    0.99
   2   5   1   24.04    0.85
   2   5   2   25.91    0.87
   2   5   2   25.04    1.06
   2   5   2   26.46    1.23
  -2   5  -2   24.74    1.43
   2   5   3    8.03    0.67
   2   5   4    2.62    0.44
   2   5   5   24.08    1.50
   2   5   6   19.29    1.49
  -2   5  -6   17.56    1.57
   2   5   7   29.78    2.02
  -2   5  -7   31.05    2.23
   2   5   8   19.83    1.76
  -2   5  -8   20.76    1.91
  -2   5  -9    0.82    0.42
   2   5   9    0.60    0.47
  -2   5 -10    6.23    1.16
   2   5  10    4.20    0.95
  -2   6  11    0.77    0.52
  -2   6  10    2.72    0.81
  -2   6   9    0.42    0.42
   2   6  -8    3.93    0.67
  -2   6   8    6.02    0.97
  -2   6   7    3.53    0.71
  -2   6   6   20.64    1.59
  -2   6   5   28.98    1.79
  -2   6   4   22.06    1.46
  -2   6   3   84.50    2.96
   2   6  -3   77.77    1.89
  -2   6   2   17.88    1.20
  -2   6   1   27.82    1.50
   2   6   0   44.22    1.20
  -2   6   0   41.29    1.89
  -2   6  -1   20.11    1.28
   2   6   1   18.57    0.78
   2   6   2    2.93    0.35
  -2   6  -2    3.75    0.59
   2   6   3   37.32    1.54
   2   6   3   32.38    1.05
   2   6   4   26.25    1.43
   2   6   5   23.15    1.48
   2   6   6   11.78    1.15
   2   6   7    2.45    0.59
  -2   6  -7    4.22    0.86
  -2   6  -8    6.78    1.12
   2   6   8    6.12    0.97
   2   6   9   12.56    1.50
  -2   6  -9   11.57    1.53
  -2   6 -10    0.73    0.56
   2   6  10    0.76    0.55
  -2   7  10    3.54    0.91
  -2   7   9    6.53    1.10
  -2   7   8    5.22    0.93
  -2   7   7    4.51    0.83
  -2   7   6    0.82    0.37
  -2   7   5    6.20    0.86
  -2   7   4    7.81    0.90
  -2   7   3    6.46    0.79
  -2   7   2   16.85    1.24
  -2   7   1   11.68    1.00
   2   7   0    7.81    0.47
  -2   7   0    7.55    0.81
  -2   7  -1    6.26    0.75
   2   7   1    5.80    0.45
  -2   7  -2   50.62    2.34
   2   7   2   51.73    1.75
   2   7   3   24.31    1.25
   2   7   4   17.44    1.17
   2   7   5   43.65    2.11
   2   7   6    3.27    0.62
   2   7   7    6.73    0.96
  -2   7  -7    5.16    0.99
  -2   7  -8    7.13    1.19
   2   7   8    7.52    1.08
   2   7   9   -0.01    0.23
  -2   7  -9   -0.20    0.31
  -2   8  10    1.38    0.60
  -2   8   9    3.99    0.89
  -2   8   8    3.74    0.82
  -2   8   7   13.08    1.43
  -2   8   6   29.61    2.05
  -2   8   5   20.97    1.62
  -2   8   4   87.10    3.40
  -2   8   3   42.05    2.17
  -2   8   2   35.35    1.92
  -2   8   1   13.16    1.12
  -2   8   0    6.93    0.82
   2   8   0    7.57    0.51
  -2   8  -1    2.17    0.48
   2   8   1    2.77    0.34
   2   8   2   15.81    0.92
  -2   8  -2   16.32    1.31
   2   8   3   19.28    1.13
   2   8   4    1.72    0.38
   2   8   5   13.00    1.12
   2   8   6   10.35    1.10
   2   8   7    5.04    0.83
  -2   8  -8    0.91    0.51
  -2   8  -9    4.14    1.00
  -2   9   9    0.87    0.45
  -2   9   8    0.00    0.27
  -2   9   7    7.05    1.08
  -2   9   6    6.26    0.98
  -2   9   5    0.86    0.39
  -2   9   4   13.73    1.29
  -2   9   3    4.21    0.72
  -2   9   2    5.94    0.81
  -2   9   1    8.30    0.95
  -2   9   0   22.05    1.54
  -2   9  -1   28.82    1.82
  -2   9  -2   11.03    1.13
  -2   9  -8   11.87    1.63
  -2  10   8    1.45    0.58
  -2  10   7    7.81    1.15
  -2  10   6   10.90    1.29
  -2  10   5   14.64    1.45
  -2  10   4   14.71    1.39
  -2  10   3   14.36    1.34
  -2  10   2   10.28    1.10
  -2  10   1    1.22    0.42
  -2  10   0    8.06    0.97
  -2  10  -1    3.85    0.71
  -2  11   7    9.38    1.28
  -2  11   6    1.43    0.50
  -2  11   5    6.87    1.02
  -2  11   4    2.60    0.63
  -2  11   3    4.55    0.79
  -2  11   2    0.82    0.40
  -2  11   1    2.79    0.59
  -2  11   0    3.32    0.68
  -2  11  -1   14.03    1.36
  -2  12   5    4.12    0.82
  -2  12   4    6.46    0.99
  -2  12   3    7.15    1.00
  -2  12   2    9.82    1.18
  -2  12   1   11.64    1.27
  -2  12   0    2.09    0.56
  -2  12  -1    1.17    0.46
   3 -13  -4    4.74    1.03
  -3 -13   3    7.68    1.32
   3 -13  -3    8.04    1.31
   3 -13  -2    3.45    0.88
  -3 -13   2    7.92    1.31
   3 -13  -1    2.18    0.68
  -3 -13   1    2.71    0.82
  -3 -13   0    2.30    0.71
  -3 -13  -1   10.34    1.50
  -3 -13  -2    2.53    0.77
  -3 -13  -3    3.90    1.05
   3 -12  -5    3.87    0.82
   3 -12  -5    3.52    0.86
   3 -12  -4    0.17    0.32
   3 -12  -4    1.21    0.53
  -3 -12   3    0.29    0.32
   3 -12  -3    0.81    0.47
  -3 -12   2    1.03    0.57
   3 -12  -2    1.71    0.57
   3 -12  -1    2.87    0.71
  -3 -12   1    1.97    0.70
  -3 -12   0    0.83    0.46
   3 -12   0   -0.05    0.21
  -3 -12  -1    6.13    1.12
  -3 -12  -2    3.63    0.94
  -3 -12  -3    9.29    1.44
  -3 -12  -4    9.51    1.48
   3 -11  -5    3.90    0.78
   3 -11  -4   19.88    1.76
  -3 -11   3    2.87    0.79
   3 -11  -3    4.87    0.89
   3 -11  -3    3.47    0.78
   3 -11  -2   10.07    1.27
  -3 -11   2    9.07    1.27
  -3 -11   1    0.22    0.31
   3 -11  -1    0.40    0.34
  -3 -11   0    2.71    0.73
   3 -11   0    4.18    0.75
   3 -11   1    1.05    0.39
  -3 -11  -1    0.54    0.41
  -3 -11  -2    2.86    0.76
  -3 -11  -3    1.78    0.68
  -3 -11  -4    1.96    0.68
  -3 -11  -5    4.01    0.96
  -3 -11  -6    8.83    1.42
   3 -10  -6   13.03    1.37
   3 -10  -5   15.41    1.49
   3 -10  -4    2.31    0.58
  -3 -10   3    0.99    0.47
   3 -10  -3    1.15    0.45
  -3 -10   2    0.60    0.39
   3 -10  -2    0.47    0.36
   3 -10  -1   21.77    1.70
  -3 -10   1   24.61    1.97
  -3 -10   0    2.00    0.59
   3 -10   0    1.24    0.40
   3 -10   1   18.31    1.41
  -3 -10  -1   16.45    1.66
  -3 -10  -2   26.98    2.20
  -3 -10  -3    5.82    1.04
  -3 -10  -4    1.65    0.58
  -3 -10  -5    4.39    0.97
  -3 -10  -6    6.73    1.18
  -3 -10  -7    1.51    0.60
   3  -9  -7    7.78    1.04
   3  -9  -6   26.39    1.89
   3  -9  -5   31.38    2.06
   3  -9  -4    2.63    0.62
  -3  -9   3   14.18    1.45
   3  -9  -3   13.25    1.31
  -3  -9   2    7.54    1.04
   3  -9  -2    9.17    1.10
  -3  -9   1    4.39    0.78
   3  -9  -1    6.22    0.91
   3  -9   0    8.29    0.94
  -3  -9   0    9.27    1.16
   3  -9   0    9.18    0.79
   3  -9   1    1.64    0.42
  -3  -9  -1    0.91    0.43
   3  -9   2    5.66    0.69
  -3  -9  -2    4.84    0.89
  -3  -9  -3    2.01    0.61
  -3  -9  -4    0.66    0.38
  -3  -9  -5    4.00    0.90
  -3  -9  -6   18.08    1.84
  -3  -9  -7    3.90    0.90
   3  -8  -8    0.04    0.21
   3  -8  -7    1.01    0.40
   3  -8  -6   11.17    1.18
   3  -8  -5   11.82    1.19
   3  -8  -4   19.09    1.50
   3  -8  -3    5.25    0.80
  -3  -8   3    3.85    0.73
  -3  -8   2   46.40    2.47
   3  -8  -2   42.13    2.31
  -3  -8   1   34.63    2.12
   3  -8  -1   33.89    2.04
  -3  -8   0    7.53    1.01
   3  -8   0    7.98    0.84
   3  -8   0    9.19    1.06
   3  -8   1   12.96    1.06
  -3  -8  -1   12.95    1.32
   3  -8   1   13.88    0.99
   3  -8   2   33.66    1.66
  -3  -8  -2   32.03    2.14
   3  -8   2   34.58    1.63
   3  -8   3    5.13    0.66
  -3  -8  -3    4.71    0.84
  -3  -8  -4    8.32    1.13
   3  -8   4    9.91    0.98
   3  -8   5    8.18    0.97
  -3  -8  -5    8.03    1.14
  -3  -8  -6   11.03    1.36
   3  -8   6    7.24    0.98
  -3  -8  -7    7.16    1.16
  -3  -8  -8   -0.17    0.25
   3  -7  -8   32.94    2.12
   3  -7  -7   19.28    1.55
   3  -7  -6   29.31    1.87
   3  -7  -5   22.65    1.61
   3  -7  -4   39.68    2.12
  -3  -7   3    7.76    0.98
   3  -7  -3    8.21    0.93
  -3  -7   2   44.50    2.30
   3  -7  -2   40.12    2.14
  -3  -7   1    0.44    0.28
   3  -7  -1    0.09    0.23
   3  -7   0    2.51    0.55
  -3  -7   0    2.32    0.54
   3  -7   1    3.62    0.50
   3  -7   1    4.09    0.54
   3  -7   2    4.08    0.48
  -3  -7  -2    2.85    0.60
   3  -7   2    4.09    0.57
  -3  -7  -3   71.57    3.21
   3  -7   3   71.18    2.70
  -3  -7  -4    2.81    0.61
   3  -7   4    2.60    0.53
  -3  -7  -5    6.67    0.97
   3  -7   5    7.16    0.91
  -3  -7  -6    2.74    0.67
   3  -7   6    2.21    0.57
  -3  -7  -7    2.85    0.66
   3  -7   7    2.87    0.68
  -3  -7  -8    0.76    0.41
   3  -6  -9    7.32    1.01
   3  -6  -8    3.67    0.70
   3  -6  -7   10.32    1.09
   3  -6  -6   22.71    1.60
   3  -6  -5    3.60    0.62
   3  -6  -4   14.86    1.21
   3  -6  -3   19.56    1.37
   3  -6  -2  111.83    3.55
  -3  -6   2  108.28    3.60
   3  -6  -1    4.19    0.64
  -3  -6   1    4.86    0.69
  -3  -6   0   10.85    1.04
   3  -6   0   11.90    1.07
  -3  -6  -1   33.79    1.93
   3  -6   1   36.45    1.63
   3  -6   1   35.70    1.94
  -3  -6  -2   96.89    3.54
   3  -6   2   90.98    3.05
   3  -6   2   95.92    2.59
  -3  -6  -3    1.22    0.41
   3  -6   3    0.86    0.18
   3  -6   3    0.49    0.25
   3  -6   4   18.50    1.36
  -3  -6  -4   18.05    1.46
  -3  -6  -5   36.89    2.20
   3  -6   5   35.95    2.07
  -3  -6  -6    5.03    0.84
   3  -6   6    6.37    0.90
   3  -6   7   12.60    1.38
  -3  -6  -7   11.75    1.31
  -3  -6  -8    0.18    0.26
  -3  -5  11    2.07    0.70
   3  -5 -10    3.37    0.73
   3  -5  -9    6.66    0.96
   3  -5  -8    9.15    1.05
   3  -5  -7   10.08    1.07
   3  -5  -6   10.17    1.02
   3  -5  -5   48.78    2.28
   3  -5  -4   21.85    1.42
   3  -5  -3   63.90    2.53
  -3  -5   2   23.88    0.70
  -3  -5   2   23.21    1.47
   3  -5  -2   26.07    1.49
  -3  -5   2   23.77    0.69
   3  -5  -1   11.52    0.98
  -3  -5   1   13.70    1.08
   3  -5   0    5.19    0.67
  -3  -5   0    5.42    0.68
   3  -5   1   86.82    3.09
   3  -5   1   87.75    2.79
  -3  -5  -1   93.84    3.20
   3  -5   2    4.55    0.38
  -3  -5  -2    5.05    0.67
   3  -5   2    5.39    0.63
   3  -5   3   35.74    1.78
  -3  -5  -3   33.59    1.86
   3  -5   4   47.40    2.25
  -3  -5  -4   47.94    2.33
  -3  -5  -5    8.36    0.96
   3  -5   5    6.69    0.87
  -3  -5  -6   18.21    1.48
   3  -5   6   17.06    1.51
   3  -5   7    6.44    1.01
  -3  -5  -7    7.48    0.98
   3  -5   8   15.08    1.63
  -3  -5  -8   14.83    1.42
  -3  -4  11    0.10    0.39
   3  -4 -10    6.60    0.99
   3  -4  -9    2.89    0.65
   3  -4  -8    0.59    0.32
   3  -4  -7   11.85    1.16
   3  -4  -6    5.22    0.75
   3  -4  -5    4.99    0.68
   3  -4  -4   14.24    1.09
  -3  -4   3   21.92    0.94
   3  -4  -3   24.13    1.39
  -3  -4   2    1.86    0.39
  -3  -4   2    2.21    0.19
   3  -4  -2    2.27    0.44
  -3  -4   1   64.71    2.42
   3  -4  -1   61.43    2.33
   3  -4   0   62.75    2.36
  -3  -4   0   65.46    2.41
   3  -4   1  106.32    3.34
  -3  -4  -1  108.83    3.38
   3  -4   1  109.06    3.17
   3  -4   2   40.76    1.15
  -3  -4  -2   43.02    1.94
   3  -4   3   18.00    1.23
  -3  -4  -3   16.93    1.20
   3  -4   4   28.19    1.67
  -3  -4  -4   28.20    1.62
  -3  -4  -5   43.95    2.16
   3  -4   5   48.48    2.41
   3  -4   6   27.09    1.90
  -3  -4  -6   26.47    1.69
   3  -4   7    8.30    1.12
  -3  -4  -7    8.91    1.01
   3  -4   8    1.70    0.63
  -3  -3  12    0.43    0.54
   3  -3 -11    0.62    0.39
  -3  -3  11    0.36    0.38
  -3  -3  10    4.06    0.87
   3  -3 -10    4.36    0.82
   3  -3  -9   10.56    1.21
  -3  -3   9   11.24    1.30
   3  -3  -8   10.70    1.14
   3  -3  -7   17.67    1.39
   3  -3  -6   29.09    1.71
   3  -3  -5   33.36    1.76
  -3  -3   4   16.38    0.94
   3  -3  -4   14.92    1.09
   3  -3  -3   10.64    0.86
  -3  -3   3    8.43    0.56
  -3  -3   2   95.95    2.17
   3  -3  -2   93.22    2.91
   3  -3  -1   92.82    2.86
  -3  -3   1   95.01    2.94
  -3  -3   0   14.30    0.96
   3  -3   0   15.97    1.00
  -3  -3  -1  128.07    3.53
   3  -3   1  125.43    3.47
   3  -3   1  121.68    3.49
   3  -3   2   16.26    1.06
   3  -3   2   16.51    1.10
  -3  -3  -2   15.39    1.02
  -3  -3  -2   16.16    1.15
  -3  -3  -3    1.89    0.46
  -3  -3  -3    1.61    0.34
   3  -3   3    1.16    0.35
  -3  -3  -4   21.15    1.29
   3  -3   4   19.89    1.39
  -3  -3  -4   21.45    1.55
   3  -3   5   26.14    1.73
  -3  -3  -5   24.90    1.45
  -3  -3  -5   24.60    1.78
   3  -3   6   33.19    2.11
  -3  -3  -6   32.91    2.20
  -3  -3  -6   31.26    1.73
  -3  -3  -7    2.91    0.53
   3  -3   7    2.43    0.67
  -3  -3  -7    2.85    0.69
   3  -3   8   10.87    1.38
  -3  -3  -8    9.83    1.37
  -3  -2  12    2.36    0.83
  -3  -2  11    0.46    0.41
   3  -2 -11    0.29    0.46
   3  -2 -10    1.89    0.57
  -3  -2  10    1.03    0.49
   3  -2  -9   15.90    1.48
  -3  -2   9   16.13    1.57
  -3  -2   8    5.56    0.84
   3  -2  -8    4.34    0.75
   3  -2  -7    0.39    0.34
  -3  -2   7    0.98    0.40
   3  -2  -6    1.06    0.34
  -3  -2   6    1.15    0.37
  -3  -2   5   26.29    1.41
   3  -2  -5   26.85    1.54
   3  -2  -4    5.48    0.64
  -3  -2   4    4.35    0.50
   3  -2  -3   29.42    1.46
  -3  -2   3   27.98    1.31
  -3  -2   3   29.92    1.18
  -3  -2   2   19.76    1.08
   3  -2  -2   18.32    1.07
  -3  -2   2   18.21    0.75
   3  -2  -1   80.93    2.50
  -3  -2   1   83.87    1.90
   3  -2   0   48.78    1.75
  -3  -2   0   45.65    1.73
  -3  -2   0   45.96    1.66
  -3  -2  -1   11.13    0.77
   3  -2   1   10.64    0.80
  -3  -2  -1   11.39    0.84
   3  -2   1   12.74    0.83
  -3  -2  -2   28.53    1.29
  -3  -2  -2   29.72    1.53
   3  -2   2   27.31    1.30
   3  -2   2   29.00    1.46
   3  -2   3   29.94    1.60
  -3  -2  -3   32.49    1.73
  -3  -2  -3   30.49    1.39
   3  -2   4  102.06    3.42
  -3  -2  -4   97.76    2.86
  -3  -2  -4   94.57    3.43
  -3  -2  -5   18.45    1.14
  -3  -2  -5   18.33    1.51
   3  -2   5   19.22    1.47
   3  -2   6    7.00    0.97
  -3  -2  -6    6.30    0.69
  -3  -2  -6    7.16    1.01
   3  -2   7    0.43    0.33
  -3  -2  -7    0.74    0.26
   3  -2   8    5.30    0.98
  -3  -2  -8    7.13    1.12
  -3  -2  -9    1.55    0.64
  -3  -2 -10    1.59    0.66
  -3  -1  12    0.49    0.50
   3  -1 -12    0.30    0.34
   3  -1 -11    4.15    0.89
  -3  -1  11    4.39    1.00
  -3  -1  10    2.52    0.67
   3  -1 -10    1.68    0.56
   3  -1  -9   14.79    1.45
  -3  -1   9   15.82    1.56
  -3  -1   8   11.64    1.23
   3  -1  -8   11.55    1.20
   3  -1  -7   44.13    2.30
  -3  -1   7   46.04    2.33
  -3  -1   6  116.04    2.98
   3  -1  -6  117.18    3.84
  -3  -1   6  111.61    3.72
  -3  -1   5   89.30    2.53
  -3  -1   5   89.10    2.96
   3  -1  -5   88.91    3.10
  -3  -1   4   53.15    1.81
   3  -1  -4   55.29    2.14
  -3  -1   4   52.00    1.93
  -3  -1   3   21.21    1.06
  -3  -1   3   20.35    0.99
   3  -1  -3   19.71    1.13
  -3  -1   2   16.53    0.95
  -3  -1   2   17.85    0.81
   3  -1  -2   16.43    0.97
  -3  -1   1    8.89    0.51
  -3  -1   1    9.00    0.69
   3  -1  -1    8.54    0.64
  -3  -1   1    9.27    0.53
  -3  -1   0   47.49    1.41
   3  -1   0   46.97    1.61
  -3  -1   0   48.90    1.63
  -3  -1   0   48.78    1.80
   3  -1   1  131.11    3.50
   3  -1   1  130.79    3.25
  -3  -1  -1  128.93    2.89
  -3  -1  -1  131.36    3.24
   3  -1   1  131.54    2.90
  -3  -1  -1  130.12    3.53
  -3  -1  -1  131.73    3.52
  -3  -1  -2   42.30    1.14
   3  -1   2   40.18    1.73
  -3  -1  -2   41.89    1.79
  -3  -1  -2   41.87    1.41
   3  -1   2   41.99    1.47
  -3  -1  -3   23.64    0.86
  -3  -1  -3   23.43    1.07
   3  -1   3   24.09    1.41
  -3  -1  -3   26.59    1.53
  -3  -1  -4   10.40    0.71
   3  -1   4   11.65    1.05
  -3  -1  -4    9.18    0.98
  -3  -1  -5   20.64    1.10
  -3  -1  -5   22.72    1.64
  -3  -1  -6    5.03    0.55
   3  -1   6    5.93    0.91
  -3  -1  -6    5.08    0.84
   3  -1   7    9.05    1.19
  -3  -1  -7    8.40    1.13
   3  -1   8    0.50    0.44
  -3  -1  -8    1.56    0.55
  -3  -1  -9    3.27    0.79
  -3  -1 -10    2.76    0.82
   3   0 -12    5.61    1.07
  -3   0  12    5.32    1.11
  -3   0  11    0.08    0.39
   3   0 -11    0.80    0.45
  -3   0  10    1.33    0.59
   3   0 -10    1.06    0.53
  -3   0   9    4.97    0.91
  -3   0   8    1.31    0.48
  -3   0   7    3.52    0.64
  -3   0   7    3.38    0.38
  -3   0   6   24.42    1.54
  -3   0   5    4.47    0.59
  -3   0   4    6.76    0.65
  -3   0   3    5.77    0.54
   3   0  -3    4.79    0.55
  -3   0   2   64.20    1.91
  -3   0   2   62.45    1.45
   3   0  -2   63.50    2.06
  -3   0   1   24.50    0.92
  -3   0   1   25.84    1.02
   3   0  -1   24.21    1.06
   3   0   0   41.21    1.37
  -3   0   0   40.17    1.38
  -3   0   0   38.14    1.54
  -3   0   0   40.45    1.44
   3   0   1  281.09    6.27
  -3   0  -1  278.99    6.22
  -3   0  -1  271.81    6.25
   3   0   1  285.21    5.80
   3   0   2   73.79    2.03
  -3   0  -2   77.86    2.40
   3   0   2   74.84    2.54
  -3   0  -2   75.75    1.98
  -3   0  -2   72.54    2.56
  -3   0  -3   62.56    1.72
  -3   0  -3   61.22    2.48
  -3   0  -3   63.78    2.16
   3   0   3   65.93    2.48
  -3   0  -4   15.05    0.73
   3   0   4   16.28    1.25
  -3   0  -4   15.24    1.24
   3   0   5   14.85    1.30
  -3   0  -5   14.04    0.74
  -3   0  -5   13.03    1.24
  -3   0  -6    5.52    0.87
  -3   0  -6    4.18    0.42
   3   0   6    3.78    0.74
  -3   0  -7    0.10    0.29
   3   0   7    0.11    0.32
  -3   0  -8    3.63    0.82
  -3   0  -9   -0.10    0.28
  -3   0 -10    3.14    0.87
   3   1 -12   -0.69    0.48
  -3   1  12    0.68    0.64
  -3   1  11    3.95    0.94
  -3   1  10    2.50    0.76
  -3   1   9   12.65    1.42
   3   1  -8   11.37    0.82
  -3   1   8    9.65    1.17
  -3   1   7   46.78    2.42
   3   1  -7   48.89    1.68
   3   1  -6  116.81    2.79
  -3   1   6  115.93    3.86
  -3   1   5   84.63    2.98
   3   1  -5   87.57    1.98
  -3   1   4   54.62    2.10
  -3   1   4   55.81    1.46
  -3   1   3   18.98    1.06
  -3   1   2   17.04    0.93
   3   1  -2   17.28    0.58
  -3   1   1    8.74    0.63
   3   1  -1    9.16    0.61
  -3   1   0   47.07    1.65
   3   1   0   48.66    1.45
   3   1   1  135.48    2.95
  -3   1  -1  130.26    3.46
   3   1   1  137.93    3.56
  -3   1  -1  131.96    3.59
   3   1   2   38.77    1.70
  -3   1  -2   43.39    1.87
  -3   1  -3   24.79    1.21
  -3   1  -3   25.53    1.51
   3   1   3   23.98    1.41
   3   1   4    9.83    0.97
  -3   1  -4   10.59    0.76
  -3   1  -4    9.65    1.00
  -3   1  -5   18.18    0.63
   3   1   5   23.14    1.61
  -3   1  -5   22.00    1.61
  -3   1  -6    5.91    0.91
   3   1   6    5.24    0.87
  -3   1  -7    9.19    1.19
   3   1   7    9.25    1.19
  -3   1  -8    0.98    0.48
  -3   1  -9    3.72    0.84
  -3   1 -10    2.84    0.80
  -3   2  12    2.97    0.87
  -3   2  11   -0.33    0.45
  -3   2  10    1.41    0.61
  -3   2   9   14.83    1.56
  -3   2   8    5.25    0.87
  -3   2   7    0.24    0.29
   3   2  -7    0.26    0.12
  -3   2   6    1.52    0.46
   3   2  -6    1.11    0.21
  -3   2   5   26.79    1.56
   3   2  -5   29.35    0.97
  -3   2   4    5.27    0.63
  -3   2   3   28.73    1.40
  -3   2   2   17.57    1.02
   3   2  -2   19.59    0.75
   3   2  -1   83.73    1.89
  -3   2   1   82.01    2.50
   3   2   0   46.47    1.60
  -3   2   0   45.64    1.70
   3   2   0   46.95    1.36
  -3   2  -1   12.22    0.86
   3   2   1   10.48    0.76
   3   2   1   11.89    0.49
   3   2   2   26.77    1.37
   3   2   3   32.26    1.64
  -3   2  -3   31.01    1.72
  -3   2  -4   95.53    2.78
   3   2   4   94.95    3.37
  -3   2  -4   90.60    3.46
  -3   2  -5   16.82    0.95
   3   2   5   15.66    1.34
  -3   2  -5   17.87    1.47
   3   2   6    6.92    1.01
  -3   2  -6    8.69    1.12
  -3   2  -7    0.46    0.35
   3   2   7    0.96    0.46
  -3   2  -8    8.25    1.21
  -3   2  -9    2.70    0.73
  -3   2 -10    1.39    0.65
  -3   3  12    0.09    0.40
  -3   3  11    1.74    0.75
  -3   3  10    4.77    0.96
  -3   3   9   10.53    1.32
  -3   3   8   14.50    1.46
  -3   3   7   17.16    1.47
   3   3  -7   16.05    0.95
  -3   3   6   28.07    1.77
   3   3  -6   31.40    1.27
  -3   3   5   34.89    1.86
  -3   3   4   14.47    1.09
  -3   3   3    9.17    0.81
  -3   3   2   94.18    2.89
  -3   3   1   96.78    2.92
   3   3   0   14.24    0.46
   3   3   0   15.15    0.82
  -3   3   0   14.71    0.97
   3   3   1  124.71    2.60
  -3   3  -1  122.85    3.55
   3   3   1  124.78    3.32
   3   3   2   14.81    1.00
  -3   3  -2   16.02    1.11
   3   3   3    1.32    0.36
   3   3   4   23.38    1.51
  -3   3  -4   21.17    1.55
  -3   3  -5   23.61    1.17
   3   3   5   20.91    1.57
  -3   3  -5   21.83    1.67
   3   3   6   39.16    2.34
  -3   3  -6   36.95    2.34
  -3   3  -7    3.29    0.73
  -3   3  -8    8.98    1.28
  -3   3  -9    9.27    1.37
  -3   3 -10    8.91    1.40
  -3   4  11    1.13    0.63
  -3   4  10    5.76    1.07
  -3   4   9    1.98    0.63
  -3   4   8    0.81    0.42
  -3   4   7   13.51    1.34
   3   4  -7   14.17    0.95
  -3   4   6    4.36    0.72
  -3   4   5    5.58    0.76
  -3   4   4   13.73    1.10
  -3   4   3   21.48    1.32
  -3   4   2    2.60    0.44
  -3   4   1   65.05    2.37
  -3   4   0   62.74    2.33
   3   4   0   61.88    1.90
   3   4   1  108.39    2.97
   3   4   1  106.64    2.42
  -3   4  -1  107.21    3.35
  -3   4  -2   47.63    2.14
   3   4   2   54.36    2.04
   3   4   3   16.83    1.17
   3   4   4   29.47    1.73
   3   4   5   40.53    2.24
  -3   4  -5   42.14    2.43
  -3   4  -6   23.25    1.88
  -3   4  -7    8.96    1.24
  -3   4  -8    2.16    0.68
  -3   4  -9    1.15    0.56
   3   4   9    2.25    0.72
  -3   4 -10    2.93    0.84
   3   4  10    3.50    0.90
  -3   5  11    1.79    0.78
  -3   5  10    3.82    0.94
  -3   5   9    4.83    0.95
  -3   5   8    8.37    1.16
  -3   5   7    9.84    1.17
   3   5  -7    8.78    0.80
  -3   5   6   12.39    1.23
  -3   5   5   46.76    2.33
  -3   5   4   23.64    1.53
  -3   5   3   61.80    2.50
  -3   5   2   24.05    1.43
   3   5  -1   13.26    0.66
  -3   5   1   12.83    1.02
   3   5   0    6.26    0.49
  -3   5   0    6.09    0.71
  -3   5  -1   92.39    3.16
   3   5   1   91.51    2.07
   3   5   1   91.20    2.64
   3   5   2    4.43    0.55
   3   5   2    4.85    0.43
  -3   5  -2    5.84    0.74
   3   5   3   35.87    1.77
   3   5   3   35.36    1.52
   3   5   4   45.02    2.19
   3   5   4   44.15    1.94
   3   5   5    8.02    0.87
   3   5   6   18.00    1.45
  -3   5  -6   19.57    1.76
   3   5   7    6.78    0.96
  -3   5  -7    6.89    1.13
   3   5   8   12.76    1.42
  -3   5  -8   13.98    1.64
  -3   5  -9    3.97    0.93
   3   5   9    4.00    0.85
  -3   6  11    0.71    0.45
  -3   6  10    4.84    1.01
  -3   6   9    7.13    1.16
  -3   6   8    3.69    0.83
  -3   6   7   11.86    1.32
  -3   6   6   22.37    1.70
  -3   6   5    3.52    0.67
  -3   6   4   15.47    1.27
  -3   6   3   20.71    1.42
  -3   6   2  110.36    3.64
   3   6  -2  108.49    2.44
   3   6  -1    4.70    0.34
  -3   6   1    4.28    0.63
   3   6   0   10.81    0.64
  -3   6   0   11.53    1.03
  -3   6  -1   31.69    1.78
   3   6   1   31.46    0.92
   3   6   1   34.11    1.38
  -3   6  -2   99.21    3.57
   3   6   2   98.64    2.56
   3   6   2  101.17    3.04
   3   6   3    1.10    0.27
   3   6   3    1.21    0.34
   3   6   4   17.65    1.16
   3   6   5   35.23    1.88
  -3   6  -6    4.32    0.93
   3   6   6    4.18    0.70
   3   6   7   13.33    1.36
  -3   6  -7   15.94    1.72
   3   6   8    0.07    0.25
  -3   6  -8    0.35    0.38
  -3   6  -9    0.15    0.47
   3   6   9    0.64    0.39
  -3   7  10    4.12    0.94
  -3   7   9   13.32    1.61
  -3   7   8   29.16    2.25
  -3   7   7   20.10    1.77
  -3   7   6   26.14    1.92
  -3   7   5   23.17    1.71
  -3   7   4   38.30    2.14
  -3   7   3    7.25    0.89
  -3   7   2   42.37    2.15
  -3   7   1    0.10    0.18
  -3   7   0    3.18    0.57
   3   7   1    3.15    0.24
  -3   7  -1    3.02    0.57
   3   7   2    3.48    0.36
  -3   7  -2    3.59    0.64
   3   7   3   69.62    2.28
   3   7   4    3.18    0.49
   3   7   5    5.99    0.74
   3   7   6    2.02    0.51
   3   7   7    3.28    0.70
  -3   7  -7    2.44    0.78
  -3   7  -8    1.74    0.68
  -3   7  -9   15.19    1.87
  -3   8  10    4.33    1.03
  -3   8   9    2.95    0.79
  -3   8   8    0.73    0.49
  -3   8   7    0.59    0.57
  -3   8   6   12.80    1.37
  -3   8   5   14.65    1.39
  -3   8   4   19.01    1.54
  -3   8   3    3.87    0.68
  -3   8   2   45.56    2.33
  -3   8   1   37.47    2.08
  -3   8   0    7.71    0.92
  -3   8  -1   14.75    1.30
  -3   8  -2   29.87    1.94
  -3   8  -7    5.84    1.15
  -3   8  -8    1.83    0.72
  -3   9   9   12.06    1.57
  -3   9   8    0.65    0.44
  -3   9   7    7.28    1.12
  -3   9   6   27.82    2.09
  -3   9   5   31.55    2.15
  -3   9   4    3.03    0.69
  -3   9   3   15.77    1.43
  -3   9   2   10.03    1.11
  -3   9   1    3.81    0.69
  -3   9   0    8.69    1.04
  -3   9  -1    1.57    0.48
  -3   9  -2    4.83    0.80
  -3  10   8    0.10    0.32
  -3  10   7   -0.02    0.32
  -3  10   6   10.98    1.34
  -3  10   5   15.69    1.55
  -3  10   4    2.52    0.67
  -3  10   3    1.33    0.47
  -3  10   2    0.70    0.30
  -3  10   1   22.67    1.75
  -3  10   0    0.77    0.44
  -3  10  -1   18.07    1.58
  -3  10  -2   32.19    2.19
  -3  11   7    1.73    0.65
  -3  11   6   20.08    1.88
  -3  11   5    2.63    0.70
  -3  11   4   19.22    1.73
  -3  11   3    3.55    0.73
  -3  11   2    9.91    1.20
  -3  11   1    0.08    0.36
  -3  11   0    3.43    0.75
  -3  11  -1    0.38    0.36
  -3  12   6    2.24    0.68
  -3  12   5    5.54    0.99
  -3  12   4    0.45    0.33
  -3  12   3    0.57    0.41
  -3  12   2    2.73    0.70
  -3  12   1    1.96    0.64
  -3  12   0    0.87    0.44
  -3  12  -1    6.54    1.06
  -3  13   4    4.58    0.90
  -3  13   3    7.48    1.14
  -3  13   2    7.19    1.11
  -3  13   1    2.68    0.68
  -3  13   0    1.41    0.53
  -3  13  -1    9.10    1.25
  -4 -13   3    3.69    0.91
   4 -13  -3    2.71    0.78
  -4 -13   2    5.44    1.13
   4 -13  -2    7.27    1.17
  -4 -13   1    2.52    0.77
  -4 -13   0    2.82    0.90
  -4 -13  -1    5.54    1.14
   4 -12  -6   12.72    1.54
   4 -12  -5    1.88    0.66
   4 -12  -4    0.52    0.41
  -4 -12   3    0.45    0.47
   4 -12  -3    1.73    0.65
   4 -12  -3    0.74    0.43
  -4 -12   2   -0.28    0.29
   4 -12  -2    0.21    0.26
  -4 -12   1    5.64    1.09
   4 -12  -1    5.42    0.94
  -4 -12   0    0.68    0.49
  -4 -12  -1    9.07    1.38
  -4 -12  -2    9.68    1.46
  -4 -12  -3    9.71    1.49
   4 -11  -6    2.09    0.66
   4 -11  -5    1.03    0.49
   4 -11  -4    4.75    0.91
   4 -11  -3    6.20    1.04
  -4 -11   3    5.45    1.07
   4 -11  -2    0.15    0.40
  -4 -11   2    0.74    0.46
   4 -11  -2    0.37    0.34
   4 -11  -1    8.60    1.12
  -4 -11   1    8.90    1.29
   4 -11   0    7.67    1.02
  -4 -11   0    8.36    1.26
  -4 -11  -1    6.20    1.10
  -4 -11  -2    8.47    1.34
  -4 -11  -3    4.52    1.07
  -4 -11  -4   13.41    1.70
  -4 -11  -5    9.48    1.47
   4 -10  -7    2.22    0.64
   4 -10  -6   11.57    1.37
   4 -10  -5    1.87    0.61
   4 -10  -4    7.09    1.06
  -4 -10   3   -0.12    0.27
   4 -10  -3    0.03    0.27
   4 -10  -2    1.84    0.59
  -4 -10   2    2.88    0.76
   4 -10  -1    1.20    0.53
  -4 -10   1    0.32    0.32
   4 -10  -1    1.23    0.43
   4 -10   0   20.37    1.53
  -4 -10   0   17.51    1.75
  -4 -10  -1    1.28    0.58
  -4 -10  -2    7.50    1.21
  -4 -10  -3    3.68    0.91
  -4 -10  -4    8.72    1.33
  -4 -10  -5   13.06    1.66
  -4 -10  -6    0.87    0.48
   4  -9  -8    2.41    0.62
   4  -9  -7    3.45    0.75
   4  -9  -6   12.88    1.40
   4  -9  -5   11.76    1.32
   4  -9  -4   10.59    1.24
   4  -9  -3    3.94    0.79
  -4  -9   3    3.05    0.73
   4  -9  -2    1.03    0.46
  -4  -9   2    1.21    0.48
   4  -9  -1   51.25    2.80
  -4  -9   1   48.86    2.81
   4  -9   0   29.15    1.78
   4  -9   0   32.01    1.72
  -4  -9   0   30.09    2.18
   4  -9   0   30.47    2.15
   4  -9   1    4.50    0.65
  -4  -9  -1    6.04    1.00
   4  -9   1    5.61    0.73
  -4  -9  -2   17.46    1.68
  -4  -9  -3    4.92    0.94
  -4  -9  -4    0.89    0.55
  -4  -9  -5   -0.63    0.40
  -4  -9  -6    0.38    0.37
  -4  -9  -7   -0.07    0.31
   4  -8  -8   20.20    1.75
   4  -8  -7   11.44    1.29
   4  -8  -6    5.13    0.85
   4  -8  -5   16.00    1.47
   4  -8  -4    1.87    0.54
   4  -8  -3    3.40    0.70
  -4  -8   3    3.62    0.75
   4  -8  -2    9.38    1.12
  -4  -8   2    9.64    1.16
   4  -8  -1    3.84    0.72
  -4  -8   1    3.91    0.74
   4  -8   0   24.42    1.82
  -4  -8   0   24.25    1.85
   4  -8   1   18.98    1.22
  -4  -8  -1   20.00    1.69
   4  -8   1   17.03    1.25
   4  -8   2    2.94    0.55
  -4  -8  -2    3.63    0.76
   4  -8   3   15.41    1.28
  -4  -8  -3   13.92    1.48
   4  -8   4   10.96    1.13
  -4  -8  -4    7.97    1.15
  -4  -8  -5    1.71    0.62
   4  -8   5    2.29    0.58
   4  -8   6    3.55    0.77
  -4  -8  -6    5.45    0.98
  -4  -8  -7    3.78    0.85
   4  -7  -9   -0.11    0.24
   4  -7  -8    8.28    1.11
   4  -7  -7   -0.04    0.31
   4  -7  -6    0.89    0.43
   4  -7  -5    8.23    1.02
   4  -7  -4   93.69    3.69
   4  -7  -3    7.61    0.96
   4  -7  -2   30.68    1.95
  -4  -7   2   30.96    2.00
   4  -7  -1   56.48    2.72
  -4  -7   1   59.17    2.82
   4  -7   0   27.11    1.83
  -4  -7   0   27.33    1.85
  -4  -7  -1   16.11    1.45
   4  -7   1   18.97    1.30
   4  -7   1   18.77    1.53
  -4  -7  -2   19.28    1.60
   4  -7   2   20.55    1.42
   4  -7   3   16.27    1.30
  -4  -7  -3   14.49    1.40
   4  -7   4    3.72    0.66
  -4  -7  -4    3.69    0.72
  -4  -7  -5    3.40    0.74
   4  -7   5    4.33    0.78
  -4  -7  -6    1.55    0.55
   4  -7   6    0.99    0.46
  -4  -7  -7    3.59    0.80
   4  -7   7    4.39    0.87
   4  -7   8    0.88    0.55
  -4  -6  11    0.02    0.38
  -4  -6  10    2.97    0.75
   4  -6 -10    2.75    0.70
   4  -6  -9   34.57    2.33
  -4  -6   9   36.33    2.32
   4  -6  -8   32.49    2.20
  -4  -6   8   35.31    2.12
   4  -6  -7   21.14    1.67
  -4  -6   7   19.55    1.42
   4  -6  -6   14.92    1.38
  -4  -6   6   13.97    1.07
  -4  -6   5   43.17    1.77
   4  -6  -5   43.41    2.34
   4  -6  -4   26.74    1.74
  -4  -6   4   24.89    1.09
   4  -6  -3    7.32    0.90
  -4  -6   3    6.50    0.35
   4  -6  -2   20.08    1.49
  -4  -6   2   22.18    1.60
   4  -6  -1   48.00    2.34
  -4  -6   1   42.73    2.28
   4  -6   0   11.23    1.13
  -4  -6   0   13.64    1.22
   4  -6   1    5.26    0.78
   4  -6   1    5.52    0.70
  -4  -6  -1    5.93    0.82
   4  -6   2   38.49    1.37
  -4  -6  -2   40.54    2.23
   4  -6   2   39.37    2.00
  -4  -6  -3   27.53    1.85
   4  -6   3   28.75    1.74
  -4  -6  -4    0.56    0.32
   4  -6   4    0.67    0.36
  -4  -6  -5    1.60    0.48
   4  -6   5    1.06    0.45
  -4  -6  -6   18.97    1.64
   4  -6   6   17.23    1.61
  -4  -6  -7   21.21    1.78
   4  -6   7   19.02    1.79
   4  -6   8    2.29    0.69
  -4  -5  11    6.45    1.13
  -4  -5  10    0.97    0.55
   4  -5 -10    0.00    0.24
  -4  -5   9    6.49    0.98
   4  -5  -9    6.16    0.99
  -4  -5   8    0.07    0.27
   4  -5  -8    0.02    0.28
   4  -5  -7    6.29    0.91
  -4  -5   7    6.64    0.84
  -4  -5   6    5.94    0.70
   4  -5  -6    7.16    0.93
  -4  -5   5   12.55    0.90
   4  -5  -5   14.64    1.28
  -4  -5   4   27.65    1.19
   4  -5  -4   28.91    1.77
  -4  -5   3    2.70    0.26
   4  -5  -3    2.43    0.50
   4  -5  -2    4.57    0.67
   4  -5  -1   29.61    1.71
  -4  -5   1   26.75    1.67
   4  -5   0   19.89    1.41
  -4  -5   0   18.55    1.36
   4  -5   1   44.84    2.20
   4  -5   1   47.87    2.10
  -4  -5  -1   47.25    2.26
  -4  -5  -2   72.44    2.79
   4  -5   2   77.53    2.74
  -4  -5  -3   62.46    2.77
   4  -5   3   71.16    2.86
  -4  -5  -4    1.95    0.47
   4  -5   4    3.02    0.63
  -4  -5  -5    8.75    1.01
   4  -5   5    8.24    1.04
  -4  -5  -6    7.60    0.95
   4  -5   6    7.27    1.04
   4  -5   7    1.20    0.51
  -4  -5  -7    2.01    0.53
   4  -5   8    1.21    0.55
  -4  -4  11    1.83    0.72
   4  -4 -11    1.86    0.66
  -4  -4  10    5.15    0.95
   4  -4 -10    4.16    0.83
  -4  -4   9    4.99    0.88
   4  -4  -9    5.67    0.91
   4  -4  -8   43.13    2.51
  -4  -4   8   45.67    2.46
  -4  -4   7    9.10    0.97
   4  -4  -7    8.28    1.02
  -4  -4   6    7.58    0.81
   4  -4  -6    7.64    0.96
   4  -4  -5   37.56    2.02
  -4  -4   5   34.01    1.58
   4  -4  -4   20.93    1.44
  -4  -4   4   19.16    1.00
   4  -4  -3   14.84    1.17
  -4  -4   3   15.12    0.72
   4  -4  -2    0.32    0.21
  -4  -4   2    0.18    0.06
   4  -4  -1    3.42    0.54
  -4  -4   1    3.37    0.55
   4  -4   0   20.34    1.34
  -4  -4   0   23.26    1.43
  -4  -4  -1   29.27    1.63
   4  -4   1   31.50    1.64
   4  -4   1   30.89    1.67
   4  -4   2   22.90    1.44
  -4  -4  -2   21.44    1.39
   4  -4   2   20.44    1.38
   4  -4   3   75.68    2.96
  -4  -4  -3   69.21    2.76
   4  -4   4    2.23    0.53
  -4  -4  -4    2.79    0.53
  -4  -4  -5    3.51    0.60
   4  -4   5    3.07    0.70
  -4  -4  -6   25.12    1.67
   4  -4   6   23.13    1.87
   4  -4   7   12.62    1.48
  -4  -4  -7   12.10    1.19
   4  -4   8   11.17    1.47
  -4  -3  11    1.04    0.55
   4  -3 -11    1.62    0.57
   4  -3 -10    2.60    0.68
  -4  -3  10    3.02    0.75
  -4  -3   9    7.93    1.07
   4  -3  -9    6.41    0.98
  -4  -3   8   18.98    1.54
   4  -3  -8   17.77    1.56
  -4  -3   7   20.40    1.48
   4  -3  -7   21.14    1.61
  -4  -3   6   13.29    1.07
   4  -3  -6   14.27    1.24
  -4  -3   5    2.09    0.38
   4  -3  -5    2.70    0.53
  -4  -3   4    1.73    0.31
   4  -3  -4    2.32    0.49
   4  -3  -3    6.89    0.77
  -4  -3   3    7.58    0.53
   4  -3  -2   39.37    1.85
  -4  -3   2   39.39    1.18
   4  -3  -1   87.68    2.90
  -4  -3   1   85.46    1.94
   4  -3   0   23.51    1.34
  -4  -3   0   24.11    1.39
   4  -3   1    3.88    0.54
   4  -3   1    4.45    0.58
  -4  -3  -1    3.88    0.57
  -4  -3  -1    3.78    0.53
   4  -3   2   23.99    1.38
  -4  -3  -2   23.31    1.33
   4  -3   2   25.64    1.51
   4  -3   2   19.82    0.67
  -4  -3  -2   22.86    1.49
   4  -3   3   50.93    2.39
  -4  -3  -3   52.65    2.19
  -4  -3  -4   55.63    2.77
   4  -3   4   51.36    2.54
  -4  -3  -4   59.46    2.36
  -4  -3  -5   16.80    1.56
  -4  -3  -5   15.68    1.18
   4  -3   5   16.73    1.46
   4  -3   6    3.31    0.78
  -4  -3  -6    3.94    0.61
  -4  -3  -6    3.43    0.75
   4  -3   7    1.34    0.54
  -4  -3  -7    0.80    0.43
   4  -3   8    5.38    1.09
  -4  -3  -8    5.19    1.06
  -4  -3  -9    8.13    1.37
  -4  -2  12    5.28    1.12
   4  -2 -12    3.89    0.94
   4  -2 -11    2.45    0.73
  -4  -2  11    2.90    0.78
  -4  -2  10    2.22    0.68
   4  -2 -10    2.90    0.73
   4  -2  -9    9.25    1.18
  -4  -2   9   10.20    1.24
   4  -2  -8   17.89    1.56
  -4  -2   8   17.75    1.52
  -4  -2   7   43.79    2.24
   4  -2  -7   42.19    2.33
  -4  -2   6   56.54    2.41
   4  -2  -6   63.56    2.75
  -4  -2   5    8.66    0.77
   4  -2  -5    9.00    0.94
  -4  -2   5    8.26    0.78
  -4  -2   4    9.75    0.74
   4  -2  -4   11.71    1.02
  -4  -2   4    9.18    0.80
   4  -2  -3  105.48    3.41
  -4  -2   3  113.68    3.38
  -4  -2   3  106.19    2.82
  -4  -2   2    3.40    0.34
   4  -2  -2    3.18    0.48
  -4  -2   2    2.84    0.46
  -4  -2   1    3.86    0.34
   4  -2  -1    3.60    0.49
  -4  -2   1    3.64    0.41
  -4  -2   1    4.40    0.58
  -4  -2   0   72.28    2.62
   4  -2   0   67.69    2.38
  -4  -2   0   71.19    2.37
   4  -2   1   12.17    0.88
  -4  -2  -1   11.85    0.87
   4  -2   1   10.53    0.90
  -4  -2  -1   12.71    0.97
   4  -2   2   31.67    1.49
  -4  -2  -2   34.45    1.52
   4  -2   2   33.12    1.73
  -4  -2  -2   35.38    1.80
  -4  -2  -3   26.69    0.80
  -4  -2  -3   30.52    1.44
   4  -2   3   29.48    1.72
  -4  -2  -3   31.78    1.84
  -4  -2  -4   43.48    1.82
   4  -2   4   43.00    2.25
  -4  -2  -4   40.02    2.27
   4  -2   5   16.03    1.46
  -4  -2  -5   14.55    1.03
  -4  -2  -5   12.30    1.31
  -4  -2  -6    6.76    0.71
   4  -2   6    8.53    1.14
  -4  -2  -6    7.29    1.06
   4  -2   7    6.19    1.05
  -4  -2  -7    5.93    1.04
   4  -2   8    1.97    0.70
  -4  -2  -8    1.62    0.59
  -4  -2  -9   -0.03    0.31
   4  -1 -12    0.28    0.36
  -4  -1  12   -1.33    0.69
   4  -1 -11    2.35    0.70
  -4  -1  11    4.23    0.97
   4  -1 -10    2.79    0.72
  -4  -1  10    2.86    0.73
   4  -1  -9    0.77    0.44
  -4  -1   9    0.72    0.36
   4  -1  -8   16.30    1.49
  -4  -1   8   12.94    1.30
  -4  -1   7    2.63    0.40
  -4  -1   7    2.73    0.56
   4  -1  -7    2.52    0.63
   4  -1  -6   24.49    1.66
  -4  -1   6   28.62    1.64
  -4  -1   6   27.17    1.36
   4  -1  -5   54.11    2.37
  -4  -1   5   49.81    2.10
  -4  -1   5   52.04    2.02
  -4  -1   4   27.09    1.35
  -4  -1   4   27.75    1.41
   4  -1  -4   30.59    1.64
  -4  -1   3   37.56    1.69
   4  -1  -3   34.41    1.68
  -4  -1   2    6.89    0.54
  -4  -1   2    6.65    0.43
  -4  -1   2    7.76    0.73
   4  -1  -2    6.18    0.65
  -4  -1   1   98.64    3.11
   4  -1  -1   98.87    2.93
  -4  -1   1  100.04    2.65
  -4  -1   1   99.99    2.59
   4  -1   0   83.63    2.56
  -4  -1   0   82.68    2.32
  -4  -1   0   88.86    2.88
  -4  -1   0   82.41    2.57
   4  -1   1   55.44    1.93
  -4  -1  -1   54.52    2.19
  -4  -1  -1   54.13    2.13
   4  -1   1   51.05    2.11
   4  -1   2   14.38    0.90
   4  -1   2   14.68    1.13
  -4  -1  -2   14.70    1.07
  -4  -1  -2   14.80    0.93
  -4  -1  -2   16.18    1.18
   4  -1   3   11.28    1.04
  -4  -1  -3    9.88    0.73
  -4  -1  -3   10.82    1.05
  -4  -1  -4    9.68    0.71
   4  -1   4   10.47    1.08
  -4  -1  -4    8.44    1.01
  -4  -1  -5    0.94    0.25
   4  -1   5    1.24    0.52
  -4  -1  -5    0.55    0.31
   4  -1   6    4.10    0.80
  -4  -1  -6    3.84    0.78
   4  -1   7    2.45    0.71
  -4  -1  -7    1.97    0.63
   4  -1   8    3.61    0.91
  -4  -1  -8    1.43    0.56
  -4  -1  -9    0.22    0.37
  -4  -1 -10   10.24    1.56
  -4   0  12   11.86    1.66
   4   0 -12    9.71    1.44
   4   0 -11   22.42    2.07
  -4   0  11   19.79    2.00
  -4   0  10    6.98    1.11
   4   0 -10    6.93    1.11
  -4   0   9    5.45    0.94
   4   0  -9    3.67    0.78
   4   0  -8    8.21    1.07
  -4   0   8    9.00    1.11
  -4   0   7   26.84    1.35
  -4   0   7   24.50    1.68
   4   0  -7   27.17    1.86
   4   0  -6    9.49    1.02
  -4   0   6    8.35    0.90
  -4   0   5    1.44    0.36
   4   0  -5    1.65    0.44
   4   0  -4   33.28    1.73
  -4   0   4   31.55    1.54
   4   0  -3   42.52    1.83
  -4   0   3   39.92    1.62
  -4   0   3   39.28    0.96
   4   0  -2   22.85    1.23
  -4   0   2   25.53    1.17
  -4   0   2   23.98    0.90
  -4   0   1  105.43    2.81
  -4   0   1  103.51    2.71
   4   0   0   85.43    2.48
  -4   0   0   85.73    2.52
  -4   0   0   86.15    2.82
  -4   0   0   87.07    2.64
   4   0   1   30.68    1.24
  -4   0  -1   27.75    1.32
  -4   0  -1   30.62    1.52
   4   0   1   28.51    1.49
  -4   0  -1   30.22    1.52
   4   0   2    7.43    0.56
  -4   0  -2    6.11    0.66
   4   0   2    5.43    0.68
  -4   0  -2    5.57    0.69
  -4   0  -3    2.03    0.46
   4   0   3    1.62    0.44
  -4   0  -3    1.85    0.37
  -4   0  -4    6.31    0.86
  -4   0  -4    5.20    0.45
   4   0   4    5.57    0.80
  -4   0  -5   17.79    0.85
   4   0   5   16.44    1.47
  -4   0  -5   17.94    1.55
   4   0   6    9.97    1.22
  -4   0  -6   10.09    1.25
   4   0   7   14.64    1.58
  -4   0  -7   11.01    1.38
   4   0   8    6.04    1.10
  -4   0  -8    4.02    0.88
  -4   0  -9    3.36    0.88
  -4   0 -10    0.11    0.35
   4   1 -12    0.38    0.39
  -4   1  12    1.70    0.74
  -4   1  11    2.13    0.69
   4   1 -11    2.89    0.84
  -4   1  10    3.22    0.78
  -4   1   9    1.15    0.46
  -4   1   8   15.73    1.46
  -4   1   7    3.52    0.67
  -4   1   6   27.31    1.69
  -4   1   5   46.85    2.13
  -4   1   5   46.59    1.22
  -4   1   4   29.32    1.52
  -4   1   3   36.09    1.62
   4   1  -3   37.21    1.72
   4   1  -2    6.98    0.65
  -4   1   2    6.46    0.60
   4   1  -1   98.77    2.80
  -4   1   1  102.08    2.91
  -4   1   1   99.20    2.74
   4   1   0   89.52    2.41
  -4   1   0   86.61    2.66
  -4   1   0   80.59    2.62
   4   1   1   49.88    2.04
   4   1   1   50.45    1.58
  -4   1  -1   51.28    1.99
  -4   1  -1   52.61    2.12
   4   1   2   14.93    0.73
  -4   1  -2   14.45    1.03
   4   1   2   16.81    1.19
  -4   1  -2   14.49    1.14
  -4   1  -3   10.19    0.87
  -4   1  -3   12.05    1.11
   4   1   3   10.13    1.00
   4   1   4   10.60    1.08
  -4   1  -4    9.68    0.85
  -4   1  -4   10.57    1.12
  -4   1  -5    0.73    0.39
   4   1   5    0.88    0.40
  -4   1  -6    5.75    0.97
   4   1   6    5.22    0.90
  -4   1  -7    3.62    0.81
   4   1   7    2.37    0.69
  -4   1  -8    1.49    0.56
   4   1   8    2.94    0.83
  -4   1  -9    0.94    0.59
  -4   1 -10    8.95    1.48
   4   2 -12    4.39    1.05
  -4   2  12    4.13    1.01
  -4   2  11    2.38    0.71
  -4   2  10    3.24    0.82
  -4   2   9    8.48    1.16
  -4   2   8   22.26    1.78
  -4   2   7   43.53    2.39
  -4   2   6   56.19    2.58
  -4   2   5    8.53    0.90
  -4   2   4   10.19    0.92
  -4   2   3  108.13    3.33
   4   2  -3  109.45    2.39
  -4   2   2    3.11    0.46
   4   2  -1    4.62    0.48
  -4   2   1    4.87    0.57
   4   2   0   73.58    2.07
   4   2   0   71.97    2.40
  -4   2   0   71.02    2.48
   4   2   1   11.24    0.59
  -4   2  -1   12.83    0.96
   4   2   1   12.00    0.92
   4   2   2   32.79    0.98
   4   2   2   31.82    1.65
  -4   2  -2   34.93    1.85
   4   2   3   31.93    1.79
  -4   2  -3   33.54    1.94
  -4   2  -4   41.95    1.87
  -4   2  -4   44.40    2.41
   4   2   4   41.50    2.22
   4   2   5   13.77    1.33
  -4   2  -5   13.40    0.99
  -4   2  -5   13.51    1.37
  -4   2  -6    7.97    1.13
   4   2   6    7.66    1.08
  -4   2  -7    4.52    0.90
   4   2   7    5.79    1.01
  -4   2  -8    1.53    0.56
  -4   2  -9   -0.07    0.29
  -4   3  11    1.47    0.60
  -4   3  10    2.51    0.70
  -4   3   9    9.44    1.26
  -4   3   8   18.15    1.64
  -4   3   7   25.16    1.82
  -4   3   6   12.61    1.21
   4   3  -6   13.04    0.58
  -4   3   5    1.87    0.47
  -4   3   4    1.75    0.43
   4   3  -4    1.91    0.21
  -4   3   3    8.44    0.83
  -4   3   2   38.43    1.79
  -4   3   1   89.83    2.92
   4   3  -1   85.63    1.95
   4   3   0   23.59    0.83
   4   3   0   23.25    1.21
   4   3   0   25.12    1.03
  -4   3   0   24.52    1.40
   4   3   1    3.78    0.30
   4   3   1    4.55    0.56
  -4   3  -1    4.08    0.58
   4   3   2   21.05    1.32
  -4   3  -2   23.05    1.46
   4   3   3   55.31    2.43
  -4   3  -3   57.59    2.68
   4   3   4   57.28    2.64
  -4   3  -4   53.03    2.74
   4   3   5   14.86    1.40
  -4   3  -5   15.21    1.07
  -4   3  -5   16.46    1.54
  -4   3  -6    3.25    0.74
   4   3   6    3.22    0.71
  -4   3  -7    1.83    0.67
   4   3   7    0.68    0.45
  -4   3  -8    4.33    0.94
  -4   3  -9    9.52    1.45
  -4   4  11    2.86    0.81
  -4   4  10    3.80    0.89
  -4   4   9    6.39    1.10
  -4   4   8   44.47    2.66
  -4   4   7    9.57    1.16
  -4   4   6    8.06    0.99
  -4   4   5   35.91    2.02
  -4   4   4   15.36    1.23
  -4   4   3   15.46    1.19
  -4   4   2    0.30    0.25
  -4   4   1    3.25    0.54
  -4   4   0   23.36    1.44
   4   4   0   22.01    1.17
   4   4   1   29.25    1.45
  -4   4  -1   29.82    1.69
   4   4   1   29.61    0.97
  -4   4  -2   20.76    1.45
   4   4   2   21.17    1.31
   4   4   3   66.29    2.72
  -4   4  -4    2.69    0.62
   4   4   4    2.35    0.56
   4   4   5    2.65    0.63
  -4   4  -5    2.41    0.62
   4   4   6   23.71    1.91
  -4   4  -6   25.81    2.10
  -4   4  -7   14.23    1.63
  -4   4  -8   10.83    1.49
  -4   4  -9    0.32    0.39
  -4   5  11    4.11    1.02
  -4   5  10    1.03    0.58
  -4   5   9    5.79    1.05
  -4   5   8   -0.23    0.38
  -4   5   7    5.91    0.94
  -4   5   6    6.42    0.91
  -4   5   5   11.00    1.14
  -4   5   4   32.39    1.89
  -4   5   3    2.40    0.50
  -4   5   2    5.61    0.76
  -4   5   1   29.04    1.68
   4   5  -1   29.53    1.27
  -4   5   0   20.97    1.42
   4   5   0   21.18    1.11
  -4   5  -1   42.63    2.15
   4   5   1   37.99    1.12
   4   5   1   44.26    1.17
   4   5   1   50.07    1.91
   4   5   1   46.75    1.34
  -4   5  -2   74.69    3.09
   4   5   2   75.42    2.76
   4   5   2   81.57    2.24
   4   5   3   64.55    2.67
   4   5   4    2.80    0.58
  -4   5  -5    5.80    0.98
   4   5   5    6.53    0.95
  -4   5  -6    7.98    1.20
   4   5   6    6.59    1.01
   4   5   7    3.04    0.65
  -4   5  -7    2.36    0.74
  -4   5  -8    0.37    0.45
   4   5   8    1.85    0.55
  -4   5  -9    0.55    0.46
   4   5   9    0.00    0.33
  -4   6  11    1.40    0.67
  -4   6  10    3.63    0.94
  -4   6   9   38.26    2.72
  -4   6   8   31.73    2.35
  -4   6   7   20.49    1.76
  -4   6   6   14.03    1.40
  -4   6   5   41.68    2.34
  -4   6   4   26.30    1.76
  -4   6   3    8.00    0.93
   4   6  -2   22.18    1.00
  -4   6   2   20.69    1.49
   4   6  -1   45.35    1.58
  -4   6   1   43.35    2.20
   4   6   0   12.77    0.83
  -4   6   0   13.75    1.21
   4   6   1    4.74    0.55
  -4   6  -1    5.05    0.78
  -4   6  -2   41.25    2.27
   4   6   2   40.91    1.35
   4   6   2   40.44    1.87
   4   6   3   32.40    1.79
   4   6   3   27.73    1.32
   4   6   4    0.57    0.23
   4   6   4    0.52    0.32
  -4   6  -5    0.58    0.49
   4   6   5    1.01    0.30
   4   6   6   15.91    1.37
  -4   6  -6   17.17    1.81
   4   6   7   16.17    1.51
  -4   6  -7   18.11    1.93
  -4   6  -8    3.09    0.88
  -4   7  10   -0.43    0.40
  -4   7   9   -0.10    0.35
  -4   7   8    6.77    1.12
  -4   7   7    0.45    0.35
  -4   7   6    0.25    0.42
  -4   7   5    7.12    0.99
  -4   7   4   92.73    3.70
  -4   7   3    8.56    1.02
  -4   7   2   31.74    1.94
   4   7  -2   28.74    1.05
  -4   7   1   53.23    2.58
   4   7  -1   54.35    1.67
  -4   7   0   27.34    1.81
   4   7   0   27.77    1.23
  -4   7  -1   18.09    1.48
   4   7   1   16.87    1.04
   4   7   2   21.23    1.30
  -4   7  -2   20.22    1.62
   4   7   3   17.89    1.30
  -4   7  -6    1.78    0.66
  -4   7  -7    4.34    1.04
  -4   7  -8    1.64    0.71
  -4   8  10    1.88    0.70
  -4   8   9   13.48    1.67
  -4   8   8   20.66    1.97
  -4   8   7    9.72    1.29
  -4   8   6    4.82    0.89
  -4   8   5   20.53    1.73
  -4   8   4    2.08    0.58
  -4   8   3    4.02    0.74
  -4   8   2   11.12    1.18
  -4   8   1    3.47    0.67
  -4   8   0   24.45    1.78
  -4   8  -1   19.28    1.60
  -4   8  -2    3.30    0.68
  -4   8  -6    3.95    0.96
  -4   8  -7    4.57    1.04
  -4   9   9    0.44    0.49
  -4   9   8    2.33    0.70
  -4   9   7    3.96    0.88
  -4   9   6   11.84    1.40
  -4   9   5   10.15    1.26
  -4   9   4    9.97    1.23
  -4   9   3    2.68    0.67
  -4   9   2    0.53    0.34
  -4   9   1   52.21    2.77
  -4   9   0   30.47    2.09
  -4   9  -1    6.16    0.94
  -4   9  -2   15.89    1.55
  -4   9  -7   -0.05    0.37
  -4  10   8    3.85    0.94
  -4  10   7    2.99    0.81
  -4  10   6   10.99    1.39
  -4  10   5    2.13    0.62
  -4  10   4    7.40    1.11
  -4  10   3    0.43    0.39
  -4  10   2    1.78    0.57
  -4  10   1    0.91    0.46
  -4  10   0   19.72    1.73
  -4  10  -1    2.25    0.66
  -4  10  -2    5.27    0.92
  -4  11   7    2.73    0.82
  -4  11   6    1.67    0.60
  -4  11   5    1.01    0.46
  -4  11   4    2.09    0.65
  -4  11   3    7.44    1.12
  -4  11   2    0.98    0.46
  -4  11   1    8.57    1.20
  -4  11   0    9.40    1.24
  -4  11  -1    6.97    1.11
  -4  12   6   13.61    1.66
  -4  12   5    2.57    0.74
  -4  12   4    1.05    0.53
  -4  12   3    2.53    0.67
  -4  12   2    0.44    0.40
  -4  12   1    6.80    1.09
  -4  12   0    0.39    0.39
  -4  12  -1    7.26    1.17
  -4  13   3    3.62    0.85
  -4  13   2    6.98    1.14
  -4  13   1    2.90    0.76
  -4  13   0    1.71    0.66
  -4  13  -1    4.62    0.98
   5 -12  -5    1.47    0.61
   5 -12  -4    1.68    0.66
   5 -12  -3    8.52    1.36
   5 -12  -2    5.82    1.01
   5 -12  -2    6.27    1.16
  -5 -12   2    5.68    1.17
  -5 -12   1    8.05    1.40
  -5 -12   0   11.59    1.61
  -5 -12  -1    5.12    1.13
  -5 -12  -2    1.49    0.66
   5 -11  -7    0.89    0.50
   5 -11  -6    0.80    0.49
   5 -11  -5    1.83    0.66
   5 -11  -4    0.63    0.57
   5 -11  -3    0.55    0.46
  -5 -11   2    2.33    0.74
   5 -11  -2    3.21    0.81
   5 -11  -1    2.86    0.84
  -5 -11   1    2.09    0.71
  -5 -11   0    4.70    1.00
  -5 -11  -1   12.61    1.63
  -5 -11  -2    5.00    1.04
  -5 -11  -3    4.06    1.00
  -5 -11  -4    9.35    1.47
   5 -10  -8    0.66    0.44
   5 -10  -7    5.11    1.02
   5 -10  -6    0.40    0.40
   5 -10  -5    7.53    1.18
   5 -10  -4    6.32    1.06
   5 -10  -3   10.96    1.38
   5 -10  -2   10.32    1.33
  -5 -10   2   10.17    1.40
   5 -10  -1    9.58    1.30
  -5 -10   1    6.90    1.19
  -5 -10   0   10.62    1.42
  -5 -10  -1    0.93    0.48
  -5 -10  -2    7.13    1.18
  -5 -10  -3    6.80    1.17
  -5 -10  -4    1.25    0.57
  -5 -10  -5    1.12    0.53
   5  -9  -9    1.95    0.69
   5  -9  -8   13.02    1.53
   5  -9  -7    0.97    0.47
   5  -9  -6    5.02    0.93
   5  -9  -5    5.51    0.99
   5  -9  -4    0.77    0.41
   5  -9  -3    3.00    0.76
   5  -9  -2    5.38    0.94
  -5  -9   2    6.96    1.09
   5  -9  -1    4.14    0.83
  -5  -9   1    4.37    0.85
   5  -9   0    8.17    1.16
   5  -9   0    7.89    0.93
  -5  -9   0    6.26    1.05
   5  -9   1   14.35    1.28
  -5  -9  -1   15.54    1.63
   5  -9   2    5.49    0.82
  -5  -9  -2    4.70    0.90
  -5  -9  -3   25.81    2.16
  -5  -9  -4    3.52    0.83
  -5  -9  -5    7.15    1.22
  -5  -9  -6    0.02    0.24
   5  -8  -9    2.25    0.67
   5  -8  -8    5.96    1.05
   5  -8  -7   15.39    1.59
   5  -8  -6   19.26    1.77
   5  -8  -5    3.18    0.78
   5  -8  -4    5.82    0.94
   5  -8  -3   22.10    1.82
   5  -8  -2   14.75    1.47
  -5  -8   2   11.61    1.35
   5  -8  -1   17.48    1.61
  -5  -8   1   17.78    1.65
  -5  -8   0   11.37    1.32
   5  -8   0   10.72    1.29
   5  -8   0   11.07    1.10
   5  -8   1    3.34    0.75
  -5  -8  -1    3.68    0.77
   5  -8   1    4.96    0.75
  -5  -8  -2    4.78    0.88
   5  -8   2    3.46    0.67
  -5  -8  -3    6.00    1.00
   5  -8   3    5.97    0.87
  -5  -8  -4    0.93    0.45
   5  -8   4    0.58    0.38
   5  -8   5    4.22    0.83
  -5  -8  -5    4.28    0.88
   5  -8   6    0.89    0.46
  -5  -8  -6    0.37    0.37
  -5  -8  -7    1.36    0.57
   5  -7 -10    2.68    0.74
   5  -7  -9   11.97    1.46
   5  -7  -8    6.32    1.04
   5  -7  -7   13.16    1.47
   5  -7  -6    2.12    0.62
   5  -7  -5   11.06    1.25
   5  -7  -4    5.97    0.91
   5  -7  -3   28.41    1.98
   5  -7  -2   28.73    1.98
  -5  -7   2   29.62    2.07
  -5  -7   1    1.62    0.55
   5  -7  -1    0.68    0.42
   5  -7   0   19.20    1.62
  -5  -7   0   21.11    1.71
   5  -7   1    3.07    0.70
  -5  -7  -1    2.97    0.68
   5  -7   1    3.88    0.66
  -5  -7  -2   16.21    1.52
   5  -7   2   17.96    1.45
  -5  -7  -3    2.72    0.64
   5  -7   3    2.09    0.52
  -5  -7  -4   21.17    1.80
   5  -7   4   22.52    1.76
   5  -7   5    4.97    0.88
  -5  -7  -5    3.97    0.81
   5  -7   6    0.72    0.40
  -5  -7  -6    1.12    0.46
   5  -7   7   -0.22    0.38
   5  -6 -10    1.26    0.51
   5  -6  -9    0.25    0.33
   5  -6  -8    3.81    0.85
   5  -6  -7   26.60    2.00
   5  -6  -6    4.17    0.78
   5  -6  -5    3.47    0.71
   5  -6  -4   41.33    2.36
   5  -6  -3   12.56    1.25
   5  -6  -2    9.82    1.08
   5  -6  -1    3.12    0.62
  -5  -6   1    1.97    0.54
   5  -6   0   14.59    1.33
  -5  -6   0   13.71    1.32
   5  -6   1   41.31    2.31
   5  -6   1   42.82    2.19
  -5  -6  -1   41.69    2.35
  -5  -6  -2    9.65    1.10
   5  -6   2   10.21    1.08
  -5  -6  -3    1.06    0.41
   5  -6   3    2.21    0.55
  -5  -6  -4    3.67    0.74
   5  -6   4    3.69    0.72
   5  -6   5    3.00    0.73
  -5  -6  -5    3.20    0.68
   5  -6   6    3.62    0.81
  -5  -6  -6    3.07    0.68
   5  -6   7    9.16    1.33
   5  -6   8    7.18    1.29
   5  -5 -11    5.49    1.05
  -5  -5  11    4.75    0.99
   5  -5 -10   26.36    2.20
  -5  -5  10   28.62    2.16
   5  -5  -9   20.00    1.83
  -5  -5   9   21.49    1.74
   5  -5  -8    5.14    0.91
  -5  -5   8    5.22    0.79
  -5  -5   7   -0.03    0.22
   5  -5  -7    0.86    0.46
   5  -5  -6    7.65    1.01
  -5  -5   6    7.89    0.78
   5  -5  -5   41.34    2.34
  -5  -5   5   40.62    1.66
   5  -5  -4    4.36    0.74
  -5  -5   4    3.45    0.37
   5  -5  -3   24.22    1.65
  -5  -5   3   21.42    0.73
   5  -5  -2    1.03    0.39
  -5  -5   1   27.91    1.83
   5  -5  -1   29.50    1.81
  -5  -5   0   42.08    2.25
   5  -5   0   41.23    2.20
  -5  -5  -1  117.81    4.11
   5  -5   1  121.54    4.03
   5  -5   1  121.26    4.14
   5  -5   2    2.11    0.54
  -5  -5  -2    3.13    0.60
   5  -5   2    1.88    0.50
   5  -5   3    2.04    0.50
  -5  -5  -3    1.23    0.40
  -5  -5  -4   10.37    1.12
   5  -5   4    8.24    1.06
   5  -5   5    3.54    0.76
  -5  -5  -5    3.63    0.66
  -5  -5  -6   12.85    1.29
   5  -5   6   11.61    1.40
   5  -5   7    2.57    0.76
   5  -5   8    2.02    0.72
   5  -4 -11    4.66    0.94
  -5  -4  11    3.15    0.84
  -5  -4  10    4.00    0.85
   5  -4 -10    2.35    0.72
  -5  -4   9    0.58    0.34
   5  -4  -9    0.54    0.42
   5  -4  -8    0.40    0.44
  -5  -4   8    0.87    0.38
   5  -4  -7    1.98    0.56
  -5  -4   7    2.99    0.56
   5  -4  -6   11.17    1.22
  -5  -4   6   11.47    0.97
  -5  -4   5    0.30    0.18
   5  -4  -5    0.73    0.38
   5  -4  -4   19.90    1.49
  -5  -4   4   19.24    0.99
   5  -4  -3   13.46    1.20
  -5  -4   3   13.24    0.67
   5  -4  -2   34.45    1.90
  -5  -4   2   33.04    0.96
   5  -4  -1    7.18    0.85
   5  -4   0   48.15    2.29
  -5  -4   0   53.18    2.42
   5  -4   1   78.18    3.06
   5  -4   1   83.36    3.14
  -5  -4  -1   83.25    3.12
   5  -4   2   46.89    2.27
  -5  -4  -2   44.18    2.18
   5  -4   2   48.11    2.36
  -5  -4  -3   31.54    1.83
   5  -4   3   33.57    2.03
  -5  -4  -4   28.79    2.12
  -5  -4  -4   32.01    1.86
   5  -4   4   29.07    1.99
  -5  -4  -5    2.20    0.51
   5  -4   5    1.74    0.56
  -5  -4  -5    2.09    0.65
  -5  -4  -6    9.00    1.01
   5  -4   6    8.17    1.16
   5  -4   7    6.81    1.15
   5  -4   8   16.09    1.83
  -5  -3  11    3.44    0.86
   5  -3 -11    4.06    0.93
   5  -3 -10   12.02    1.45
  -5  -3  10   13.39    1.49
  -5  -3   9    9.44    1.16
   5  -3  -9    8.37    1.17
  -5  -3   8   27.99    1.88
   5  -3  -8   25.46    1.98
   5  -3  -7   11.79    1.26
  -5  -3   7    8.78    0.95
   5  -3  -6   10.80    1.16
  -5  -3   6   11.50    0.99
   5  -3  -5    5.74    0.82
  -5  -3   5    7.25    0.70
   5  -3  -4   28.88    1.76
  -5  -3   4   25.25    1.23
  -5  -3   3   15.48    0.82
   5  -3  -3   15.33    1.23
   5  -3  -2   16.97    1.27
  -5  -3   2   17.70    0.80
   5  -3  -1   18.31    1.29
  -5  -3   1   17.97    0.78
   5  -3   0   12.34    1.04
   5  -3   1   35.12    1.89
  -5  -3  -1   31.90    1.76
  -5  -3  -1   36.68    1.94
   5  -3   1   32.92    1.75
   5  -3   2    1.44    0.38
  -5  -3  -2    2.41    0.46
   5  -3   2    3.00    0.59
  -5  -3  -2    1.27    0.41
   5  -3   3    9.92    1.07
  -5  -3  -3    8.95    0.88
  -5  -3  -3    8.57    1.04
  -5  -3  -4   63.72    2.58
   5  -3   4   61.54    3.00
  -5  -3  -4   61.03    3.07
  -5  -3  -5    1.42    0.37
   5  -3   5    2.39    0.66
  -5  -3  -5    1.95    0.60
   5  -3   6   19.42    1.80
  -5  -3  -6   21.10    1.96
   5  -3   7    1.86    0.70
  -5  -3  -7    3.69    0.91
   5  -3   8    3.39    0.87
  -5  -3  -8    3.24    0.92
   5  -3   9    0.90    0.58
  -5  -3  -9    0.67    0.53
  -5  -2  11    1.25    0.57
   5  -2 -11    1.31    0.58
   5  -2 -10   13.25    1.53
  -5  -2  10   12.89    1.50
   5  -2  -9    3.37    0.80
  -5  -2   9    3.02    0.70
  -5  -2   8    7.34    0.97
   5  -2  -8    7.30    1.05
   5  -2  -7    4.84    0.84
  -5  -2   7    6.13    0.81
   5  -2  -6    5.44    0.82
  -5  -2   6    6.10    0.74
  -5  -2   6    5.57    0.70
   5  -2  -5    5.60    0.81
  -5  -2   5    7.56    0.74
  -5  -2   5    7.04    0.78
  -5  -2   4    1.57    0.33
   5  -2  -4    0.58    0.31
  -5  -2   4    0.86    0.29
   5  -2  -3   19.97    1.36
  -5  -2   3   18.75    1.00
  -5  -2   3   20.56    1.37
   5  -2  -2  130.43    4.06
  -5  -2   2  132.05    4.18
  -5  -2   1   49.71    1.63
  -5  -2   1   48.29    2.26
  -5  -2   1   46.60    1.84
   5  -2   0   12.36    0.97
  -5  -2   0   11.17    1.04
  -5  -2   0   11.97    0.94
   5  -2   1    3.03    0.50
   5  -2   1    2.90    0.57
  -5  -2  -1    2.24    0.45
   5  -2   2    0.58    0.24
   5  -2   2    0.34    0.28
  -5  -2  -2    0.06    0.14
  -5  -2  -2    0.38    0.28
   5  -2   3   10.59    1.11
  -5  -2  -3    9.74    0.89
  -5  -2  -3    9.71    1.08
  -5  -2  -4    4.21    0.57
   5  -2   4    4.01    0.76
  -5  -2  -4    3.99    0.75
   5  -2   5    4.52    0.85
  -5  -2  -5    5.61    0.64
  -5  -2  -5    4.05    0.80
   5  -2   6    3.80    0.85
  -5  -2  -6    3.63    0.85
   5  -2   7    3.53    0.86
  -5  -2  -7    2.62    0.73
   5  -2   8   19.93    2.06
  -5  -2  -8   22.99    2.24
   5  -2   9    5.87    1.21
  -5  -2  -9    3.64    0.99
  -5  -1  12   11.52    1.62
   5  -1 -12   10.52    1.49
   5  -1 -11    5.16    1.05
  -5  -1  11    7.23    1.19
  -5  -1  10    5.44    1.00
   5  -1 -10    4.12    0.88
   5  -1  -9   20.11    1.82
  -5  -1   9   19.18    1.71
   5  -1  -8   14.97    1.49
  -5  -1   8   12.16    1.26
   5  -1  -7    8.06    1.04
  -5  -1   7    8.07    0.94
  -5  -1   7    6.43    0.72
   5  -1  -6    8.80    1.03
  -5  -1   6    9.62    0.96
  -5  -1   6    9.94    0.91
   5  -1  -5    5.74    0.79
  -5  -1   5    6.31    0.71
  -5  -1   5    5.17    0.66
   5  -1  -4   15.62    1.24
  -5  -1   4   16.80    1.09
  -5  -1   4   16.74    1.21
   5  -1  -3   19.26    1.30
  -5  -1   3   17.83    1.05
  -5  -1   3   18.86    1.29
   5  -1  -2   63.65    2.45
  -5  -1   2   63.87    2.10
  -5  -1   2   64.89    2.59
  -5  -1   2   63.88    1.93
   5  -1  -1    3.89    0.53
  -5  -1   1    3.40    0.42
  -5  -1   1    4.54    0.64
  -5  -1   1    3.67    0.45
   5  -1   0   33.88    1.59
  -5  -1   0   31.93    1.77
  -5  -1   0   34.06    1.44
  -5  -1   0   33.67    1.62
   5  -1   1   27.07    1.38
  -5  -1  -1   25.65    1.59
   5  -1   1   27.48    1.62
  -5  -1  -1   25.95    1.53
   5  -1   2   13.80    0.96
   5  -1   2   13.93    1.21
  -5  -1  -2   12.96    1.12
  -5  -1  -2   12.27    1.12
   5  -1   3   19.44    1.50
  -5  -1  -3   18.20    1.47
   5  -1   4   24.32    1.78
  -5  -1  -4   22.41    1.22
  -5  -1  -4   24.53    1.83
   5  -1   5   21.76    1.78
  -5  -1  -5   19.41    1.74
   5  -1   6    2.10    0.74
  -5  -1  -6    2.39    0.69
   5  -1   7    6.74    1.17
  -5  -1  -7    7.82    1.22
   5  -1   8   -0.16    0.46
  -5  -1  -8   -0.20    0.40
   5  -1   9    0.93    0.70
  -5  -1  -9    2.41    0.81
  -5   0  12   -0.12    0.57
   5   0 -12    1.24    0.59
  -5   0  11    1.16    0.56
   5   0 -11    1.78    0.66
   5   0 -10    1.95    0.69
  -5   0  10    1.85    0.60
  -5   0   9    0.72    0.45
   5   0  -9    0.27    0.38
   5   0  -8   11.70    1.32
  -5   0   8    9.24    1.12
  -5   0   8   10.28    0.91
  -5   0   7    2.88    0.62
  -5   0   7    2.43    0.46
   5   0  -7    2.95    0.68
   5   0  -6   30.65    1.96
  -5   0   6   32.07    1.84
  -5   0   6   32.21    1.72
   5   0  -5   74.72    3.04
  -5   0   5   71.88    2.74
   5   0  -4    6.32    0.80
  -5   0   4    7.47    0.75
   5   0  -3  104.55    3.43
  -5   0   3  105.94    3.17
  -5   0   3  105.12    2.45
  -5   0   2   20.71    1.16
  -5   0   2   21.54    1.38
   5   0  -2   20.91    1.28
  -5   0   2   20.90    0.99
   5   0  -1   34.55    1.60
  -5   0   1   36.72    1.57
  -5   0   1   36.28    1.84
  -5   0   1   37.24    1.55
  -5   0   0    7.48    0.81
   5   0   0    8.72    0.73
  -5   0   0    9.15    0.75
  -5   0   0    8.88    0.79
   5   0   1   84.58    2.55
  -5   0  -1   80.95    2.98
   5   0   1   78.05    2.93
  -5   0  -1   77.29    2.66
  -5   0  -1   79.77    2.91
  -5   0  -2    2.70    0.56
   5   0   2    2.05    0.34
   5   0   2    2.23    0.50
  -5   0  -2    2.59    0.50
  -5   0  -3    4.17    0.71
   5   0   3    3.86    0.66
  -5   0  -3    4.04    0.62
   5   0   4    7.66    1.00
  -5   0  -4    8.87    1.10
  -5   0  -5    8.54    1.15
   5   0   5   10.39    1.24
  -5   0  -6    0.50    0.45
   5   0   6    0.48    0.43
   5   0   7    2.06    0.74
  -5   0  -7    2.72    0.80
   5   0   8    7.11    1.25
  -5   0  -8    5.92    1.14
   5   0   9   -0.15    0.56
  -5   0  -9    0.23    0.48
  -5   1  12   10.51    1.56
   5   1 -12   13.77    1.77
   5   1 -11    6.27    1.12
  -5   1  11    6.31    1.17
  -5   1  10    5.39    1.01
   5   1 -10    5.76    1.12
   5   1  -9   20.00    1.87
  -5   1   9   18.60    1.72
   5   1  -8   14.46    1.48
  -5   1   8   12.81    1.34
   5   1  -7    7.61    1.02
  -5   1   7    8.13    1.00
   5   1  -6   10.39    1.13
  -5   1   6    9.27    1.00
  -5   1   5    4.68    0.68
   5   1  -5    5.41    0.77
   5   1  -4   15.79    1.22
  -5   1   4   15.38    1.14
  -5   1   4   15.02    0.61
   5   1  -3   19.29    1.28
  -5   1   3   20.36    1.24
  -5   1   3   17.34    0.82
   5   1  -2   62.29    2.35
  -5   1   2   63.33    2.34
  -5   1   2   66.86    2.08
  -5   1   1    3.91    0.48
   5   1  -1    3.93    0.50
  -5   1   1    4.25    0.55
   5   1   0   33.46    1.44
  -5   1   0   32.33    1.59
  -5   1   0   34.81    1.68
   5   1   1   24.99    1.14
  -5   1  -1   23.40    1.48
   5   1   1   26.24    1.56
  -5   1  -1   25.90    1.46
  -5   1  -1   24.05    1.49
  -5   1  -2   14.68    1.15
   5   1   2   14.71    1.23
   5   1   2   14.46    0.81
  -5   1  -2   14.94    1.25
  -5   1  -3   18.26    1.31
   5   1   3   18.35    1.43
  -5   1  -3   19.74    1.55
   5   1   4   22.93    1.73
  -5   1  -4   22.94    1.49
  -5   1  -4   21.65    1.74
   5   1   5   19.42    1.69
  -5   1  -5   16.84    1.63
  -5   1  -6    1.54    0.60
   5   1   6    1.82    0.60
  -5   1  -7    7.84    1.27
   5   1   7    6.35    1.09
  -5   1  -8    0.49    0.46
   5   1   8   -0.37    0.39
  -5   1  -9    2.61    0.82
   5   2 -11    0.46    0.45
  -5   2  11    1.92    0.70
  -5   2  10   13.77    1.61
  -5   2   9    3.90    0.82
  -5   2   8    7.02    1.02
  -5   2   7    5.99    0.89
  -5   2   6    6.14    0.85
  -5   2   5    6.51    0.81
   5   2  -4    0.39    0.25
  -5   2   4    1.35    0.37
   5   2  -3   19.55    1.30
  -5   2   3   19.04    1.26
   5   2  -2  141.42    3.95
  -5   2   2  138.10    4.05
   5   2  -1   49.76    1.89
  -5   2   1   49.87    2.10
   5   2   0   10.72    0.73
  -5   2   0   10.19    0.91
   5   2   0   10.52    0.91
  -5   2   0   10.10    0.90
  -5   2  -1    2.98    0.55
   5   2   1    2.64    0.32
  -5   2  -1    3.59    0.56
   5   2   1    2.04    0.46
  -5   2  -2    0.44    0.32
   5   2   2    0.32    0.11
   5   2   2    0.49    0.27
  -5   2  -3    8.83    0.90
   5   2   3    9.44    1.03
  -5   2  -3   10.76    1.16
  -5   2  -4    4.64    0.85
   5   2   4    4.71    0.78
  -5   2  -4    4.49    0.65
  -5   2  -5    3.80    0.80
   5   2   5    4.96    0.87
  -5   2  -5    5.07    0.70
  -5   2  -6    3.91    0.88
   5   2   6    3.22    0.78
  -5   2  -7    4.30    0.94
   5   2   7    3.84    0.90
   5   2   8   23.07    2.23
  -5   2  -8   22.13    2.21
  -5   2  -9    3.26    0.91
  -5   3  11    2.20    0.79
  -5   3  10   13.91    1.63
  -5   3   9    6.24    1.06
  -5   3   8   27.03    2.06
  -5   3   7   10.94    1.22
  -5   3   6   10.78    1.15
  -5   3   5    7.83    0.94
  -5   3   4   27.10    1.65
   5   3  -4   23.77    0.84
  -5   3   3   16.63    1.24
   5   3  -2   17.08    1.13
  -5   3   2   18.44    1.29
   5   3  -1   17.20    1.02
  -5   3   1   15.83    1.18
   5   3   0   12.61    0.78
  -5   3   0   12.43    1.07
   5   3   0   13.03    1.01
   5   3   1   35.59    1.23
  -5   3  -1   33.52    1.85
   5   3   1   33.73    1.78
   5   3   2    2.02    0.18
  -5   3  -2    2.50    0.55
   5   3   2    1.86    0.44
  -5   3  -3    7.76    1.00
   5   3   3    7.99    0.93
  -5   3  -4   61.58    2.62
   5   3   4   63.32    3.01
  -5   3  -4   65.12    3.22
   5   3   5    1.19    0.46
  -5   3  -5    1.18    0.34
   5   3   6   17.23    1.69
  -5   3  -6   16.71    1.76
  -5   3  -7    4.43    0.98
   5   3   7    4.29    0.90
  -5   3  -8    3.02    0.87
   5   3   8    4.22    1.03
  -5   3  -9    0.39    0.50
  -5   4  11    5.41    1.16
  -5   4  10    2.29    0.83
  -5   4   9    1.16    0.58
  -5   4   8    0.83    0.52
  -5   4   7    1.78    0.53
  -5   4   6   11.38    1.21
  -5   4   5    0.38    0.31
  -5   4   4   18.60    1.42
  -5   4   3   14.48    1.22
  -5   4   2   36.84    1.97
   5   4  -1    7.08    0.65
  -5   4   1    8.72    0.92
   5   4  -1    7.39    0.72
   5   4  -1    6.21    0.30
   5   4   0   54.06    1.76
  -5   4   0   49.54    2.33
   5   4   0   51.72    2.10
   5   4   1   85.27    2.14
  -5   4  -1   81.73    3.21
   5   4   1   81.48    2.96
  -5   4  -2   46.80    2.40
   5   4   2   46.54    2.22
   5   4   3   30.86    1.90
  -5   4  -3   36.12    2.26
   5   4   4   28.16    1.93
  -5   4  -4   30.33    2.18
  -5   4  -5    1.46    0.55
   5   4   5    1.94    0.61
  -5   4  -5    2.40    0.49
  -5   4  -6    9.26    1.33
   5   4   6    7.93    1.15
  -5   4  -7    6.58    1.19
   5   4   7    6.56    1.15
  -5   4  -8   16.24    1.92
  -5   5  11    5.74    1.17
  -5   5  10   27.53    2.40
  -5   5   9   21.03    2.00
  -5   5   8    5.10    0.98
  -5   5   7    0.36    0.36
  -5   5   6    8.66    1.10
  -5   5   5   40.89    2.33
  -5   5   4    2.78    0.64
  -5   5   3   22.24    1.59
  -5   5   2    0.81    0.38
  -5   5   1   30.13    1.84
   5   5  -1   30.14    1.47
   5   5   0   39.98    1.53
  -5   5   0   40.53    2.17
   5   5   0   37.07    1.75
   5   5   1  113.84    2.72
  -5   5  -1  123.81    4.22
   5   5   1  120.59    3.70
  -5   5  -2    2.61    0.60
   5   5   2    3.12    0.55
   5   5   3    2.40    0.52
   5   5   4   10.03    1.15
  -5   5  -4   10.79    1.33
  -5   5  -5    3.07    0.78
   5   5   5    3.83    0.78
  -5   5  -6   10.08    1.42
   5   5   6   11.36    1.38
  -5   5  -7    3.17    0.88
  -5   5  -8    2.51    0.84
  -5   6  10    0.15    0.36
  -5   6   9   -0.06    0.31
  -5   6   8    4.59    0.93
  -5   6   7   24.92    2.03
  -5   6   6    3.34    0.72
  -5   6   5    4.05    0.75
  -5   6   4   42.63    2.39
  -5   6   3   11.29    1.17
  -5   6   2    7.77    0.97
   5   6  -2    7.44    0.66
   5   6  -1    3.28    0.45
  -5   6   1    2.44    0.57
  -5   6   0   13.98    1.31
   5   6   0   15.69    1.04
  -5   6  -1   41.50    2.33
   5   6   1   39.27    1.87
   5   6   2   10.14    0.98
  -5   6  -2    8.05    1.06
   5   6   3    1.77    0.46
   5   6   4    3.31    0.66
  -5   6  -5    3.47    0.85
   5   6   5    5.73    0.95
  -5   6  -6    1.87    0.69
   5   6   6    4.82    0.91
  -5   6  -7    9.14    1.46
  -5   6  -8    7.27    1.35
  -5   7  10    1.81    0.70
  -5   7   9   13.65    1.69
  -5   7   8    4.76    0.96
  -5   7   7   11.30    1.40
  -5   7   6    2.77    0.76
  -5   7   5   11.68    1.31
  -5   7   4    8.98    1.13
  -5   7   3   34.78    2.20
  -5   7   2   27.97    1.93
   5   7  -2   28.07    1.27
   5   7  -1    0.75    0.21
  -5   7   1    0.61    0.38
  -5   7   0   18.69    1.58
   5   7   0   18.80    1.14
  -5   7  -1    4.27    0.80
   5   7   1    3.54    0.54
  -5   7  -2   15.31    1.49
   5   7   2   15.40    1.21
   5   7   3    2.77    0.57
   5   7   4   23.28    1.74
  -5   7  -5    3.69    0.92
   5   7   5    5.28    0.91
  -5   7  -6    0.31    0.37
  -5   7  -7   -1.00    0.59
  -5   8   9    2.36    0.81
  -5   8   8    6.84    1.17
  -5   8   7   16.89    1.76
  -5   8   6   25.20    2.08
  -5   8   5    3.27    0.75
  -5   8   4    5.12    0.88
  -5   8   3   24.66    1.90
  -5   8   2   12.91    1.35
  -5   8   1   21.61    1.76
  -5   8   0   11.16    1.27
  -5   8  -1    4.27    0.85
  -5   8  -2    4.42    0.87
  -5   8  -6   -0.06    0.36
  -5   8  -7    3.24    0.94
  -5   9   9    1.77    0.69
  -5   9   8   14.34    1.74
  -5   9   7    2.01    0.69
  -5   9   6    2.57    0.72
  -5   9   5    5.78    1.00
  -5   9   4    1.49    0.57
  -5   9   3    3.13    0.75
  -5   9   2    4.05    0.79
  -5   9   1    3.39    0.75
  -5   9   0    7.17    1.06
  -5   9  -1   14.67    1.54
  -5   9  -2    4.68    0.95
  -5   9  -6   -0.64    0.51
  -5  10   8    0.89    0.48
  -5  10   7    5.40    1.06
  -5  10   6    0.06    0.38
  -5  10   5    7.44    1.20
  -5  10   4    9.09    1.26
  -5  10   3   11.09    1.38
  -5  10   2    9.94    1.31
  -5  10   1    7.87    1.18
  -5  10   0    9.77    1.28
  -5  10  -1    1.14    0.50
  -5  10  -2    7.09    1.14
  -5  11   7    1.02    0.55
  -5  11   6    1.20    0.56
  -5  11   5    3.49    0.85
  -5  11   4    0.39    0.38
  -5  11   3    0.09    0.35
  -5  11   2    2.43    0.73
  -5  11   1    2.22    0.66
  -5  11   0    3.65    0.85
  -5  11  -1   11.95    1.50
  -5  12   5    1.86    0.66
  -5  12   4    2.68    0.76
  -5  12   3    8.38    1.27
  -5  12   2    8.97    1.32
  -5  12   1   11.44    1.48
  -5  12   0   11.74    1.53
  -5  12  -1    5.44    1.07
   6 -12  -3   10.86    1.57
   6 -12  -2    5.33    1.15
  -6 -12   1   12.54    1.77
  -6 -12   0    1.56    0.68
   6 -11  -6    1.28    0.58
   6 -11  -5    4.61    0.99
   6 -11  -4    2.43    0.81
   6 -11  -3   13.41    1.66
   6 -11  -2   18.10    1.92
   6 -11  -1   15.72    1.83
  -6 -11   1   17.82    1.99
  -6 -11   0    2.50    0.76
  -6 -11  -1   -0.15    0.38
  -6 -11  -2    0.93    0.57
   6 -10  -7    0.58    0.48
   6 -10  -6    0.53    0.45
   6 -10  -5    3.93    0.89
   6 -10  -4    4.77    0.98
   6 -10  -3    4.88    1.00
   6 -10  -2    1.20    0.54
   6 -10  -1    5.24    1.01
  -6 -10   1    4.30    0.93
   6 -10   0    6.99    1.20
  -6 -10   0    5.38    1.05
  -6 -10  -1   16.36    1.82
  -6 -10  -2   15.65    1.80
  -6 -10  -3    8.93    1.39
  -6 -10  -4    3.27    0.86
   6  -9  -8    0.56    0.42
   6  -9  -7    6.76    1.14
   6  -9  -6    4.89    0.96
   6  -9  -5    6.02    1.10
   6  -9  -4   12.04    1.49
   6  -9  -3    7.95    1.20
   6  -9  -2   10.08    1.33
  -6  -9   1    0.61    0.45
   6  -9  -1    1.26    0.57
   6  -9   0    0.92    0.49
   6  -9   0    0.29    0.28
  -6  -9   0    0.49    0.37
  -6  -9  -1    3.92    0.89
   6  -9   1    4.75    0.82
   6  -9   2    7.82    1.05
  -6  -9  -2    7.86    1.22
   6  -9   3    2.39    0.65
  -6  -9  -3    2.48    0.72
  -6  -9  -4    1.04    0.52
  -6  -9  -5    3.82    0.92
   6  -8  -9   -0.42    0.46
   6  -8  -8    4.11    0.91
   6  -8  -7    0.81    0.47
   6  -8  -6    6.44    1.10
   6  -8  -5    2.85    0.78
   6  -8  -4    4.58    0.91
   6  -8  -3    2.07    0.67
   6  -8  -2   15.43    1.59
   6  -8  -1   12.34    1.41
  -6  -8   1   12.46    1.47
  -6  -8   0   10.30    1.36
   6  -8   0    9.58    1.27
   6  -8   0   11.63    1.22
   6  -8   1    3.13    0.79
  -6  -8  -1    2.65    0.74
   6  -8   1    3.19    0.66
   6  -8   2   28.68    2.05
  -6  -8  -2   28.72    2.23
   6  -8   3    5.45    0.89
  -6  -8  -3    4.67    0.93
  -6  -8  -4    0.58    0.38
   6  -8   4    1.45    0.52
  -6  -8  -5    1.65    0.58
   6  -8   5    0.74    0.43
  -6  -8  -6    1.47    0.58
   6  -8   6    0.96    0.56
   6  -7 -10    3.58    0.87
   6  -7  -9    7.63    1.23
   6  -7  -8   11.14    1.43
   6  -7  -7   24.22    2.07
   6  -7  -6    5.84    1.01
   6  -7  -5   25.72    2.04
   6  -7  -4    2.90    0.71
   6  -7  -3    6.58    1.03
   6  -7  -2    0.42    0.32
  -6  -7   1    0.59    0.35
   6  -7  -1    1.08    0.50
   6  -7   0    1.95    0.55
  -6  -7   0    1.95    0.60
   6  -7   0    3.32    0.65
   6  -7   1    3.09    0.73
  -6  -7  -1    4.59    0.88
   6  -7   1    3.85    0.71
  -6  -7  -2    1.36    0.51
   6  -7   2    1.74    0.59
   6  -7   3    6.98    1.03
  -6  -7  -3    8.24    1.17
  -6  -7  -4    1.42    0.48
   6  -7   4   -0.02    0.39
  -6  -7  -5    0.45    0.33
   6  -7   5    1.14    0.57
  -6  -7  -6   10.21    1.34
   6  -7   6   10.01    1.40
   6  -6 -10    5.07    1.01
   6  -6  -9    0.44    0.45
   6  -6  -8    1.66    0.55
   6  -6  -7    7.45    1.12
   6  -6  -6    0.23    0.26
   6  -6  -5   10.19    1.25
   6  -6  -4    7.69    1.05
   6  -6  -3    9.31    1.16
   6  -6  -2   13.93    1.38
   6  -6  -1   24.03    1.82
   6  -6   0   11.31    1.25
  -6  -6   0   12.65    1.32
   6  -6   1    4.18    0.79
   6  -6   1    4.50    0.78
  -6  -6  -1    6.22    0.93
   6  -6   2   16.00    1.50
   6  -6   2   13.73    1.37
  -6  -6  -2   15.69    1.48
   6  -6   3    6.37    0.97
  -6  -6  -3    7.47    1.03
   6  -6   4    5.88    0.98
  -6  -6  -4    5.07    0.85
  -6  -6  -5    0.84    0.38
   6  -6   5    0.48    0.46
   6  -6   6    3.34    0.84
   6  -6   7    0.73    0.59
   6  -5 -10   -0.17    0.35
   6  -5  -9    2.60    0.71
   6  -5  -8    7.92    1.16
   6  -5  -7    1.68    0.56
   6  -5  -6   10.76    1.28
   6  -5  -5   11.48    1.27
   6  -5  -4   70.62    3.26
   6  -5  -3    0.63    0.41
   6  -5  -2    1.22    0.43
   6  -5  -1   21.00    1.63
   6  -5   0   16.18    1.42
  -6  -5   0   19.83    1.60
   6  -5   1   11.08    1.17
  -6  -5  -1   14.63    1.35
   6  -5   1   11.64    1.21
   6  -5   2    9.92    1.11
   6  -5   2   11.15    1.23
  -6  -5  -2   11.71    1.21
  -6  -5  -3    4.73    0.81
   6  -5   3    4.03    0.79
   6  -5   4    0.87    0.48
  -6  -5  -4    0.38    0.27
   6  -5   5    8.52    1.20
  -6  -5  -5    6.91    0.97
   6  -5   6   13.46    1.61
   6  -5   7   16.56    1.89
  -6  -4  11    8.25    1.24
   6  -4 -11   10.03    1.46
  -6  -4  10    2.24    0.64
   6  -4 -10    3.01    0.79
  -6  -4   9    0.09    0.28
   6  -4  -9    0.11    0.31
  -6  -4   8    0.18    0.19
   6  -4  -8    0.39    0.43
  -6  -4   7    3.38    0.57
   6  -4  -7    3.52    0.82
  -6  -4   6    3.37    0.53
   6  -4  -6    4.68    0.86
  -6  -4   5    3.87    0.50
   6  -4  -5    2.82    0.67
   6  -4  -4    4.20    0.74
  -6  -4   4    3.68    0.43
  -6  -4   3   44.59    1.47
   6  -4  -3   49.59    2.53
   6  -4  -2   14.35    1.29
  -6  -4   2   15.25    0.68
   6  -4  -1   65.18    2.87
   6  -4   0    4.34    0.71
   6  -4   1   12.11    1.16
   6  -4   1   12.51    1.23
  -6  -4  -1    9.95    1.07
   6  -4   2   31.07    1.92
   6  -4   2   34.62    2.15
  -6  -4  -2   33.21    1.99
  -6  -4  -3    4.38    0.71
   6  -4   3    4.93    0.85
   6  -4   4   22.09    1.85
  -6  -4  -4   23.39    1.66
  -6  -4  -4   25.04    2.10
  -6  -4  -5    2.43    0.53
   6  -4   5    3.14    0.76
  -6  -4  -5    2.35    0.76
   6  -4   6    0.55    0.45
   6  -4   7    7.38    1.31
  -6  -3  11    0.33    0.41
   6  -3 -11    1.15    0.63
  -6  -3  10    3.99    0.85
   6  -3 -10    5.47    1.05
  -6  -3   9    0.56    0.35
   6  -3  -9    1.18    0.53
  -6  -3   8    3.49    0.67
   6  -3  -8    2.43    0.68
  -6  -3   7    9.38    1.00
   6  -3  -7   11.69    1.33
   6  -3  -6    4.49    0.85
  -6  -3   6    6.54    0.75
  -6  -3   5    1.85    0.38
   6  -3  -5    2.41    0.59
   6  -3  -4   34.95    2.08
  -6  -3   4   34.35    1.51
   6  -3  -3   10.13    1.07
  -6  -3   3   10.58    0.72
   6  -3  -2   10.47    1.04
  -6  -3   2   10.61    0.68
   6  -3  -1   78.02    3.11
  -6  -3   1   81.71    2.29
   6  -3   0   40.63    2.09
  -6  -3   0   42.04    2.08
   6  -3   1   23.38    1.57
   6  -3   1   26.02    1.76
  -6  -3  -1   26.93    1.74
   6  -3   2   29.08    1.74
   6  -3   2   28.26    1.92
  -6  -3  -2   31.05    1.99
  -6  -3  -3    7.11    0.86
   6  -3   3    7.39    1.02
  -6  -3  -3    9.67    1.18
   6  -3   4   16.74    1.59
  -6  -3  -4   15.14    1.24
  -6  -3  -4   16.48    1.63
   6  -3   5   10.36    1.33
  -6  -3  -5    9.78    1.34
   6  -3   6   11.44    1.49
  -6  -3  -6    9.98    1.44
   6  -3   7    5.61    1.11
  -6  -3  -7    6.10    1.24
   6  -3   8   17.16    2.01
  -6  -3  -8   13.80    1.88
  -6  -2  11   11.71    1.50
   6  -2 -11   11.10    1.53
  -6  -2  10    2.11    0.63
   6  -2 -10    2.70    0.79
  -6  -2   9    1.76    0.55
   6  -2  -9    3.55    0.83
   6  -2  -8   11.38    1.35
  -6  -2   8   13.11    1.29
  -6  -2   7   11.25    1.12
  -6  -2   7   10.36    1.04
   6  -2  -7   11.57    1.31
   6  -2  -6    7.87    1.07
  -6  -2   6    7.99    0.87
  -6  -2   6    6.54    0.83
  -6  -2   5    1.13    0.34
   6  -2  -5    0.98    0.44
  -6  -2   5    0.73    0.31
   6  -2  -4   16.91    1.40
  -6  -2   4   16.93    1.08
  -6  -2   4   16.35    1.34
   6  -2  -3   22.38    1.55
  -6  -2   3   25.14    1.25
  -6  -2   3   22.27    1.59
  -6  -2   2   57.80    2.00
  -6  -2   2   55.86    2.66
   6  -2  -1   12.46    1.08
  -6  -2   1   11.56    0.80
  -6  -2   1   12.97    1.23
  -6  -2   1   13.45    1.00
   6  -2   0   14.74    1.15
  -6  -2   0   14.05    1.27
  -6  -2   0   13.20    1.08
   6  -2   1    8.78    0.88
   6  -2   1   10.03    1.08
  -6  -2  -1   10.41    1.04
   6  -2   2    0.55    0.28
   6  -2   2    0.60    0.37
  -6  -2  -2    0.44    0.26
   6  -2   3   15.12    1.43
  -6  -2  -3   14.48    1.41
   6  -2   4   48.94    2.76
  -6  -2  -4   45.63    2.73
   6  -2   5    3.37    0.79
  -6  -2  -5    3.23    0.77
   6  -2   6    1.42    0.61
  -6  -2  -6    1.75    0.67
   6  -2   7    7.03    1.27
  -6  -2  -7    7.16    1.26
   6  -2   8    2.33    0.81
  -6  -2  -8    1.52    0.74
  -6  -1  11    4.23    0.96
   6  -1 -11    3.68    0.92
  -6  -1  10   10.28    1.33
   6  -1 -10   12.36    1.57
  -6  -1   9    5.32    0.91
   6  -1  -9    4.72    0.98
  -6  -1   8    4.81    0.82
   6  -1  -8    4.17    0.87
  -6  -1   8    4.16    0.66
   6  -1  -7   22.24    1.81
  -6  -1   7   19.46    1.53
  -6  -1   7   22.33    1.52
  -6  -1   6   -0.02    0.17
   6  -1  -6    0.15    0.31
  -6  -1   6    0.51    0.26
   6  -1  -5   26.37    1.82
  -6  -1   5   27.25    1.57
  -6  -1   5   24.50    1.63
   6  -1  -4   54.47    2.58
  -6  -1   4   54.87    2.19
  -6  -1   4   50.39    2.45
   6  -1  -3   36.73    1.99
  -6  -1   3   39.86    1.73
  -6  -1   3   36.32    2.03
  -6  -1   3   37.26    1.32
   6  -1  -2    4.34    0.63
  -6  -1   2    3.81    0.65
  -6  -1   2    2.89    0.43
  -6  -1   2    3.63    0.44
   6  -1  -1    2.15    0.44
  -6  -1   1    2.30    0.40
  -6  -1   1    2.82    0.55
  -6  -1   1    2.83    0.45
   6  -1   0    6.39    0.72
  -6  -1   0    6.25    0.64
  -6  -1   0    6.20    0.83
  -6  -1   0    7.77    0.81
   6  -1   1   32.84    1.67
   6  -1   1   32.13    1.94
  -6  -1  -1   33.18    1.99
  -6  -1  -1   30.40    1.81
  -6  -1  -2    0.73    0.37
   6  -1   2    0.59    0.37
   6  -1   2    0.76    0.28
  -6  -1  -2    0.61    0.25
  -6  -1  -3    4.39    0.79
   6  -1   3    2.76    0.68
   6  -1   4    8.33    1.13
  -6  -1  -4    7.49    1.10
   6  -1   5   50.67    2.97
  -6  -1  -5   50.88    3.04
   6  -1   6    9.37    1.36
  -6  -1  -6   11.05    1.47
   6  -1   7    1.80    0.68
  -6  -1  -7    2.40    0.77
   6  -1   8    6.00    1.21
  -6  -1  -8    6.47    1.27
   6   0 -11    3.71    0.96
  -6   0  11    3.00    0.85
  -6   0  10   11.07    1.42
   6   0 -10   14.68    1.72
  -6   0   9    8.38    1.16
   6   0  -9    7.46    1.16
  -6   0   8   23.12    1.81
  -6   0   8   23.63    1.58
   6   0  -8   24.48    2.00
  -6   0   7    0.38    0.26
  -6   0   7    0.45    0.25
   6   0  -6   22.61    1.73
  -6   0   6   18.83    1.43
  -6   0   6   18.45    1.40
   6   0  -5   19.83    1.54
  -6   0   5   21.75    1.45
  -6   0   5   20.85    1.48
   6   0  -4   41.58    2.16
  -6   0   4   45.46    2.01
  -6   0   4   44.15    2.22
   6   0  -3    5.21    0.71
  -6   0   3    3.73    0.65
  -6   0   3    3.92    0.39
  -6   0   3    4.43    0.58
  -6   0   2    6.30    0.68
   6   0  -2    5.36    0.68
  -6   0   2    6.11    0.81
  -6   0   2    5.62    0.56
   6   0  -1    5.37    0.66
  -6   0   1    6.98    0.71
  -6   0   1    5.52    0.77
  -6   0   1    6.17    0.66
   6   0   0   81.00    2.77
  -6   0   0   82.65    2.84
  -6   0   0   79.11    3.22
  -6   0   0   85.03    3.02
   6   0   1   29.52    1.47
  -6   0  -1   27.26    1.77
   6   0   1   27.82    1.77
  -6   0  -1   27.03    1.70
  -6   0  -2    1.62    0.46
   6   0   2    0.89    0.41
  -6   0  -2    1.26    0.41
   6   0   2    0.70    0.25
  -6   0  -3    3.47    0.71
   6   0   3    3.24    0.68
  -6   0  -3    2.85    0.59
  -6   0  -4    4.47    0.85
   6   0   4    5.87    0.96
  -6   0  -5    0.62    0.47
   6   0   5    1.00    0.49
  -6   0  -6    7.64    1.22
   6   0   6    6.56    1.13
   6   0   7    9.79    1.44
  -6   0  -7    8.84    1.40
   6   0   8    9.64    1.50
  -6   0  -8    8.41    1.43
  -6   1  11    5.53    1.13
   6   1 -11    4.64    1.09
   6   1 -10   12.54    1.60
  -6   1  10   13.83    1.61
  -6   1   9    5.15    0.94
   6   1  -9    6.90    1.14
  -6   1   8    5.96    0.94
   6   1  -8    4.11    0.89
  -6   1   8    4.16    0.66
   6   1  -7   21.22    1.79
  -6   1   7   20.51    1.64
  -6   1   6    0.10    0.24
   6   1  -6   -0.03    0.28
   6   1  -5   28.22    1.86
  -6   1   5   27.30    1.71
   6   1  -4   50.07    2.41
  -6   1   4   47.08    2.21
  -6   1   4   48.60    1.45
   6   1  -3   36.91    1.94
  -6   1   3   36.46    1.85
  -6   1   3   37.48    1.44
  -6   1   2    3.23    0.45
   6   1  -2    3.51    0.55
  -6   1   2    4.06    0.58
  -6   1   1    3.27    0.50
   6   1  -1    2.70    0.44
  -6   1   1    2.39    0.45
   6   1   0    7.60    0.71
  -6   1   0    6.87    0.78
  -6   1   0    6.72    0.86
   6   1   0    6.93    0.84
  -6   1   0    7.74    0.83
   6   1   1   35.00    1.53
  -6   1  -1   35.30    1.86
  -6   1  -1   33.44    1.96
   6   1   1   33.83    1.96
  -6   1  -1   33.75    1.94
  -6   1  -2    1.17    0.43
   6   1   2    0.80    0.21
  -6   1  -2    1.12    0.41
   6   1   2    0.71    0.34
  -6   1  -3    3.28    0.71
   6   1   3    3.94    0.73
  -6   1  -3    3.05    0.62
   6   1   4    7.84    1.07
  -6   1  -4   10.47    1.27
  -6   1  -4    7.47    0.92
   6   1   5   50.33    2.96
  -6   1  -5   54.59    3.17
  -6   1  -6   10.52    1.45
   6   1   6   10.17    1.37
  -6   1  -7    2.33    0.80
   6   1   7    1.84    0.71
   6   1   8    6.60    1.27
  -6   1  -8    5.07    1.14
  -6   2  11   11.02    1.55
   6   2 -11   10.05    1.48
  -6   2  10    1.46    0.55
   6   2 -10    2.29    0.83
  -6   2   9    2.58    0.71
   6   2  -9    2.03    0.68
   6   2  -8   15.73    1.63
  -6   2   8   10.95    1.32
   6   2  -7   11.60    1.34
  -6   2   7   10.36    1.20
  -6   2   6    8.14    1.00
   6   2  -6    6.39    0.96
   6   2  -5    0.71    0.36
  -6   2   5    1.27    0.41
   6   2  -4   19.33    1.44
  -6   2   4   17.90    1.35
  -6   2   3   21.91    1.46
   6   2  -3   22.63    1.48
   6   2  -2   57.27    2.34
  -6   2   2   56.63    2.43
  -6   2   2   56.90    2.17
   6   2  -1   12.20    0.94
  -6   2   1   13.87    1.13
  -6   2   1   11.49    0.98
   6   2   0   14.86    0.96
  -6   2   0   13.35    1.14
   6   2   0   13.90    1.17
  -6   2   0   14.28    1.18
   6   2   1    9.99    0.72
  -6   2  -1   11.16    1.06
   6   2   1    8.29    0.95
  -6   2  -1    9.44    1.03
  -6   2  -2    0.48    0.32
   6   2   2    0.53    0.15
  -6   2  -2    0.44    0.28
   6   2   2    0.63    0.35
  -6   2  -3   13.99    1.27
   6   2   3   13.11    1.30
  -6   2  -3   12.59    1.35
   6   2   4   43.34    2.56
  -6   2  -4   39.51    2.21
  -6   2  -4   44.27    2.71
  -6   2  -5    6.06    1.04
   6   2   5    3.96    0.86
  -6   2  -5    3.63    0.65
  -6   2  -6    0.84    0.42
   6   2   6    1.53    0.57
  -6   2  -7    5.69    1.13
   6   2   7    7.37    1.27
  -6   2  -8    1.66    0.71
   6   2   8    0.76    0.51
  -6   3  11    0.73    0.51
   6   3 -11    0.36    0.47
  -6   3  10    3.60    0.92
   6   3 -10    4.70    1.04
  -6   3   9    1.30    0.54
  -6   3   8    2.97    0.75
  -6   3   7   11.55    1.30
  -6   3   6    5.59    0.87
   6   3  -5    2.83    0.59
  -6   3   5    2.18    0.55
   6   3  -4   34.59    1.98
  -6   3   4   32.93    1.94
   6   3  -3    9.86    0.97
  -6   3   3    9.32    1.00
   6   3  -2   11.26    0.96
  -6   3   2   12.06    1.11
   6   3  -1   77.16    2.64
  -6   3   1   80.76    3.12
   6   3   0   39.49    1.62
  -6   3   0   41.72    2.16
   6   3   0   38.80    2.01
  -6   3   0   42.29    2.15
   6   3   1   23.68    1.08
  -6   3  -1   25.88    1.72
   6   3   1   28.68    1.76
  -6   3  -1   24.95    1.73
   6   3   2   25.08    1.73
  -6   3  -2   28.67    1.99
  -6   3  -3    7.06    1.06
  -6   3  -3    9.01    1.01
   6   3   3    7.30    0.98
  -6   3  -4   12.83    1.21
   6   3   4   14.39    1.45
  -6   3  -4   14.14    1.54
   6   3   5   10.12    1.30
  -6   3  -5    9.51    1.04
  -6   3  -5   12.42    1.52
  -6   3  -6   12.09    1.57
   6   3   6    9.69    1.38
  -6   3  -7    6.34    1.21
   6   3   7    5.96    1.15
  -6   3  -8   15.66    1.98
   6   3   8   14.26    1.87
  -6   4  11   11.17    1.60
  -6   4  10    4.27    0.98
  -6   4   9    1.38    0.53
  -6   4   8    0.01    0.29
  -6   4   7    4.05    0.84
  -6   4   6    4.21    0.80
  -6   4   5    3.50    0.70
  -6   4   4    3.83    0.70
   6   4  -3   44.57    2.19
  -6   4   3   47.45    2.42
  -6   4   2   16.37    1.35
   6   4  -2   14.53    1.11
   6   4  -1   69.29    2.43
  -6   4   1   68.19    2.94
   6   4  -1   62.97    2.57
   6   4   0    4.86    0.51
  -6   4   0    5.07    0.78
   6   4   0    5.40    0.72
   6   4   1   12.80    0.70
  -6   4  -1   12.15    1.23
   6   4   1   10.40    1.05
  -6   4  -2   31.23    2.04
   6   4   2   31.03    1.92
  -6   4  -2   32.26    2.16
  -6   4  -3    4.00    0.83
   6   4   3    3.80    0.72
  -6   4  -4   23.49    1.69
  -6   4  -4   26.70    2.18
  -6   4  -5    3.29    0.85
   6   4   5    2.44    0.67
  -6   4  -6    0.62    0.55
   6   4   6    0.52    0.46
  -6   4  -7    8.72    1.43
   6   4   7    6.76    1.21
  -6   5  10   -0.36    0.42
  -6   5   9    3.24    0.86
  -6   5   8    8.48    1.25
  -6   5   7    1.27    0.57
  -6   5   6   12.45    1.36
  -6   5   5   10.82    1.22
  -6   5   4   68.86    3.16
  -6   5   3    0.49    0.29
   6   5  -2    1.14    0.32
  -6   5   2    1.53    0.50
   6   5  -1   23.13    1.31
  -6   5   1   21.27    1.64
   6   5  -1   23.22    1.43
   6   5   0   17.75    1.00
  -6   5   0   18.35    1.53
   6   5   0   16.07    1.24
  -6   5  -1   10.74    1.20
   6   5   1   11.60    1.07
  -6   5  -2   10.77    1.24
   6   5   2   11.60    1.15
  -6   5  -3    4.14    0.86
   6   5   3    4.69    0.78
  -6   5  -4   -0.02    0.32
   6   5   4    0.12    0.25
  -6   5  -5    8.98    1.34
   6   5   5    6.63    1.06
   6   5   6   12.56    1.54
  -6   5  -6   11.63    1.63
   6   5   7   17.07    1.90
  -6   5  -7   17.84    2.08
  -6   6  10    4.63    1.07
  -6   6   9    0.37    0.40
  -6   6   8    0.73    0.48
  -6   6   7    9.18    1.26
  -6   6   6   -0.41    0.37
  -6   6   5    9.80    1.21
  -6   6   4    9.71    1.16
  -6   6   3    8.55    1.09
  -6   6   2   15.29    1.45
   6   6  -2   13.34    1.01
   6   6  -1   26.95    1.47
  -6   6   1   27.27    1.93
   6   6  -1   26.19    1.50
  -6   6   0   12.34    1.30
   6   6   0   12.15    1.04
   6   6   1    7.73    0.87
  -6   6  -1    5.20    0.90
  -6   6  -2   15.75    1.56
   6   6   2   14.78    1.30
   6   6   3    6.80    0.94
   6   6   4    4.04    0.77
  -6   6  -4    4.59    0.96
  -6   6  -5    0.20    0.30
   6   6   5    1.05    0.49
  -6   6  -6    2.58    0.85
   6   6   6    4.51    0.94
  -6   6  -7   -0.14    0.39
  -6   7  10    3.09    0.92
  -6   7   9   10.92    1.54
  -6   7   8    9.04    1.35
  -6   7   7   22.44    2.04
  -6   7   6    5.67    1.02
  -6   7   5   25.70    2.05
  -6   7   4    3.76    0.82
  -6   7   3    4.49    0.83
  -6   7   2    0.33    0.42
  -6   7   1    0.58    0.39
   6   7  -1    0.35    0.19
  -6   7   0    3.00    0.70
   6   7   0    2.11    0.43
  -6   7  -1    4.21    0.86
   6   7   1    3.54    0.60
  -6   7  -2    1.26    0.55
   6   7   2    1.07    0.39
   6   7   3    8.12    1.02
  -6   7  -4    0.31    0.38
   6   7   4    0.83    0.40
  -6   7  -5    0.66    0.54
   6   7   5    0.25    0.30
  -6   7  -6   11.72    1.72
  -6   8   9    1.24    0.68
  -6   8   8    5.04    1.05
  -6   8   7    0.60    0.48
  -6   8   6    5.32    1.02
  -6   8   5    4.08    0.88
  -6   8   4    4.99    0.94
  -6   8   3    0.96    0.48
  -6   8   2   15.70    1.57
  -6   8   1   16.15    1.60
  -6   8   0   13.92    1.50
  -6   8  -1    2.19    0.65
  -6   8  -2   24.71    2.10
  -6   8  -5    1.50    0.65
  -6   8  -6    1.76    0.79
  -6   9   8    0.54    0.46
  -6   9   7    5.74    1.10
  -6   9   6    4.58    0.97
  -6   9   5    6.03    1.09
  -6   9   4    9.89    1.34
  -6   9   3    9.40    1.27
  -6   9   2   10.49    1.35
  -6   9   1    0.37    0.37
  -6   9   0    0.63    0.42
  -6   9  -1    4.80    0.95
  -6   9  -2    6.99    1.16
  -6   9  -5    2.18    0.76
  -6  10   7    0.51    0.52
  -6  10   6    1.30    0.62
  -6  10   5    4.72    0.99
  -6  10   4    3.79    0.90
  -6  10   3    3.85    0.88
  -6  10   2    1.01    0.48
  -6  10   1    3.88    0.85
  -6  10   0    6.81    1.14
  -6  10  -1   13.52    1.63
  -6  11   6    1.63    0.70
  -6  11   5    4.28    0.99
  -6  11   4    2.40    0.76
  -6  11   3   11.53    1.52
  -6  11   2   19.60    1.99
  -6  11   1   18.99    1.95
  -6  11   0    3.06    0.85
  -6  11  -1   -0.03    0.32
  -6  12   3   10.67    1.55
  -6  12   2    3.62    0.91
  -6  12   1   13.29    1.68
  -6  12   0    1.04    0.58
   7 -11  -4    3.27    0.90
   7 -11  -3    3.95    0.98
   7 -11  -2    2.86    0.87
   7 -11  -1   10.23    1.51
  -7 -11   0    5.11    1.14
   7 -10  -6    2.57    0.88
   7 -10  -5    7.06    1.25
   7 -10  -4   10.70    1.53
   7 -10  -3    9.22    1.41
   7 -10  -2    3.41    0.92
   7 -10  -1    1.42    0.60
   7 -10   0    1.50    0.62
  -7 -10   0    2.14    0.74
  -7 -10  -1    4.69    1.06
  -7 -10  -2    1.59    0.61
   7  -9  -7    6.04    1.16
   7  -9  -6    7.72    1.26
   7  -9  -5    9.64    1.41
   7  -9  -4    9.18    1.35
   7  -9  -3    1.21    0.54
   7  -9  -2    8.03    1.27
   7  -9  -1    6.12    1.12
   7  -9   0   22.22    2.08
   7  -9   0   20.95    1.79
  -7  -9   0   16.36    1.89
  -7  -9  -1    3.05    0.83
   7  -9   1    1.98    0.60
   7  -9   2    2.42    0.66
  -7  -9  -2    1.54    0.60
  -7  -9  -3    2.16    0.70
   7  -9   3    1.18    0.51
   7  -8  -8    1.59    0.64
   7  -8  -7   18.65    1.94
   7  -8  -6    1.08    0.53
   7  -8  -5   20.49    1.97
   7  -8  -4    2.80    0.78
   7  -8  -3    1.67    0.59
   7  -8  -2    0.89    0.52
   7  -8  -1    0.35    0.39
  -7  -8   0    0.01    0.24
   7  -8   0   -0.42    0.38
   7  -8   0   -0.73    0.44
   7  -8   1    0.73    0.48
   7  -8   1    1.42    0.53
  -7  -8  -1    1.95    0.64
  -7  -8  -2    2.26    0.68
   7  -8   2    1.15    0.54
  -7  -8  -3   10.88    1.45
   7  -8   3   10.74    1.36
  -7  -8  -4    7.97    1.23
   7  -8   4   11.05    1.43
   7  -7  -9    2.86    0.87
   7  -7  -8    4.17    0.98
   7  -7  -7   14.24    1.66
   7  -7  -6    2.59    0.76
   7  -7  -5    4.05    0.87
   7  -7  -4   10.46    1.35
   7  -7  -3   20.02    1.84
   7  -7  -2   19.09    1.79
   7  -7  -1    9.38    1.27
   7  -7   0    3.88    0.83
   7  -7   0    4.11    0.82
   7  -7   1    1.49    0.57
  -7  -7  -1    1.42    0.53
   7  -7   1    2.90    0.70
  -7  -7  -2    1.17    0.51
   7  -7   2    0.85    0.48
   7  -7   3    1.28    0.56
  -7  -7  -3    1.69    0.58
  -7  -7  -4    3.49    0.78
   7  -7   4    1.16    0.55
  -7  -7  -5    5.00    0.96
   7  -7   5    4.95    1.00
   7  -6 -10    8.16    1.36
   7  -6  -9    2.89    0.82
   7  -6  -8    2.48    0.75
   7  -6  -7    5.56    1.04
   7  -6  -6   17.40    1.75
   7  -6  -5    9.49    1.28
   7  -6  -4    4.37    0.91
   7  -6  -3    3.73    0.81
   7  -6  -2    8.06    1.13
   7  -6  -1   19.64    1.74
   7  -6   0   15.37    1.48
   7  -6   0   15.39    1.54
   7  -6   1   12.47    1.39
   7  -6   1   13.29    1.40
   7  -6   2    3.66    0.76
  -7  -6  -2    2.87    0.68
   7  -6   2    4.65    0.89
  -7  -6  -3    9.19    1.29
   7  -6   3   10.22    1.33
   7  -6   4    4.17    0.91
  -7  -6  -4    6.95    1.04
   7  -6   5    2.13    0.73
   7  -6   6    1.58    0.70
   7  -5 -10    0.35    0.41
   7  -5  -9    0.71    0.51
   7  -5  -8    3.64    0.86
   7  -5  -7    1.33    0.55
   7  -5  -6    7.09    1.12
   7  -5  -5   16.47    1.63
   7  -5  -4   20.43    1.76
   7  -5  -3   25.57    1.94
   7  -5  -2    0.32    0.36
   7  -5  -1    4.34    0.80
   7  -5   0   18.31    1.60
   7  -5   0   19.58    1.65
   7  -5   1   16.14    1.51
   7  -5   1   15.87    1.52
   7  -5   2   35.79    2.30
   7  -5   2   41.91    2.59
  -7  -5  -3    6.93    1.01
   7  -5   3    9.90    1.30
  -7  -5  -4    2.58    0.66
   7  -5   4    3.19    0.78
   7  -5   5    0.26    0.32
   7  -5   6    0.49    0.40
   7  -4 -10   10.23    1.48
   7  -4  -9    0.94    0.53
   7  -4  -8    2.39    0.72
   7  -4  -7    3.30    0.80
   7  -4  -6   39.09    2.55
   7  -4  -5   10.42    1.28
   7  -4  -4   33.41    2.22
   7  -4  -3   36.85    2.28
   7  -4  -2   17.65    1.53
   7  -4  -1    4.61    0.79
   7  -4   0    8.16    1.03
   7  -4   1   14.36    1.34
   7  -4   1   15.15    1.47
   7  -4   2   23.59    1.74
   7  -4   2   22.36    1.87
   7  -4   3    6.14    1.03
   7  -4   4    7.63    1.17
  -7  -4  -4    7.92    1.22
   7  -4   5   17.86    1.85
   7  -4   6    6.70    1.21
  -7  -3  11    4.24    0.92
   7  -3 -11    2.53    0.87
  -7  -3  10    0.96    0.49
   7  -3 -10    0.36    0.38
  -7  -3   9    4.01    0.78
   7  -3  -9    3.17    0.82
  -7  -3   8    2.97    0.64
   7  -3  -8    3.47    0.81
  -7  -3   7    1.74    0.45
   7  -3  -7    2.19    0.64
   7  -3  -6    6.71    1.05
  -7  -3   6    6.42    0.77
   7  -3  -5   10.51    1.23
  -7  -3   5    9.63    0.86
   7  -3  -4   18.65    1.60
  -7  -3   4   19.19    1.14
   7  -3  -3   71.12    3.23
  -7  -3   3   76.08    2.41
   7  -3  -2   44.11    2.40
  -7  -3   2   46.02    1.71
   7  -3  -1    1.61    0.45
   7  -3   0    4.69    0.74
  -7  -3   0    5.58    0.79
   7  -3   1   36.83    2.12
   7  -3   1   38.57    2.36
  -7  -3  -1   39.27    2.28
   7  -3   2    6.70    0.88
   7  -3   2    6.71    1.01
  -7  -3  -2    7.40    1.05
   7  -3   3    4.15    0.83
  -7  -3  -3    3.50    0.78
   7  -3   4    0.63    0.49
  -7  -3  -4    1.26    0.63
   7  -3   5   15.31    1.72
  -7  -3  -5   18.16    1.92
   7  -3   6    2.02    0.72
  -7  -3  -6    2.57    0.78
   7  -3   7    1.16    0.63
  -7  -3  -7    0.49    0.58
  -7  -2  11    4.43    0.98
   7  -2 -11    3.47    0.97
  -7  -2  10    1.48    0.60
   7  -2 -10    1.81    0.72
  -7  -2   9    5.05    0.89
   7  -2  -9    3.69    0.89
  -7  -2   8    1.39    0.46
   7  -2  -8    2.49    0.76
   7  -2  -7   21.52    1.87
  -7  -2   7   18.36    1.45
  -7  -2   7   17.33    1.50
   7  -2  -6   35.68    2.36
  -7  -2   6   38.79    2.02
  -7  -2   6   34.76    2.16
   7  -2  -5    7.93    1.10
  -7  -2   5    7.16    0.78
  -7  -2   5    6.96    0.94
   7  -2  -4   15.88    1.43
  -7  -2   4   15.72    1.10
  -7  -2   4   15.32    1.41
   7  -2  -3   47.82    2.50
  -7  -2   3   49.95    1.99
  -7  -2   3   45.81    2.56
  -7  -2   2    4.78    0.56
   7  -2  -2    4.95    0.76
  -7  -2   2    3.33    0.67
   7  -2  -1   13.99    1.23
  -7  -2   1   13.80    0.96
  -7  -2   1   14.59    1.41
  -7  -2   1   14.24    1.12
   7  -2   0   10.60    1.05
   7  -2   0    9.62    1.14
  -7  -2   0   10.06    1.19
  -7  -2   0    9.41    0.99
   7  -2   1    1.16    0.39
   7  -2   1    0.44    0.34
  -7  -2  -1    0.70    0.37
   7  -2   2    7.53    0.87
   7  -2   2    9.56    1.22
  -7  -2  -2    7.02    1.00
   7  -2   3   12.42    1.42
  -7  -2  -3    9.35    1.22
   7  -2   4   12.38    1.46
  -7  -2  -4   13.16    1.55
   7  -2   5   34.28    2.56
  -7  -2  -5   32.21    2.54
   7  -2   6   15.49    1.82
  -7  -2  -6   14.71    1.80
   7  -2   7   -0.80    0.59
  -7  -2  -7    0.82    0.51
  -7  -1  11    0.03    0.27
   7  -1 -11    0.62    0.49
  -7  -1  10   10.27    1.35
   7  -1 -10   11.88    1.58
  -7  -1   9    1.29    0.47
   7  -1  -9    2.61    0.77
  -7  -1   8    1.35    0.48
   7  -1  -8    1.33    0.56
  -7  -1   8    1.51    0.45
  -7  -1   7    5.25    0.81
   7  -1  -7    5.43    0.95
  -7  -1   7    5.04    0.79
   7  -1  -6   33.61    2.27
  -7  -1   6   35.19    1.99
  -7  -1   6   35.64    2.17
   7  -1  -5   14.15    1.38
  -7  -1   5   14.19    1.16
  -7  -1   5   13.43    1.30
   7  -1  -4    3.36    0.66
  -7  -1   4    4.10    0.72
  -7  -1   4    4.98    0.65
   7  -1  -3    7.39    0.93
  -7  -1   3    5.56    0.66
  -7  -1   3    7.03    0.95
  -7  -1   3    5.33    0.52
   7  -1  -2   81.26    3.28
  -7  -1   2   96.00    3.07
  -7  -1   2   85.84    3.64
  -7  -1   2   93.13    2.92
   7  -1  -1    3.81    0.63
  -7  -1   1    2.53    0.45
  -7  -1   1    3.69    0.72
  -7  -1   1    3.29    0.53
   7  -1   0    6.76    0.82
  -7  -1   0    7.83    0.80
   7  -1   0    6.98    0.95
  -7  -1   0    7.59    0.89
  -7  -1   0    6.84    0.95
   7  -1   1   21.56    1.44
   7  -1   1   22.54    1.74
  -7  -1  -1   23.41    1.79
  -7  -1  -1   22.49    1.65
   7  -1   2    9.79    0.94
  -7  -1  -2    8.75    1.10
   7  -1   2    8.89    1.16
  -7  -1  -2    7.98    1.04
   7  -1   3    1.63    0.60
  -7  -1  -3    1.03    0.43
   7  -1   4   10.80    1.36
  -7  -1  -4   13.80    1.54
   7  -1   5    7.15    1.19
  -7  -1  -5    8.54    1.28
   7  -1   6    1.71    0.72
  -7  -1  -6    0.33    0.44
   7  -1   7   -0.06    0.42
  -7  -1  -7    0.61    0.55
  -7   0  11    4.51    1.01
   7   0 -11    1.99    0.75
   7   0 -10   12.66    1.64
  -7   0  10   14.03    1.61
   7   0  -9   14.04    1.65
  -7   0   9   15.25    1.59
  -7   0   8    3.30    0.72
   7   0  -8    2.80    0.74
  -7   0   8    2.95    0.60
   7   0  -7   30.33    2.24
  -7   0   7   30.94    2.02
  -7   0   7   28.24    1.93
   7   0  -6    6.14    0.96
  -7   0   6    5.68    0.84
  -7   0   6    6.63    0.87
   7   0  -5    0.34    0.35
  -7   0   5    0.05    0.15
  -7   0   5    0.13    0.24
   7   0  -4    0.02    0.22
  -7   0   4    0.08    0.26
  -7   0   4    0.07    0.20
   7   0  -3    8.96    0.99
  -7   0   3   10.55    0.98
  -7   0   3    9.74    1.13
  -7   0   3   10.27    0.73
  -7   0   2    3.26    0.49
   7   0  -2    3.49    0.60
  -7   0   2    3.14    0.65
  -7   0   2    3.61    0.56
   7   0  -1   36.72    1.95
  -7   0   1   44.93    2.05
  -7   0   1   41.52    2.37
  -7   0   1   40.63    1.98
  -7   0   0    3.52    0.61
   7   0   0    5.16    0.67
  -7   0   0    4.74    0.66
  -7   0   0    5.27    0.84
   7   0   0    3.66    0.69
  -7   0  -1    0.69    0.30
   7   0   1    0.54    0.23
   7   0   1    1.42    0.53
  -7   0  -1    1.29    0.46
  -7   0  -2    3.58    0.74
   7   0   2    3.60    0.53
   7   0   2    4.90    0.88
  -7   0  -2    3.95    0.77
  -7   0  -3    0.99    0.44
   7   0   3    0.90    0.47
  -7   0  -3    0.45    0.29
   7   0   4   14.63    1.59
  -7   0  -4   11.82    1.45
   7   0   5   25.32    2.18
  -7   0  -5   28.03    2.33
   7   0   6    1.26    0.64
  -7   0  -6    0.61    0.44
   7   0   7    5.06    1.09
  -7   0  -7    3.71    0.96
  -7   1  11    1.12    0.60
   7   1 -11    0.22    0.44
  -7   1  10   11.97    1.54
   7   1 -10   10.70    1.53
  -7   1   9    3.34    0.78
   7   1  -9    3.23    0.84
  -7   1   8    1.72    0.54
   7   1  -8    1.39    0.58
  -7   1   8    2.24    0.54
  -7   1   7    5.84    0.92
   7   1  -7    6.63    1.03
  -7   1   7    7.09    0.95
   7   1  -6   33.36    2.25
  -7   1   6   35.75    2.13
   7   1  -5   14.17    1.37
  -7   1   5   13.39    1.22
   7   1  -4    5.71    0.82
  -7   1   4    4.93    0.74
  -7   1   3    6.79    0.82
   7   1  -3    5.11    0.76
  -7   1   3    5.84    0.59
   7   1  -2   88.21    3.28
  -7   1   2   95.80    3.35
  -7   1   2   88.29    2.98
  -7   1   1    4.05    0.60
   7   1  -1    3.53    0.56
  -7   1   1    4.09    0.74
  -7   1   1    3.80    0.61
   7   1   0    7.03    0.75
  -7   1   0    8.24    0.91
  -7   1   0    6.21    0.89
   7   1   0    6.90    0.93
  -7   1   0    7.57    0.89
   7   1   1   22.63    1.31
  -7   1  -1   24.01    1.62
  -7   1  -1   20.92    1.67
   7   1   1   23.09    1.75
  -7   1  -1   21.08    1.62
  -7   1  -2    8.27    1.09
   7   1   2    8.30    0.73
  -7   1  -2    8.84    1.09
   7   1   2    9.85    1.20
  -7   1  -3    0.81    0.42
   7   1   3    1.83    0.58
  -7   1  -3    1.20    0.42
   7   1   4   13.13    1.49
  -7   1  -4   11.88    1.31
  -7   1  -4   14.75    1.60
  -7   1  -5    6.04    1.11
   7   1   5    6.81    1.16
  -7   1  -6    0.21    0.38
   7   1   6    1.55    0.65
  -7   1  -7    0.86    0.57
   7   1   7    1.55    0.79
  -7   2  11    1.96    0.74
   7   2 -11    3.50    0.98
  -7   2  10    0.86    0.53
   7   2 -10    2.17    0.74
  -7   2   9    6.68    1.12
   7   2  -9    3.41    0.88
  -7   2   8    1.39    0.53
   7   2  -8    1.51    0.62
   7   2  -7   18.38    1.75
  -7   2   7   20.09    1.71
   7   2  -6   34.03    2.27
  -7   2   6   33.94    2.15
   7   2  -5    5.95    0.92
  -7   2   5    7.41    0.95
   7   2  -4   16.71    1.40
  -7   2   4   16.68    1.39
  -7   2   4   17.35    0.99
   7   2  -3   47.76    2.35
  -7   2   3   49.50    2.42
  -7   2   3   48.04    1.96
  -7   2   2    4.31    0.61
   7   2  -2    3.85    0.60
  -7   2   2    4.65    0.71
   7   2  -1   12.19    1.01
  -7   2   1   13.67    1.21
  -7   2   1   14.91    1.21
   7   2   0   10.88    0.90
  -7   2   0    9.57    1.03
   7   2   0   10.97    1.13
  -7   2   0    9.74    1.05
  -7   2  -1    0.77    0.33
   7   2   1    0.64    0.21
  -7   2  -1    0.81    0.37
  -7   2  -1    0.99    0.40
   7   2   1    1.53    0.49
  -7   2  -2    8.32    1.09
  -7   2  -2    6.55    0.94
   7   2   2    8.58    1.09
  -7   2  -3   11.37    1.24
   7   2   3   10.25    1.27
  -7   2  -3   10.95    1.35
   7   2   4   16.00    1.65
  -7   2  -4   13.43    1.35
  -7   2  -4   15.27    1.66
   7   2   5   28.61    2.33
  -7   2  -5   31.27    2.52
   7   2   6   15.18    1.78
  -7   2  -6   18.80    2.06
  -7   2  -7   -0.02    0.49
   7   2   7    0.91    0.57
  -7   3  11    3.90    1.01
   7   3 -11    1.62    0.72
  -7   3  10    0.38    0.38
   7   3 -10    0.20    0.49
  -7   3   9    2.61    0.75
   7   3  -9    3.27    0.85
  -7   3   8    3.39    0.81
   7   3  -8    2.12    0.66
   7   3  -7    2.01    0.65
  -7   3   7    1.29    0.48
   7   3  -6    8.53    1.12
  -7   3   6    8.52    1.10
   7   3  -5    7.66    1.04
  -7   3   5    7.22    0.98
   7   3  -4   17.66    1.47
  -7   3   4   19.48    1.56
   7   3  -3   73.33    3.00
  -7   3   3   70.28    3.09
   7   3  -2   48.52    2.22
  -7   3   2   46.54    2.41
  -7   3   2   45.43    2.16
   7   3  -1    0.37    0.21
  -7   3   1    0.72    0.36
   7   3  -1    0.69    0.34
  -7   3   0    5.27    0.80
   7   3   0    5.83    0.62
  -7   3   0    3.89    0.70
   7   3   0    5.17    0.77
  -7   3  -1   37.86    2.24
   7   3   1   34.58    2.15
  -7   3  -1   38.56    2.33
  -7   3  -2    6.68    1.01
  -7   3  -2    7.08    0.99
   7   3   2    7.52    1.02
  -7   3  -3    3.27    0.74
  -7   3  -3    3.39    0.70
   7   3   3    3.67    0.77
  -7   3  -4    1.81    0.67
   7   3   4    0.98    0.46
  -7   3  -4    1.09    0.42
   7   3   5   19.80    1.94
  -7   3  -5   19.76    2.03
  -7   3  -6    2.69    0.88
   7   3   6    1.86    0.68
  -7   3  -7    0.29    0.43
   7   3   7    0.08    0.39
  -7   4  10    7.82    1.33
   7   4 -10    7.92    1.39
  -7   4   9    0.88    0.58
   7   4  -9    0.55    0.50
   7   4  -8    5.64    1.05
  -7   4   8    3.43    0.81
   7   4  -7    3.76    0.83
  -7   4   7    2.67    0.70
   7   4  -6   40.55    2.55
  -7   4   6   40.32    2.51
   7   4  -5   12.38    1.31
  -7   4   5   10.32    1.21
   7   4  -4   32.34    2.01
  -7   4   4   30.37    2.06
   7   4  -3   32.03    1.89
  -7   4   3   32.70    2.09
   7   4  -2   17.89    1.29
  -7   4   2   15.71    1.43
   7   4  -1    4.14    0.56
  -7   4   1    3.98    0.74
   7   4  -1    2.54    0.56
  -7   4   0    8.27    1.02
   7   4   0    8.49    0.73
  -7   4   0    9.68    1.13
   7   4   0    8.00    0.98
  -7   4  -1   16.29    1.50
   7   4   1   12.57    1.25
  -7   4  -1   17.68    1.59
   7   4   2   20.71    1.69
  -7   4  -2   23.36    1.95
  -7   4  -3    8.16    1.23
   7   4   3    7.73    1.09
  -7   4  -4    7.17    1.19
   7   4   4    8.11    1.16
  -7   4  -4    8.17    1.07
   7   4   5   23.49    2.10
  -7   4  -5   21.15    2.15
  -7   4  -6    6.81    1.26
   7   4   6    6.56    1.19
  -7   5  10   -0.01    0.31
  -7   5   9    1.18    0.58
  -7   5   8    3.46    0.86
  -7   5   7    2.06    0.64
  -7   5   6    7.89    1.14
  -7   5   5   17.39    1.63
   7   5  -4   14.63    1.36
  -7   5   4   20.51    1.73
   7   5  -3   24.46    1.67
  -7   5   3   28.29    2.01
   7   5  -2    0.28    0.20
  -7   5   2    0.08    0.25
   7   5  -2    0.08    0.18
   7   5  -1    4.44    0.58
  -7   5   1    4.92    0.84
   7   5  -1    3.76    0.64
  -7   5   0   16.66    1.56
   7   5   0   21.89    1.58
  -7   5  -1   15.22    1.52
   7   5   1   13.28    1.28
  -7   5  -1   18.32    1.67
   7   5   2   37.03    2.27
  -7   5  -2   35.95    2.50
  -7   5  -3    9.04    1.31
   7   5   3    9.46    1.20
  -7   5  -4    3.11    0.87
  -7   5  -4    3.02    0.68
   7   5   4    2.97    0.73
  -7   5  -5    0.63    0.48
   7   5   5    2.04    0.67
  -7   5  -6    2.57    0.84
   7   5   6    0.87    0.53
  -7   6  10   10.54    1.59
  -7   6   9    2.66    0.85
  -7   6   8    1.34    0.59
  -7   6   7    5.49    1.04
  -7   6   6   18.79    1.80
  -7   6   5    9.12    1.23
  -7   6   4    5.82    0.98
   7   6  -3    3.63    0.65
  -7   6   3    2.60    0.68
   7   6  -2    6.46    0.79
   7   6  -2    7.07    0.82
  -7   6   2    6.92    1.03
  -7   6   1   21.82    1.82
   7   6  -1   19.26    1.42
  -7   6   0   19.27    1.74
   7   6   0   13.24    1.21
  -7   6  -1   14.77    1.55
   7   6   1   14.97    1.34
  -7   6  -2    3.66    0.86
   7   6   2    3.00    0.66
  -7   6  -3   11.65    1.53
   7   6   3   10.25    1.23
  -7   6  -4    4.06    0.98
   7   6   4    5.19    0.96
  -7   6  -5    2.17    0.77
   7   6   5    2.70    0.74
  -7   6  -6    1.85    0.72
   7   6   6    0.15    0.44
  -7   7   9    3.32    0.95
  -7   7   8    4.15    0.94
  -7   7   7   11.44    1.51
  -7   7   6    3.18    0.79
  -7   7   5    2.56    0.76
  -7   7   4   14.91    1.60
  -7   7   3   25.91    2.07
   7   7  -2   17.97    1.35
  -7   7   2   14.50    1.57
  -7   7   1   12.29    1.44
  -7   7   0    5.05    0.95
   7   7   0    4.50    0.70
  -7   7  -1    1.88    0.63
   7   7   1    2.42    0.54
   7   7   2    0.84    0.36
  -7   7  -3    0.86    0.52
   7   7   3    0.43    0.35
  -7   7  -4    1.04    0.61
   7   7   4    3.03    0.71
  -7   7  -5    3.22    0.96
   7   7   5    5.72    1.03
  -7   8   8    2.06    0.74
  -7   8   7   18.74    1.98
  -7   8   6    1.26    0.52
  -7   8   5   19.17    1.91
  -7   8   4    2.09    0.68
  -7   8   3    2.07    0.63
  -7   8   2    0.41    0.38
  -7   8   1    0.73    0.45
  -7   8   0   -0.47    0.39
  -7   8  -1    1.03    0.52
  -7   8  -4   12.03    1.71
  -7   9   7    5.13    1.06
  -7   9   6    9.68    1.45
  -7   9   5   10.22    1.45
  -7   9   4    8.55    1.32
  -7   9   3    2.76    0.79
  -7   9   2    7.31    1.19
  -7   9   1    6.81    1.18
  -7   9   0   19.43    1.94
  -7   9  -1    2.18    0.68
  -7  10   6    5.69    1.20
  -7  10   5    8.10    1.34
  -7  10   4    9.87    1.45
  -7  10   3   13.45    1.71
  -7  10   2    2.95    0.84
  -7  10   1    2.72    0.83
  -7  10   0    1.43    0.67
  -7  10  -1    3.53    0.92
  -7  11   4    4.85    1.07
  -7  11   3    2.31    0.76
  -7  11   2    2.89    0.86
  -7  11   1   11.62    1.60
  -7  11   0    6.46    1.22
   8 -10  -4    9.43    1.50
   8 -10  -3    5.07    1.12
   8 -10  -2   14.53    1.80
   8 -10  -1   11.98    1.65
   8 -10   0    1.19    0.69
   8  -9  -6    1.00    0.64
   8  -9  -5   17.73    1.99
   8  -9  -4    5.00    1.11
   8  -9  -3    0.22    0.37
   8  -9  -2    0.50    0.46
   8  -9  -1    4.55    1.02
   8  -9  -1    5.41    0.99
   8  -9   0    1.95    0.76
   8  -9   0    1.94    0.64
   8  -9   1   15.94    1.74
   8  -9   2   10.73    1.44
  -8  -9  -2    8.69    1.40
   8  -8  -7   13.53    1.73
   8  -8  -6    8.18    1.34
   8  -8  -5    6.40    1.18
   8  -8  -4   16.68    1.83
   8  -8  -3    6.18    1.11
   8  -8  -2    1.38    0.62
   8  -8  -1    1.42    0.60
   8  -8  -1    1.96    0.62
   8  -8   0    2.80    0.81
   8  -8   0    1.59    0.58
   8  -8   1    0.10    0.29
   8  -8   1    0.34    0.48
   8  -8   2    1.09    0.55
   8  -8   3    0.29    0.39
  -8  -8  -3   -0.18    0.40
   8  -7  -8    4.05    1.00
   8  -7  -7    2.13    0.75
   8  -7  -6    2.09    0.72
   8  -7  -5    1.32    0.59
   8  -7  -4    4.66    0.97
   8  -7  -3    6.90    1.14
   8  -7  -2    1.81    0.67
   8  -7  -1   -0.02    0.35
   8  -7   0    1.85    0.62
   8  -7   0    3.44    0.81
   8  -7   1    3.80    0.88
   8  -7   1    2.62    0.72
   8  -7   2   11.87    1.51
   8  -7   3   10.91    1.45
   8  -7   4    0.50    0.38
   8  -6  -9    6.24    1.18
   8  -6  -8    3.77    0.94
   8  -6  -7    3.52    0.88
   8  -6  -6   11.63    1.52
   8  -6  -5   26.34    2.22
   8  -6  -4   21.33    1.99
   8  -6  -3    9.79    1.30
   8  -6  -2    2.15    0.69
   8  -6  -1    1.71    0.56
   8  -6   0    1.57    0.61
   8  -6   0    1.85    0.62
   8  -6   1    0.77    0.38
   8  -6   1    0.24    0.41
   8  -6   2    3.12    0.79
   8  -6   3    3.03    0.81
   8  -6   4    3.27    0.87
   8  -5  -9    1.62    0.65
   8  -5  -8    7.15    1.26
   8  -5  -7    2.10    0.71
   8  -5  -6    2.59    0.72
   8  -5  -5    3.11    0.76
   8  -5  -4    4.91    0.94
   8  -5  -3   11.21    1.35
   8  -5  -2    4.29    0.85
   8  -5  -1    7.57    1.09
   8  -5   0   13.58    1.46
   8  -5   0   14.42    1.53
   8  -5   1    9.72    1.25
   8  -5   1   10.51    1.33
   8  -5   2   29.80    2.20
   8  -5   2   36.19    2.58
   8  -5   3   24.27    2.16
   8  -5   4    1.16    0.61
   8  -5   5    0.86    0.59
   8  -4 -10    1.73    0.68
   8  -4  -9    2.14    0.72
   8  -4  -8    5.41    1.09
   8  -4  -7    2.37    0.69
   8  -4  -6    2.19    0.66
   8  -4  -5   35.87    2.49
   8  -4  -4   18.26    1.73
   8  -4  -3    0.00    0.29
   8  -4  -2    8.75    1.15
   8  -4  -1    9.01    1.14
   8  -4   0   12.67    1.35
   8  -4   0   13.96    1.48
   8  -4   1    9.40    1.15
   8  -4   1    8.60    1.21
   8  -4   2    2.42    0.62
   8  -4   2    1.72    0.61
   8  -4   3    4.26    0.91
   8  -4   4    0.39    0.43
   8  -4   5    2.31    0.76
   8  -3 -10    3.45    0.93
   8  -3  -9    5.11    1.08
   8  -3  -8   14.12    1.69
   8  -3  -7    1.78    0.65
   8  -3  -6   21.31    1.92
   8  -3  -5   28.32    2.14
   8  -3  -4    3.20    0.73
   8  -3  -3    8.56    1.13
   8  -3  -2    1.22    0.43
   8  -3  -1   25.35    1.86
   8  -3   0    1.40    0.49
   8  -3   0    1.00    0.48
  -8  -3   0    1.87    0.53
   8  -3   1    9.77    1.12
   8  -3   1    8.82    1.20
  -8  -3  -1    8.57    1.11
   8  -3   2   20.60    1.64
   8  -3   2   23.89    2.06
  -8  -3  -2   20.97    1.86
   8  -3   3   25.18    2.18
  -8  -3  -3   21.08    1.99
   8  -3   4    5.06    1.04
  -8  -3  -4    3.77    0.93
   8  -3   5   13.77    1.73
  -8  -3  -5   17.84    2.00
   8  -3   6    6.18    1.23
  -8  -3  -6    6.99    1.38
  -8  -2  10    0.26    0.31
   8  -2 -10    0.29    0.39
  -8  -2   9    4.56    0.88
   8  -2  -9    4.80    1.00
   8  -2  -8   17.32    1.84
  -8  -2   8   17.84    1.56
   8  -2  -7    9.41    1.31
  -8  -2   7    7.02    1.03
  -8  -2   7    7.70    0.96
   8  -2  -6    5.68    0.99
  -8  -2   6    5.61    0.93
  -8  -2   6    6.17    0.81
   8  -2  -5   27.11    2.09
  -8  -2   5   29.80    1.72
  -8  -2   5   29.41    2.14
   8  -2  -4    5.62    0.92
  -8  -2   4    4.72    0.64
  -8  -2   4    3.50    0.75
   8  -2  -3    1.07    0.45
  -8  -2   3    0.62    0.25
  -8  -2   3    0.66    0.35
   8  -2  -2   30.52    2.03
  -8  -2   2   32.23    1.63
  -8  -2   2   30.31    2.22
   8  -2  -1   43.70    2.39
  -8  -2   1   44.67    1.98
  -8  -2   1   46.83    2.78
  -8  -2   1   41.75    2.18
   8  -2   0    1.70    0.48
   8  -2   0    1.36    0.52
  -8  -2   0    1.48    0.43
  -8  -2   0    1.17    0.47
   8  -2   1    5.95    0.85
   8  -2   1    6.21    1.00
  -8  -2  -1    6.33    0.95
   8  -2   2    7.45    0.93
   8  -2   2    7.59    1.17
  -8  -2  -2    7.68    1.12
   8  -2   3    0.99    0.53
  -8  -2  -3    0.84    0.47
   8  -2   4    0.25    0.39
  -8  -2  -4   -0.23    0.41
   8  -2   5    9.14    1.43
  -8  -2  -5    7.24    1.27
   8  -2   6    6.12    1.21
  -8  -2  -6    2.65    0.88
  -8  -1  10   -0.26    0.34
   8  -1 -10   -0.57    0.51
   8  -1  -9   25.94    2.33
  -8  -1   9   24.59    2.02
   8  -1  -8    5.24    1.01
  -8  -1   8    4.13    0.79
  -8  -1   8    4.08    0.79
  -8  -1   7    2.32    0.59
  -8  -1   7    2.65    0.60
  -8  -1   6   12.00    1.18
  -8  -1   6   10.14    1.22
   8  -1  -5    0.59    0.44
  -8  -1   5    0.94    0.43
  -8  -1   5    0.42    0.27
  -8  -1   4    7.90    0.88
   8  -1  -4    8.87    1.12
  -8  -1   4    7.79    1.07
   8  -1  -3   34.63    2.19
  -8  -1   3   40.40    1.99
  -8  -1   3   39.15    2.48
   8  -1  -2    2.49    0.57
  -8  -1   2    1.69    0.41
  -8  -1   2    1.85    0.54
  -8  -1   2    2.97    0.49
   8  -1  -1   17.91    1.44
  -8  -1   1   20.84    1.38
  -8  -1   1   16.06    1.58
  -8  -1   1   18.54    1.37
   8  -1   0    3.80    0.65
   8  -1   0    4.05    0.81
  -8  -1   0    4.17    0.81
  -8  -1   0    4.57    0.74
   8  -1   1    1.16    0.37
   8  -1   1    1.32    0.58
  -8  -1  -1    0.67    0.36
  -8  -1  -1    0.18    0.22
   8  -1   2   18.27    1.36
   8  -1   2   16.80    1.70
  -8  -1  -2   20.18    1.76
   8  -1   3   10.49    1.39
  -8  -1  -3    9.70    1.31
   8  -1   4    4.37    0.96
  -8  -1  -4    4.22    0.93
   8  -1   5    8.26    1.34
  -8  -1  -5    8.32    1.34
   8  -1   6   10.29    1.56
  -8  -1  -6    8.68    1.45
  -8   0  10    1.28    0.61
   8   0 -10    1.83    0.76
  -8   0   9    1.95    0.62
   8   0  -9    3.94    0.91
   8   0  -8   12.69    1.55
  -8   0   8   10.19    1.20
  -8   0   8    9.26    1.20
   8   0  -7    0.06    0.28
  -8   0   7    0.35    0.27
  -8   0   7   -0.07    0.25
   8   0  -6   16.77    1.66
  -8   0   6   19.39    1.55
  -8   0   6   17.18    1.62
   8   0  -5   25.86    1.98
  -8   0   5   26.97    1.78
  -8   0   5   27.40    2.04
  -8   0   4    8.05    0.93
   8   0  -4    7.40    1.01
  -8   0   4    6.04    0.96
   8   0  -3    0.23    0.23
  -8   0   3    0.24    0.27
  -8   0   3    0.20    0.26
   8   0  -2   63.05    2.87
  -8   0   2   64.21    2.70
  -8   0   2   59.68    3.13
  -8   0   2   62.93    2.52
   8   0  -1    7.18    0.89
  -8   0   1    8.33    0.92
  -8   0   1    7.03    1.04
  -8   0   1    8.94    0.96
   8   0   0   12.05    1.11
  -8   0   0   11.98    1.14
  -8   0   0   12.65    1.39
   8   0   0   11.94    1.32
  -8   0   0   11.52    1.17
  -8   0  -1    0.31    0.25
   8   0   1    0.37    0.24
   8   0   1    0.03    0.29
  -8   0  -1   -0.19    0.28
   8   0   2   12.49    1.43
  -8   0  -2   10.63    1.32
  -8   0  -2   12.43    1.40
  -8   0  -3    1.24    0.50
   8   0   3    1.73    0.61
  -8   0  -3    1.17    0.45
  -8   0  -4   -0.36    0.40
   8   0   4   -0.68    0.50
   8   0   5    6.84    1.23
  -8   0  -5    7.05    1.28
   8   0   6    0.44    0.52
  -8   0  -6    0.24    0.41
  -8   1  10    0.26    0.36
   8   1 -10    0.40    0.37
   8   1  -9   23.97    2.24
  -8   1   9   25.72    2.15
   8   1  -8    5.16    1.01
  -8   1   8    4.76    0.84
  -8   1   8    2.98    0.75
   8   1  -7    3.25    0.80
  -8   1   7    4.07    0.79
  -8   1   7    4.85    0.85
  -8   1   6   11.13    1.21
   8   1  -6    9.02    1.21
  -8   1   6    9.13    1.18
   8   1  -5    1.27    0.49
  -8   1   5    1.03    0.41
  -8   1   5    1.05    0.41
   8   1  -4    7.06    0.99
  -8   1   4    7.82    1.07
  -8   1   4    7.84    0.96
   8   1  -3   37.25    2.20
  -8   1   3   38.98    2.15
  -8   1   3   37.14    2.41
  -8   1   2    2.29    0.45
   8   1  -2    1.90    0.49
  -8   1   2    1.60    0.50
  -8   1   2    2.00    0.50
   8   1  -1   19.55    1.42
  -8   1   1   20.54    1.52
  -8   1   1   17.32    1.64
  -8   1   1   20.35    1.48
  -8   1   0    3.57    0.68
   8   1   0    3.48    0.57
  -8   1   0    3.83    0.69
  -8   1   0    3.64    0.74
   8   1   0    5.11    0.85
  -8   1  -1    0.41    0.32
   8   1   1    0.76    0.29
   8   1   1    0.43    0.36
  -8   1  -1    0.74    0.37
   8   1   2   17.65    1.72
  -8   1  -2   22.68    1.91
  -8   1  -2   17.65    1.68
  -8   1  -3    9.17    1.29
   8   1   3    8.60    1.24
  -8   1  -3    8.34    1.16
  -8   1  -4    5.49    1.07
   8   1   4    4.33    0.93
  -8   1  -4    2.45    0.64
  -8   1  -5    6.92    1.23
   8   1   5   10.38    1.51
  -8   1  -6    7.73    1.38
   8   1   6   10.88    1.63
  -8   2  10    0.15    0.35
   8   2 -10   -0.73    0.55
   8   2  -9    5.42    1.11
  -8   2   9    4.38    0.96
   8   2  -8   16.68    1.80
  -8   2   8   18.51    1.78
  -8   2   8   20.21    1.79
   8   2  -7    6.83    1.11
  -8   2   7    7.14    1.06
   8   2  -6    6.20    1.01
  -8   2   6    7.14    1.02
   8   2  -5   28.86    2.07
  -8   2   5   27.38    1.96
   8   2  -4    3.64    0.71
  -8   2   4    4.62    0.78
  -8   2   3    0.81    0.29
   8   2  -3    0.83    0.35
  -8   2   3    1.05    0.46
   8   2  -2   31.95    1.88
  -8   2   2   31.06    1.99
  -8   2   2   29.18    1.73
   8   2  -1   42.87    2.11
  -8   2   1   41.50    2.33
  -8   2   1   38.75    2.51
   8   2  -1   41.04    2.41
  -8   2   1   44.53    2.31
  -8   2   0    0.82    0.40
   8   2   0    1.33    0.34
  -8   2   0    0.95    0.41
  -8   2   0    1.10    0.45
   8   2   0    0.59    0.45
  -8   2  -1    7.86    1.09
  -8   2  -1    5.95    0.90
  -8   2  -1    4.67    0.88
   8   2   1    6.31    1.01
  -8   2  -2    6.98    1.09
   8   2   2    8.15    1.17
  -8   2  -2    5.27    0.93
  -8   2  -3    0.34    0.47
   8   2   3    0.05    0.36
  -8   2  -3    1.08    0.46
  -8   2  -4    0.42    0.44
   8   2   4   -0.08    0.34
  -8   2  -4    0.48    0.30
  -8   2  -5    7.83    1.34
   8   2   5    8.41    1.37
  -8   2  -6    3.60    1.00
   8   2   6    3.83    1.03
   8   3 -10    3.56    0.95
  -8   3  10    5.00    1.09
   8   3  -9    3.75    0.98
  -8   3   9    4.47    0.99
   8   3  -8   14.76    1.71
  -8   3   8   12.33    1.50
   8   3  -7    2.18    0.65
  -8   3   7    2.50    0.70
   8   3  -6   19.67    1.79
  -8   3   6   19.57    1.74
   8   3  -5   25.96    1.97
  -8   3   5   27.25    2.00
   8   3  -4    2.64    0.63
  -8   3   4    4.83    0.85
   8   3  -3    8.57    1.00
  -8   3   3    9.23    1.12
  -8   3   3    7.82    0.85
  -8   3   2    1.11    0.36
   8   3  -2    1.44    0.41
  -8   3   2    1.79    0.55
   8   3  -1   23.22    1.47
  -8   3   1   21.15    1.70
   8   3  -1   22.95    1.75
  -8   3   1   22.58    1.67
  -8   3   0    1.32    0.48
  -8   3   0    1.49    0.52
   8   3   0    1.77    0.54
  -8   3  -1    9.82    1.20
  -8   3  -1    8.74    1.18
   8   3   1    7.91    1.12
  -8   3  -1    9.82    1.23
  -8   3  -2   23.91    1.96
   8   3   2   19.08    1.77
  -8   3  -2   21.18    1.90
  -8   3  -3   23.36    1.96
   8   3   3   25.07    2.09
  -8   3  -3   22.58    2.07
  -8   3  -4    4.64    1.02
   8   3   4    6.02    1.09
  -8   3  -4    4.10    0.82
  -8   3  -5   12.97    1.71
   8   3   5   10.19    1.51
  -8   3  -6    7.13    1.34
   8   3   6   10.07    1.55
   8   4 -10    2.27    0.78
  -8   4  10    2.93    0.88
   8   4  -9    1.98    0.73
  -8   4   9    2.37    0.72
   8   4  -8    5.05    1.03
  -8   4   8    3.23    0.83
   8   4  -7    2.80    0.77
  -8   4   7    3.00    0.76
   8   4  -6    1.91    0.61
  -8   4   6    2.59    0.71
   8   4  -5   33.03    2.25
  -8   4   5   35.39    2.38
   8   4  -4   17.10    1.52
  -8   4   4   18.13    1.66
  -8   4   3    0.51    0.28
   8   4  -3    0.20    0.22
  -8   4   3    0.12    0.33
  -8   4   2    6.91    0.91
   8   4  -2    7.29    0.86
  -8   4   2    9.19    1.16
   8   4  -2    6.54    0.92
  -8   4   1    6.95    0.97
   8   4  -1    8.28    0.84
  -8   4   1    7.65    1.07
  -8   4   0    9.65    1.22
   8   4   0   12.32    1.30
  -8   4   0   13.39    1.41
  -8   4  -1    6.35    1.03
  -8   4  -1    9.21    1.20
   8   4   1    7.94    1.10
  -8   4  -2    2.49    0.72
  -8   4  -2    2.80    0.69
   8   4   2    3.04    0.71
  -8   4  -3    5.42    1.05
  -8   4  -3    4.10    0.84
   8   4   3    3.94    0.84
  -8   4  -4    1.38    0.60
   8   4   4    0.18    0.35
  -8   4  -4    1.17    0.48
  -8   4  -5    1.28    0.66
   8   4   5    3.51    0.95
   8   5  -9    2.20    0.78
  -8   5   9    3.55    0.91
   8   5  -8    7.81    1.32
  -8   5   8   10.26    1.44
   8   5  -7    2.51    0.74
  -8   5   7    3.21    0.82
   8   5  -6    2.67    0.70
  -8   5   6    1.74    0.65
   8   5  -5    7.24    1.05
  -8   5   5    8.57    1.22
   8   5  -4    5.89    0.90
  -8   5   4    5.19    0.95
   8   5  -3   11.92    1.19
  -8   5   3    9.81    1.25
   8   5  -2    5.89    0.78
  -8   5   2    4.76    0.90
   8   5  -2    5.47    0.83
  -8   5   1    7.03    1.09
   8   5  -1    9.03    1.06
  -8   5   0   13.75    1.51
   8   5   0   17.03    1.51
  -8   5   0   13.37    1.46
   8   5   1   10.54    1.23
  -8   5  -1    7.92    1.16
  -8   5  -1   10.23    1.33
   8   5   2   31.04    2.24
  -8   5  -2   34.39    2.57
  -8   5  -3   26.10    2.14
   8   5   3   29.79    2.27
  -8   5  -3   25.42    2.31
  -8   5  -4    1.33    0.64
   8   5   4    0.76    0.45
  -8   5  -5    0.87    0.54
   8   5   5    1.48    0.65
   8   6  -9    4.32    1.01
  -8   6   9    7.48    1.33
   8   6  -8    5.62    1.09
  -8   6   8    3.70    0.93
   8   6  -7    2.92    0.75
  -8   6   7    2.42    0.75
   8   6  -6   11.85    1.45
  -8   6   6   13.47    1.61
   8   6  -5   25.69    2.03
  -8   6   5   25.25    2.16
   8   6  -4   17.00    1.56
  -8   6   4   17.61    1.75
   8   6  -3    8.52    1.02
  -8   6   3   11.09    1.36
   8   6  -3   11.80    1.14
  -8   6   2    1.31    0.50
   8   6  -2    0.90    0.38
  -8   6   1    3.65    0.82
   8   6  -1    3.35    0.67
  -8   6   0    2.18    0.67
   8   6   0    1.84    0.52
  -8   6  -1    0.76    0.44
  -8   6  -1    0.36    0.39
   8   6   1    0.84    0.42
  -8   6  -2    5.89    1.09
   8   6   2    7.57    1.10
  -8   6  -3    2.44    0.79
   8   6   3    2.86    0.72
  -8   6  -4    3.22    0.96
   8   6   4    2.95    0.73
  -8   7   8    2.58    0.83
  -8   7   7    1.32    0.57
  -8   7   6    2.98    0.81
   8   7  -5    1.20    0.46
  -8   7   5    0.60    0.47
   8   7  -4    4.40    0.82
  -8   7   4    3.45    0.79
  -8   7   3    7.44    1.17
  -8   7   2    1.72    0.63
  -8   7   1    0.01    0.27
  -8   7   0    1.89    0.66
  -8   7  -1    3.17    0.85
  -8   7  -2   13.14    1.66
  -8   7  -3   10.53    1.57
  -8   7  -4    0.90    0.54
  -8   8   7    8.90    1.43
  -8   8   6    7.50    1.30
  -8   8   5    7.31    1.21
   8   8  -4   16.39    1.57
  -8   8   4   15.12    1.73
  -8   8   3    5.71    1.07
  -8   8   2    2.29    0.74
  -8   8   1    2.13    0.69
  -8   8   0    2.85    0.86
  -8   8  -1   -0.03    0.38
  -8   8  -2    2.05    0.76
  -8   8  -3    0.88    0.55
  -8   9   6    0.76    0.57
  -8   9   5   14.70    1.80
  -8   9   4    3.05    0.84
  -8   9   3   -0.13    0.38
  -8   9   2    0.20    0.41
  -8   9   1    5.40    1.11
  -8   9   0    2.55    0.80
  -8   9  -1   15.14    1.84
  -8  10   4   12.38    1.69
  -8  10   3    4.62    1.03
  -8  10   2   13.26    1.75
  -8  10   1    8.77    1.45
  -8  10   0    1.86    0.69
   9  -9  -4    3.66    0.99
   9  -9  -3    3.89    1.03
   9  -9  -2    1.86    0.71
   9  -9  -1    0.88    0.58
   9  -9  -1    1.03    0.56
   9  -8  -6    2.56    0.86
   9  -8  -5    0.75    0.58
   9  -8  -4    0.80    0.56
   9  -8  -3    1.59    0.69
   9  -8  -2    4.12    1.04
   9  -8  -1    0.65    0.53
   9  -8  -1    2.37    0.76
   9  -8   0   13.23    1.71
   9  -8   0   14.72    1.71
   9  -8   1    3.10    0.89
   9  -8   1    1.93    0.71
   9  -7  -7   11.85    1.66
   9  -7  -6    8.39    1.37
   9  -7  -5    8.90    1.42
   9  -7  -4    4.24    0.98
   9  -7  -3    3.18    0.89
   9  -7  -2    0.49    0.34
   9  -7  -1    0.65    0.51
   9  -7  -1    0.16    0.39
   9  -7   0    2.88    0.76
   9  -7   0    2.59    0.80
   9  -7   1    2.31    0.78
   9  -7   1    3.38    0.87
   9  -7   2    2.64    0.83
   9  -6  -8    2.72    0.83
   9  -6  -7   -0.25    0.45
   9  -6  -6    0.98    0.56
   9  -6  -5    7.57    1.28
   9  -6  -4    4.66    0.95
   9  -6  -3    4.31    0.94
   9  -6  -2    4.02    0.91
   9  -6  -1    5.40    1.02
   9  -6  -1    5.90    1.08
   9  -6   0    4.85    0.95
   9  -6   0    4.72    0.96
   9  -6   1    7.70    1.22
   9  -6   1    8.93    1.34
   9  -6   2    6.44    1.18
   9  -6   3    6.03    1.17
   9  -5  -8    0.93    0.61
   9  -5  -7    3.48    0.92
   9  -5  -6    7.50    1.25
   9  -5  -5   10.92    1.46
   9  -5  -4   10.96    1.44
   9  -5  -3   12.85    1.54
   9  -5  -2    6.70    1.10
   9  -5  -1    3.52    0.84
   9  -5   0   -0.47    0.39
   9  -5   0   -0.20    0.31
   9  -5   1    0.82    0.42
   9  -5   1    1.45    0.59
   9  -5   2    2.02    0.62
   9  -5   2    1.91    0.71
   9  -5   3    7.66    1.33
   9  -4  -9    8.12    1.40
   9  -4  -8    1.01    0.58
   9  -4  -7    3.20    0.87
   9  -4  -6    5.85    1.12
   9  -4  -5    3.46    0.83
   9  -4  -4    3.94    0.88
   9  -4  -3    9.05    1.26
   9  -4  -2    5.70    1.00
   9  -4  -1    5.16    0.92
   9  -4   0   30.00    2.21
   9  -4   0   29.06    2.33
   9  -4   1   26.10    2.02
   9  -4   1   26.10    2.24
   9  -4   2   13.82    1.47
   9  -4   2   12.48    1.61
   9  -4   3    7.11    1.23
   9  -4   4    0.81    0.54
   9  -3  -9    2.76    0.89
   9  -3  -8    7.20    1.26
   9  -3  -7    9.80    1.43
   9  -3  -6    9.17    1.34
   9  -3  -5    3.91    0.88
   9  -3  -4   12.02    1.44
   9  -3  -3   13.56    1.48
   9  -3  -2    4.06    0.82
   9  -3  -1   10.70    1.26
   9  -3   0    6.16    0.96
   9  -3   0    6.29    1.08
   9  -3   1    1.52    0.51
   9  -3   1    2.08    0.67
  -9  -3  -1    1.07    0.51
   9  -3   2    0.78    0.36
   9  -3   2    1.58    0.64
  -9  -3  -2    1.95    0.68
   9  -3   3    0.27    0.42
  -9  -3  -3    0.56    0.44
   9  -3   4    2.38    0.76
  -9  -3  -4    4.34    1.04
   9  -2  -9    3.34    0.90
   9  -2  -8    1.47    0.69
   9  -2  -7    3.44    0.89
  -9  -2   7    2.91    0.72
   9  -2  -6    8.91    1.30
  -9  -2   6    6.03    1.02
   9  -2  -5   16.47    1.68
  -9  -2   5   18.69    1.82
   9  -2  -4    4.94    0.93
  -9  -2   4    4.65    0.91
   9  -2  -3   15.29    1.53
  -9  -2   3   14.66    1.63
   9  -2  -2    9.64    1.19
  -9  -2   2    9.36    1.31
   9  -2  -1   23.79    1.82
  -9  -2   1   26.64    2.22
  -9  -2   1   20.85    1.62
   9  -2   0   24.90    1.86
   9  -2   0   27.85    2.23
  -9  -2   0   28.02    1.99
   9  -2   1   15.07    1.39
   9  -2   1   14.18    1.62
  -9  -2  -1   10.80    1.32
   9  -2   2    4.21    0.97
  -9  -2  -2    4.58    0.90
   9  -2   3    5.14    1.09
  -9  -2  -3    4.82    1.00
   9  -2   4   14.68    1.82
  -9  -2  -4   12.52    1.67
   9  -1 -10    0.20    0.39
  -9  -1  10    0.38    0.40
   9  -1  -9    4.43    1.05
  -9  -1   9    5.09    0.91
   9  -1  -8   23.17    2.22
  -9  -1   8   24.91    1.94
  -9  -1   8   23.61    2.03
   9  -1  -7   15.92    1.80
  -9  -1   7   16.95    1.53
  -9  -1   7   19.98    1.85
   9  -1  -6    4.08    0.87
  -9  -1   6    3.50    0.78
  -9  -1   6    3.04    0.64
   9  -1  -5    0.66    0.40
  -9  -1   5    1.20    0.41
  -9  -1   5    1.24    0.49
   9  -1  -4    2.32    0.64
  -9  -1   4    2.54    0.53
  -9  -1   4    4.15    0.84
  -9  -1   3    7.56    0.89
   9  -1  -3    8.01    1.08
  -9  -1   3    7.24    1.15
   9  -1  -2    0.72    0.39
  -9  -1   2    0.60    0.28
  -9  -1   2    0.17    0.30
   9  -1  -1    0.83    0.37
  -9  -1   1    1.55    0.45
   9  -1  -1    0.56    0.40
  -9  -1   1    0.94    0.41
  -9  -1   1    0.71    0.34
   9  -1   0    0.18    0.26
   9  -1   0   -0.02    0.36
  -9  -1   0    0.02    0.21
  -9  -1   0   -0.11    0.23
   9  -1   1    0.38    0.28
  -9  -1  -1    0.60    0.41
  -9  -1  -1    0.32    0.40
   9  -1   2    1.71    0.72
  -9  -1  -2    1.74    0.58
   9  -1   3   -0.18    0.40
  -9  -1  -3    0.17    0.35
   9  -1   4    0.28    0.45
  -9  -1  -4    0.73    0.45
   9  -1   5    0.24    0.52
  -9  -1  -5   -0.02    0.35
   9   0 -10    0.67    0.56
  -9   0  10    0.74    0.43
   9   0  -9    9.04    1.43
  -9   0   9    6.72    1.11
   9   0  -8    4.05    0.94
  -9   0   8    2.40    0.65
  -9   0   8    3.55    0.79
   9   0  -7    2.38    0.74
  -9   0   7    2.42    0.67
  -9   0   7    1.86    0.58
   9   0  -6    0.62    0.47
  -9   0   6    0.37    0.27
  -9   0   6    0.55    0.31
   9   0  -5    0.26    0.35
  -9   0   5    1.26    0.51
  -9   0   5    0.53    0.32
   9   0  -4    1.70    0.51
  -9   0   4    1.46    0.56
  -9   0   4    3.07    0.61
   9   0  -3    0.05    0.20
  -9   0   3    0.22    0.25
  -9   0   3    0.13    0.21
  -9   0   2    8.89    1.01
   9   0  -2    8.03    1.03
  -9   0   2    7.15    1.12
   9   0  -1    2.80    0.61
  -9   0   1    2.96    0.61
   9   0  -1    1.03    0.50
  -9   0   1    2.83    0.74
  -9   0   1    2.47    0.57
   9   0   0   26.20    1.76
  -9   0   0   31.41    2.39
   9   0   0   29.16    2.24
  -9   0   0   25.97    1.92
  -9   0  -1    3.91    0.80
   9   0   1    3.19    0.83
  -9   0  -1    3.30    0.80
  -9   0  -2    5.86    1.03
   9   0   2    5.65    1.07
  -9   0  -2    3.69    0.84
   9   0   3   13.36    1.66
  -9   0  -3   13.74    1.64
   9   0   4   12.98    1.68
  -9   0  -4   15.62    1.84
   9   0   5    0.76    0.58
  -9   0  -5    0.73    0.54
   9   1 -10    2.19    0.76
  -9   1  10    0.79    0.51
   9   1  -9    6.41    1.25
  -9   1   9    5.82    1.06
   9   1  -8   29.06    2.46
  -9   1   8   26.77    2.16
  -9   1   8   25.25    2.13
   9   1  -7   16.96    1.79
  -9   1   7   16.38    1.61
  -9   1   7   18.78    1.82
   9   1  -6    2.78    0.71
  -9   1   6    3.32    0.77
  -9   1   6    3.41    0.74
   9   1  -5    0.46    0.34
  -9   1   5    0.68    0.38
  -9   1   5    1.08    0.45
   9   1  -4    2.93    0.68
  -9   1   4    2.48    0.69
  -9   1   4    2.98    0.65
  -9   1   3    9.18    1.08
   9   1  -3    7.96    1.04
  -9   1   3    6.11    1.04
   9   1  -2    0.39    0.32
  -9   1   2    0.81    0.37
  -9   1   2    0.67    0.41
  -9   1   1    0.67    0.34
   9   1  -1    0.94    0.39
  -9   1   1    0.42    0.36
  -9   1   1    0.85    0.40
   9   1  -1    0.49    0.35
  -9   1   0   -0.30    0.28
  -9   1   0    0.54    0.32
   9   1   0   -0.32    0.36
  -9   1   0    0.32    0.35
  -9   1  -1    0.07    0.25
   9   1   1    0.98    0.54
  -9   1  -1    0.86    0.43
  -9   1  -2    1.68    0.61
   9   1   2    2.51    0.79
  -9   1  -2    1.91    0.61
  -9   1  -3    0.52    0.41
   9   1   3   -0.29    0.45
  -9   1  -3   -0.56    0.39
  -9   1  -4    1.38    0.68
   9   1   4    0.59    0.51
  -9   1  -5   -0.39    0.46
   9   1   5    0.12    0.47
   9   2  -9    5.33    1.15
  -9   2   9    4.32    0.88
  -9   2   9    5.30    1.05
   9   2  -8    0.79    0.45
  -9   2   8    1.50    0.55
  -9   2   8    1.02    0.58
   9   2  -7    2.30    0.77
  -9   2   7    3.65    0.85
  -9   2   7    2.76    0.75
   9   2  -6    8.19    1.19
  -9   2   6    6.17    1.08
  -9   2   6    8.49    1.15
   9   2  -5   16.04    1.60
  -9   2   5   14.24    1.47
  -9   2   5   16.45    1.72
   9   2  -4    5.74    0.93
  -9   2   4    4.21    0.89
  -9   2   4    3.56    0.74
   9   2  -3   17.87    1.55
  -9   2   3   16.04    1.49
  -9   2   3   17.55    1.78
   9   2  -2    9.27    1.05
  -9   2   2    7.82    1.17
  -9   2   2    7.58    1.04
  -9   2   2   10.70    1.09
   9   2  -1   25.66    1.68
  -9   2   1   24.45    1.87
  -9   2   1   21.46    1.98
   9   2  -1   26.66    2.06
  -9   2   1   24.56    1.80
  -9   2   0   26.52    1.98
  -9   2   0   25.81    2.17
   9   2   0   29.26    2.21
  -9   2   0   24.71    1.94
  -9   2  -1   12.32    1.50
   9   2   1   14.67    1.61
  -9   2  -1   13.97    1.53
  -9   2  -2    2.88    0.80
   9   2   2    5.23    1.01
  -9   2  -2    3.02    0.78
  -9   2  -3    3.11    0.83
   9   2   3    4.94    1.02
  -9   2  -3    3.45    0.78
   9   2   4   11.62    1.59
  -9   2  -4    9.59    1.32
   9   3  -9    1.78    0.72
  -9   3   9    2.34    0.67
  -9   3   9    3.68    0.92
   9   3  -8    7.83    1.28
  -9   3   8    5.67    1.06
  -9   3   7   12.75    1.51
   9   3  -7   12.00    1.52
  -9   3   6   11.13    1.38
   9   3  -6   10.25    1.33
   9   3  -5    4.06    0.82
  -9   3   5    4.67    0.88
   9   3  -4   13.29    1.38
  -9   3   4   13.44    1.43
   9   3  -3   10.50    1.16
  -9   3   3    8.63    1.15
  -9   3   2    4.55    0.74
   9   3  -2    3.33    0.63
  -9   3   2    4.30    0.84
   9   3  -2    3.24    0.71
  -9   3   1    8.10    1.13
   9   3  -1    9.14    1.20
  -9   3   1   11.71    1.26
  -9   3   0    5.10    0.91
  -9   3   0    5.04    0.91
  -9   3   0    5.43    1.00
   9   3   0    4.88    0.92
  -9   3  -1    1.15    0.48
  -9   3  -1    0.47    0.40
   9   3   1    0.98    0.44
  -9   3  -2    0.85    0.41
   9   3   2    1.32    0.55
  -9   3  -2    0.18    0.29
  -9   3  -3    0.04    0.35
   9   3   3   -0.03    0.41
  -9   3  -3   -0.02    0.22
  -9   3  -4    3.64    0.95
   9   3   4    4.11    0.98
   9   4  -9    7.64    1.34
  -9   4   9    7.99    1.36
   9   4  -8    1.26    0.62
  -9   4   8    1.45    0.65
   9   4  -7    4.16    0.95
  -9   4   7    3.13    0.80
   9   4  -6    7.11    1.13
  -9   4   6    5.96    1.07
   9   4  -5    4.59    0.86
  -9   4   5    4.15    0.87
   9   4  -4    3.67    0.73
  -9   4   4    3.18    0.78
  -9   4   3   10.37    1.32
   9   4  -3    7.39    0.99
  -9   4   2    4.68    0.79
  -9   4   2    5.33    0.96
   9   4  -2    3.98    0.78
  -9   4   1    3.58    0.74
  -9   4   1    4.48    0.86
   9   4  -1    4.26    0.85
  -9   4   0   29.04    2.23
   9   4   0   28.32    2.17
  -9   4   0   27.03    2.13
  -9   4  -1   27.14    2.21
  -9   4  -1   27.65    2.31
   9   4   1   31.13    2.31
  -9   4  -1   28.70    2.31
  -9   4  -2   11.29    1.49
  -9   4  -2   15.03    1.68
   9   4   2   12.45    1.53
  -9   4  -3    8.52    1.39
   9   4   3    9.11    1.34
  -9   4  -3    9.10    1.32
  -9   4  -4   -0.02    0.36
   9   4   4   -0.39    0.44
   9   5  -8    0.29    0.46
  -9   5   8    1.94    0.72
   9   5  -7    3.46    0.89
  -9   5   7    3.43    0.91
   9   5  -6    8.55    1.25
  -9   5   6    9.04    1.33
   9   5  -5   10.02    1.28
  -9   5   5    9.59    1.35
   9   5  -4   11.60    1.31
  -9   5   4   11.93    1.46
   9   5  -3   13.94    1.32
   9   5  -3   13.42    1.36
  -9   5   3   10.12    1.36
  -9   5   2    4.66    0.85
  -9   5   2    7.17    1.14
   9   5  -2    6.60    0.99
  -9   5   1    3.80    0.82
  -9   5   1    2.38    0.72
   9   5  -1    2.33    0.60
  -9   5   0    0.11    0.26
  -9   5   0   -0.08    0.30
   9   5   0    0.51    0.39
  -9   5  -1    0.27    0.37
  -9   5  -1    0.19    0.31
   9   5   1    0.45    0.35
  -9   5  -2    1.42    0.58
  -9   5  -2    1.37    0.53
   9   5   2    1.69    0.58
  -9   5  -3    5.55    1.14
  -9   5  -3    3.19    0.86
   9   6  -8    2.04    0.74
  -9   6   8    2.34    0.75
   9   6  -7    1.45    0.59
  -9   6   7    0.98    0.64
   9   6  -6    0.53    0.43
  -9   6   6    0.12    0.38
   9   6  -5    8.45    1.18
  -9   6   5    7.82    1.27
   9   6  -4    8.50    1.12
  -9   6   4    5.14    1.01
  -9   6   3    2.33    0.71
  -9   6   2    3.62    0.76
  -9   6   2    4.46    0.93
   9   6  -2    4.01    0.76
  -9   6   1    6.47    1.08
  -9   6   1    3.87    0.90
   9   6  -1    6.66    0.99
  -9   6   0    5.85    1.06
  -9   6   0    6.88    1.17
   9   6   0    5.16    0.91
  -9   6  -1    7.95    1.27
  -9   6  -1    8.45    1.33
   9   6   1    6.53    1.04
  -9   6  -2    6.13    1.18
   9   6   2    8.18    1.22
  -9   6  -3    7.68    1.38
  -9   6  -3    6.10    1.12
   9   6   3    5.52    1.05
   9   7  -7   15.42    1.82
  -9   7   7   16.19    1.94
   9   7  -6    9.90    1.41
  -9   7   6   12.99    1.69
   9   7  -5   11.41    1.40
  -9   7   5   11.64    1.58
  -9   7   4    4.22    0.96
  -9   7   3    2.83    0.86
  -9   7   2    0.24    0.41
  -9   7   1    1.06    0.61
  -9   7   0    3.23    0.84
  -9   7   0    3.63    0.90
  -9   7  -1    3.54    0.87
  -9   7  -1    3.94    1.01
  -9   7  -2    2.60    0.87
   9   8  -6    3.85    0.87
  -9   8   6    3.05    0.84
  -9   8   5    0.69    0.59
  -9   8   4    2.01    0.72
  -9   8   3    2.23    0.79
  -9   8   2    3.29    0.90
  -9   8   1    1.49    0.66
  -9   8   0   15.72    1.89
  -9   8  -1    2.56    0.79
  -9   8  -1    2.72    0.80
  -9   9   4    4.87    1.09
  -9   9   3    4.90    1.12
  -9   9   2    2.08    0.79
  -9   9   1    1.43    0.76
  10  -7  -5    1.43    0.69
  10  -7  -4   13.85    1.82
  10  -7  -3    4.63    1.12
  10  -7  -2    2.73    0.87
  10  -7  -1    7.38    1.32
  10  -7  -1    8.90    1.40
  10  -6  -6    0.45    0.45
  10  -6  -5    2.78    0.83
  10  -6  -4    4.32    1.00
  10  -6  -3    1.62    0.67
  10  -6  -2    2.05    0.70
  10  -6  -1    3.09    0.81
  10  -6  -1    2.66    0.86
  10  -6   0    3.81    0.91
  10  -6   0    4.72    1.08
  10  -5  -7    0.95    0.67
  10  -5  -6    3.29    0.96
  10  -5  -5    2.09    0.74
  10  -5  -4   27.32    2.38
  10  -5  -3   17.49    1.88
  10  -5  -2    4.20    0.97
  10  -5  -1    7.97    1.26
  10  -5  -1   11.54    1.56
  10  -5   0    5.53    1.03
  10  -5   0    5.85    1.12
  10  -5   1    3.01    0.76
  10  -5   1    3.15    0.92
  10  -4  -8    3.79    1.00
  10  -4  -7    4.03    1.00
  10  -4  -6    4.71    1.07
  10  -4  -5   11.32    1.54
  10  -4  -4    7.56    1.21
  10  -4  -3    1.84    0.64
  10  -4  -2    0.99    0.47
  10  -4  -1   12.60    1.50
  10  -4  -1   12.19    1.58
  10  -4   0    1.01    0.51
  10  -4   0    1.72    0.69
  10  -4   1    2.66    0.68
  10  -4   1    3.78    1.05
  10  -4   2    4.64    1.07
  10  -3  -8    0.50    0.51
  10  -3  -7    3.83    0.94
  10  -3  -6    1.74    0.73
  10  -3  -5    5.77    1.09
  10  -3  -4    2.64    0.78
  10  -3  -3    3.96    0.86
  10  -3  -2   24.82    2.07
  10  -3  -1   33.82    2.40
  10  -3  -1   34.41    2.65
  10  -3   0   10.26    1.29
  10  -3   0   15.94    1.82
  10  -3   1    6.91    1.02
  10  -3   1    5.20    1.09
  10  -3   2    0.42    0.47
 -10  -3  -2    0.77    0.50
  10  -2  -8   14.53    1.85
  10  -2  -7    7.01    1.26
 -10  -2   7    5.46    1.05
  10  -2  -6    7.19    1.24
 -10  -2   6    5.68    1.07
  10  -2  -5   14.71    1.68
 -10  -2   5   12.72    1.61
  10  -2  -4    1.44    0.56
 -10  -2   4    1.73    0.61
  10  -2  -3    6.61    1.07
 -10  -2   3    5.43    1.05
  10  -2  -2    0.71    0.38
 -10  -2   2    0.67    0.38
  10  -2  -1    5.83    0.97
  10  -2  -1    6.79    1.17
  10  -2   0    1.25    0.50
  10  -2   0    0.66    0.59
 -10  -2   0    0.55    0.40
  10  -2   1    0.29    0.45
 -10  -2  -1   -0.25    0.33
  10  -2   2    1.83    0.78
 -10  -2  -2   -0.29    0.43
  10  -2   3    0.84    0.48
 -10  -2  -3   -0.09    0.40
  10  -1  -8    3.48    0.94
 -10  -1   8    3.38    0.81
  10  -1  -7    3.03    0.89
 -10  -1   7    4.45    0.93
  10  -1  -6    0.72    0.40
 -10  -1   6    2.75    0.76
  10  -1  -5    1.88    0.64
 -10  -1   5    1.74    0.59
  10  -1  -4    0.77    0.46
 -10  -1   4    0.29    0.32
  10  -1  -3    3.60    0.78
 -10  -1   3    3.29    0.83
  10  -1  -2   23.92    1.93
 -10  -1   2   22.63    2.17
  10  -1  -1    9.66    1.19
  10  -1  -1   10.61    1.44
 -10  -1   1   10.27    1.47
  10  -1   0    1.72    0.73
 -10  -1   0    2.57    0.76
 -10  -1   0    3.01    0.70
  10  -1   1    9.71    1.47
 -10  -1  -1   11.57    1.42
  10  -1   2   30.25    2.60
 -10  -1  -2   28.55    2.38
  10  -1   3    1.25    0.64
 -10  -1  -3    1.78    0.67
  10   0  -8    9.48    1.48
 -10   0   8   12.38    1.56
 -10   0   8    8.72    1.23
  10   0  -7    0.95    0.58
 -10   0   7    1.82    0.62
 -10   0   7    1.96    0.63
  10   0  -6    0.48    0.40
 -10   0   6    0.57    0.39
 -10   0   6    0.02    0.30
  10   0  -5    1.18    0.52
 -10   0   5    0.71    0.36
 -10   0   5    0.89    0.46
  10   0  -4   -0.08    0.26
 -10   0   4    0.06    0.23
 -10   0   4   -0.03    0.24
  10   0  -3    2.76    0.70
 -10   0   3    2.69    0.61
 -10   0   3    2.24    0.72
  10   0  -2    1.18    0.45
 -10   0   2    0.96    0.40
  10   0  -1   -0.02    0.21
 -10   0   1    0.27    0.26
  10   0  -1    0.07    0.34
 -10   0   1   -0.26    0.27
  10   0   0    2.86    0.81
 -10   0   0    3.31    0.85
 -10   0   0    3.43    0.75
  10   0   1    0.92    0.57
 -10   0  -1    0.29    0.33
  10   0   2    1.39    0.65
 -10   0  -2   -0.57    0.40
 -10   0  -2    0.71    0.46
  10   0   3    2.94    0.91
 -10   0  -3    3.04    0.85
  10   1  -8    3.45    0.91
 -10   1   8    5.83    1.09
 -10   1   8    3.81    0.86
  10   1  -7    2.78    0.78
 -10   1   7    3.53    0.87
 -10   1   7    2.24    0.66
  10   1  -6    2.71    0.76
 -10   1   6    2.32    0.68
 -10   1   6    3.30    0.75
  10   1  -5    1.61    0.58
 -10   1   5    1.47    0.62
 -10   1   5    1.83    0.59
  10   1  -4    0.54    0.44
 -10   1   4    0.55    0.40
 -10   1   4    0.26    0.33
  10   1  -3    4.48    0.84
 -10   1   3    3.40    0.72
 -10   1   3    2.88    0.81
  10   1  -2   25.12    1.89
 -10   1   2   23.81    1.87
 -10   1   2   25.32    2.28
  10   1  -2   24.03    2.11
 -10   1   1   10.57    1.25
  10   1  -1   12.42    1.53
 -10   1   1    8.26    1.33
 -10   1   0    2.54    0.67
  10   1   0    2.23    0.70
 -10   1   0    2.75    0.77
 -10   1  -1   10.91    1.40
  10   1   1   12.37    1.60
 -10   1  -1    9.85    1.44
  10   1   2   33.39    2.69
 -10   1  -2   31.20    2.62
 -10   1  -2   30.64    2.50
 -10   1  -3    1.56    0.66
  10   1   3    1.91    0.74
 -10   1  -3    1.67    0.66
 -10   2   8   14.75    1.69
  10   2  -8   13.80    1.75
 -10   2   8   10.98    1.52
  10   2  -7    6.71    1.19
 -10   2   7    6.08    1.13
 -10   2   7    6.48    1.11
  10   2  -6    8.11    1.25
 -10   2   6    8.07    1.29
 -10   2   6    7.99    1.19
  10   2  -5   12.98    1.53
 -10   2   5   13.50    1.48
 -10   2   5   14.79    1.73
  10   2  -4    2.07    0.58
 -10   2   4    1.16    0.52
 -10   2   4    1.61    0.59
  10   2  -3    6.22    0.97
 -10   2   3    5.14    1.03
 -10   2   3    6.70    1.03
 -10   2   2    1.60    0.53
 -10   2   2    1.91    0.66
  10   2  -2    1.12    0.49
 -10   2   1    5.85    0.99
 -10   2   1    6.30    1.12
  10   2  -1    7.58    1.16
 -10   2   0    0.84    0.50
 -10   2   0    0.53    0.37
  10   2   0    0.78    0.55
 -10   2   0    0.77    0.47
 -10   2  -1   -0.09    0.30
  10   2   1    0.71    0.50
 -10   2  -1    0.15    0.28
 -10   2  -2    0.00    0.33
 -10   2  -2   -0.07    0.26
 -10   2  -3   -0.29    0.41
  10   2   3   -0.17    0.40
 -10   2  -3   -0.85    0.51
  10   3  -8    0.60    0.45
 -10   3   8    0.01    0.25
 -10   3   8    0.32    0.49
  10   3  -7    4.43    0.96
 -10   3   7    3.90    0.90
 -10   3   7    2.76    0.82
  10   3  -6    2.15    0.65
 -10   3   6    1.35    0.55
 -10   3   6    1.01    0.50
  10   3  -5    3.95    0.84
 -10   3   5    4.67    0.99
 -10   3   5    5.79    1.02
  10   3  -4    3.02    0.71
 -10   3   4    3.39    0.86
 -10   3   4    2.62    0.70
  10   3  -3    6.56    0.98
 -10   3   3    6.09    1.11
 -10   3   3    6.90    1.07
 -10   3   2   26.78    2.17
 -10   3   2   33.13    2.66
  10   3  -2   31.30    2.36
 -10   3   1   32.02    2.37
 -10   3   1   34.24    2.70
  10   3  -1   34.12    2.51
 -10   3   1   32.40    2.28
 -10   3   0    8.66    1.25
 -10   3   0   13.68    1.56
  10   3   0   12.29    1.53
 -10   3   0    9.84    1.43
 -10   3  -1    6.52    1.12
  10   3   1    7.21    1.21
 -10   3  -1    6.18    1.17
 -10   3  -2    0.41    0.43
  10   3   2    0.73    0.48
 -10   3  -2    1.43    0.53
  10   4  -8    5.12    1.10
 -10   4   8    5.08    1.10
  10   4  -7    2.88    0.79
 -10   4   7    2.15    0.78
  10   4  -6    5.60    1.03
 -10   4   6    6.70    1.15
  10   4  -5   11.70    1.42
 -10   4   5   12.99    1.55
  10   4  -4    7.75    1.09
 -10   4   4    8.45    1.26
 -10   4   3    3.11    0.77
  10   4  -3    1.96    0.63
 -10   4   2    1.34    0.60
  10   4  -2    0.77    0.45
 -10   4   1    9.74    1.45
  10   4  -1   13.55    1.54
 -10   4   1    9.93    1.39
 -10   4   1   11.01    1.36
 -10   4   0    1.36    0.55
 -10   4   0    1.44    0.57
 -10   4   0    1.98    0.68
  10   4   0    1.00    0.53
 -10   4  -1    3.82    0.93
 -10   4  -1    4.11    0.94
  10   4   1    3.83    0.92
 -10   4  -2    5.49    1.15
 -10   4  -2    5.16    1.04
  10   5  -7    0.27    0.41
 -10   5   7   -0.51    0.45
  10   5  -6    2.30    0.72
 -10   5   6    2.17    0.78
  10   5  -5    1.92    0.64
 -10   5   5    2.15    0.81
 -10   5   4   20.22    2.03
 -10   5   3   15.70    1.75
  10   5  -3   14.02    1.52
 -10   5   2    3.45    0.88
  10   5  -2    5.17    0.94
 -10   5   1    7.98    1.19
 -10   5   1    9.47    1.39
  10   5  -1    8.64    1.26
 -10   5   0    7.53    1.23
 -10   5   0    5.10    1.03
  10   5   0    5.87    1.06
 -10   5  -1    3.43    0.86
 -10   5  -1    2.78    0.81
  10   5   1    2.61    0.76
  10   6  -6    1.02    0.51
 -10   6   6    0.90    0.62
 -10   6   5    1.74    0.71
 -10   6   4    5.38    1.09
 -10   6   3    0.79    0.51
 -10   6   2    2.06    0.71
 -10   6   1    2.42    0.71
 -10   6   1    2.60    0.85
 -10   6   0    3.85    0.93
 -10   6   0    3.70    0.95
 -10   7   5    1.85    0.71
 -10   7   4   13.17    1.73
 -10   7   3    4.83    1.12
 -10   7   2    2.47    0.82
 -10   7   1    8.88    1.33
 -10   7   1   10.96    1.57
  11  -5  -3    1.06    0.54
  11  -4  -5    2.34    0.80
  11  -4  -4   22.13    2.18
  11  -4  -3   26.52    2.38
  11  -4  -2    1.64    0.67
  11  -4  -2    3.67    0.89
  11  -4  -1    6.21    1.10
  11  -4  -1    6.54    1.25
  11  -3  -6    3.47    0.93
  11  -3  -5    2.40    0.79
  11  -3  -4    2.09    0.70
  11  -3  -3   -0.32    0.40
  11  -3  -2    1.34    0.55
  11  -3  -2    0.91    0.58
  11  -3  -1    8.14    1.23
  11  -3  -1    7.07    1.26
  11  -3   0    2.14    0.85
  11  -2  -6    3.70    0.96
  11  -2  -5    6.01    1.16
 -11  -2   5    3.88    0.98
  11  -2  -4    8.75    1.34
  11  -2  -3    6.57    1.12
  11  -2  -2   10.78    1.39
  11  -2  -2   12.27    1.65
  11  -2  -1    3.81    0.84
  11  -2  -1    5.82    1.17
  11  -2   0   16.78    1.97
  11  -1  -7    1.47    0.66
 -11  -1   7    1.78    0.67
  11  -1  -6    2.54    0.86
 -11  -1   6    0.12    0.32
  11  -1  -5    2.48    0.74
 -11  -1   5    1.34    0.60
  11  -1  -4    0.38    0.42
 -11  -1   4    0.61    0.42
  11  -1  -3    2.48    0.68
 -11  -1   3    2.11    0.78
  11  -1  -2    1.23    0.52
  11  -1  -2    1.78    0.67
 -11  -1   2    0.45    0.45
  11  -1  -1    0.32    0.41
 -11  -1   1    0.60    0.41
  11  -1   0    2.20    0.86
  11  -1   1    0.75    0.52
  11   0  -7    9.83    1.53
 -11   0   7    6.73    1.23
  11   0  -6    1.04    0.58
 -11   0   6    0.00    0.28
  11   0  -5    3.24    0.85
 -11   0   5    5.18    1.11
  11   0  -4    7.01    1.15
 -11   0   4    9.05    1.44
  11   0  -3   12.46    1.46
 -11   0   3   12.82    1.71
  11   0  -2    1.81    0.69
 -11   0   2    2.10    0.72
  11   0  -1    2.58    0.78
 -11   0   1    2.58    0.83
  11   0   0    9.91    1.53
 -11   0   0    7.10    1.30
  11   0   1    1.90    0.79
 -11   0  -1    1.36    0.60
  11   1  -7    1.72    0.68
 -11   1   7    0.97    0.46
  11   1  -6    3.58    0.89
 -11   1   6    1.69    0.64
 -11   1   6    2.73    0.71
  11   1  -5    1.61    0.59
 -11   1   5    1.33    0.53
 -11   1   5    0.61    0.44
  11   1  -4    0.60    0.40
 -11   1   4    0.18    0.29
 -11   1   4    0.48    0.38
  11   1  -3    2.63    0.67
 -11   1   3    2.44    0.78
  11   1  -2    1.80    0.65
 -11   1   2    0.98    0.50
  11   1  -1    0.06    0.41
 -11   1   1   -0.21    0.31
  11   1   0    1.77    0.73
 -11   1   0    1.84    0.72
 -11   1  -1    0.15    0.35
 -11   1  -1    0.87    0.49
  11   2  -6    6.66    1.22
 -11   2   6    5.19    1.08
 -11   2   6    4.19    0.88
  11   2  -5    4.53    0.95
 -11   2   5    4.27    1.02
 -11   2   5    3.43    0.81
  11   2  -4   10.32    1.34
 -11   2   4    9.98    1.34
 -11   2   4   12.77    1.71
 -11   2   3    4.70    0.93
 -11   2   3    6.77    1.26
  11   2  -3    4.33    1.00
 -11   2   2   11.06    1.38
 -11   2   2   12.44    1.70
  11   2  -2   10.81    1.48
 -11   2   1    4.33    0.90
  11   2  -1    4.95    1.06
 -11   2   1    3.32    0.90
  11   2   0   16.44    1.92
 -11   2   0   14.76    1.87
  11   3  -6    3.61    0.92
 -11   3   6    2.99    0.79
 -11   3   6    3.86    0.90
  11   3  -5    1.30    0.53
 -11   3   5    0.98    0.51
 -11   3   4    0.79    0.49
 -11   3   4    1.24    0.57
 -11   3   3    0.84    0.48
 -11   3   3    0.79    0.47
  11   3  -3    0.38    0.46
 -11   3   2    1.67    0.60
 -11   3   2    0.94    0.54
  11   3  -2    1.58    0.61
 -11   3   1    5.41    1.02
 -11   3   1    8.15    1.39
  11   3  -1    8.58    1.35
  11   3   0    3.14    0.90
 -11   3   0    3.67    1.01
 -11   4   5    2.87    0.90
 -11   4   5    3.44    0.86
 -11   4   4   27.41    2.35
 -11   4   4   18.83    2.15
 -11   4   3   32.12    2.55
 -11   4   3   31.16    2.75
  11   4  -3   28.78    2.37
 -11   4   2    3.16    0.83
 -11   4   2    2.40    0.78
  11   4  -2    2.74    0.84
 -11   4   1    6.23    1.16
 -11   4   1    7.35    1.32
  11   4  -1    6.83    1.20
 -11   5   3    1.28    0.64
  11   5  -3    1.34    0.57
   0   0   0    0.00    0.00
;
_shelx_hkl_checksum              57300
_shelx_shelxl_version_number     2014/7
_olex2_submission_special_instructions
'No special instructions were received (===END'
loop_
_space_group_symop_operation_xyz
'x, y, z'
'-x, y+1/2, -z'
loop_
_atom_site_label
_atom_site_type_symbol
_atom_site_fract_x
_atom_site_fract_y
_atom_site_fract_z
_atom_site_U_iso_or_equiv
_atom_site_adp_type
_atom_site_occupancy
_atom_site_site_symmetry_order
_atom_site_calc_flag
_atom_site_refinement_flags_posn
P1 P 0.82655(7) 0.65560(7) 0.03371(8) 0.01440(15) Uani 1 1 d .
O2 O 0.8637(2) 0.4525(2) -0.1413(3) 0.0230(5) Uani 1 1 d .
H2 H 0.9336 0.3962 -0.1118 0.034 Uiso 1 1 calc GR
O1 O 0.8814(2) 0.79398(19) 0.0639(2) 0.0212(4) Uani 1 1 d .
C2 C 0.6138(3) 0.6459(3) -0.0709(3) 0.0146(5) Uani 1 1 d .
O3 O 0.6374(2) 0.7588(2) 0.4212(2) 0.0247(5) Uani 1 1 d .
C8 C 0.8616(3) 0.5625(3) 0.2130(3) 0.0161(5) Uani 1 1 d .
C14 C 0.6279(3) 0.6724(3) 0.2966(3) 0.0181(6) Uani 1 1 d .
H14 H 0.6156 0.7208 0.1988 0.022 Uiso 1 1 calc R
O4 O 0.4865(2) 0.5956(2) 0.2880(3) 0.0281(5) Uani 1 1 d .
C1 C 0.9325(3) 0.5751(3) -0.0942(3) 0.0193(6) Uani 1 1 d .
H1A H 0.9256 0.6286 -0.1859 0.023 Uiso 1 1 calc R
H1B H 1.0473 0.5649 -0.0396 0.023 Uiso 1 1 calc R
C5 C 0.2869(3) 0.6399(3) -0.2375(3) 0.0194(6) Uani 1 1 d .
H5 H 0.1775 0.6377 -0.2943 0.023 Uiso 1 1 calc R
C6 C 0.3754(3) 0.7532(3) -0.2297(3) 0.0176(6) Uani 1 1 d .
H6 H 0.3249 0.8275 -0.2799 0.021 Uiso 1 1 calc R
C13 C 0.7764(3) 0.5862(3) 0.3262(3) 0.0170(6) Uani 1 1 d .
C7 C 0.5403(3) 0.7573(3) -0.1471(3) 0.0163(6) Uani 1 1 d .
H7 H 0.6004 0.8335 -0.1431 0.020 Uiso 1 1 calc R
C12 C 0.8245(3) 0.5227(3) 0.4707(3) 0.0215(6) Uani 1 1 d .
H12 H 0.7684 0.5387 0.5460 0.026 Uiso 1 1 calc R
C4 C 0.3598(3) 0.5300(3) -0.1615(4) 0.0209(6) Uani 1 1 d .
H4 H 0.2991 0.4540 -0.1661 0.025 Uiso 1 1 calc R
C11 C 0.9542(3) 0.4363(3) 0.5031(4) 0.0250(7) Uani 1 1 d .
H11 H 0.9860 0.3954 0.6001 0.030 Uiso 1 1 calc R
C9 C 0.9914(3) 0.4727(3) 0.2469(4) 0.0200(6) Uani 1 1 d .
H9 H 1.0474 0.4547 0.1720 0.024 Uiso 1 1 calc R
C15 C 0.4710(3) 0.7981(3) 0.4034(4) 0.0280(7) Uani 1 1 d .
H15A H 0.4423 0.8709 0.3317 0.034 Uiso 1 1 calc R
H15B H 0.4528 0.8223 0.5033 0.034 Uiso 1 1 calc R
C3 C 0.5239(3) 0.5322(3) -0.0779(3) 0.0178(6) Uani 1 1 d .
H3 H 0.5731 0.4578 -0.0268 0.021 Uiso 1 1 calc R
C10 C 1.0365(3) 0.4108(3) 0.3907(4) 0.0250(7) Uani 1 1 d .
H10 H 1.1227 0.3518 0.4119 0.030 Uiso 1 1 calc R
C16 C 0.3730(4) 0.6782(4) 0.3372(5) 0.0483(11) Uani 1 1 d .
H16A H 0.3312 0.6356 0.4165 0.058 Uiso 1 1 calc R
H16B H 0.2815 0.7007 0.2493 0.058 Uiso 1 1 calc R
loop_
_atom_site_aniso_label
_atom_site_aniso_U_11
_atom_site_aniso_U_22
_atom_site_aniso_U_33
_atom_site_aniso_U_23
_atom_site_aniso_U_13
_atom_site_aniso_U_12
P1 0.0118(2) 0.0129(3) 0.0189(3) -0.0004(3) 0.0048(2) -0.0005(3)
O2 0.0192(9) 0.0198(11) 0.0286(12) -0.0046(10) 0.0039(8) 0.0072(8)
O1 0.0180(8) 0.0148(10) 0.0306(12) -0.0014(9) 0.0062(8) -0.0033(8)
C2 0.0144(9) 0.0145(13) 0.0161(12) 0.0004(13) 0.0058(8) 0.0025(12)
O3 0.0219(9) 0.0280(13) 0.0235(11) -0.0114(10) 0.0047(8) -0.0003(9)
C8 0.0139(10) 0.0146(14) 0.0179(13) -0.0021(11) 0.0010(9) -0.0035(10)
C14 0.0171(10) 0.0201(16) 0.0170(12) -0.0030(12) 0.0043(9) -0.0037(11)
O4 0.0169(8) 0.0285(12) 0.0385(13) -0.0075(10) 0.0063(9) -0.0075(9)
C1 0.0162(11) 0.0198(14) 0.0231(15) 0.0039(12) 0.0073(10) 0.0031(11)
C5 0.0136(9) 0.0259(16) 0.0184(13) -0.0010(13) 0.0036(9) -0.0011(12)
C6 0.0187(12) 0.0158(15) 0.0186(14) 0.0039(12) 0.0055(10) 0.0053(11)
C13 0.0167(11) 0.0142(14) 0.0188(14) -0.0045(11) 0.0022(10) -0.0046(10)
C7 0.0191(12) 0.0136(14) 0.0179(13) 0.0024(11) 0.0078(10) 0.0000(11)
C12 0.0246(13) 0.0214(15) 0.0170(14) -0.0036(13) 0.0031(11) -0.0082(12)
C4 0.0177(12) 0.0180(14) 0.0282(16) -0.0009(13) 0.0079(11) -0.0034(11)
C11 0.0285(14) 0.0226(16) 0.0175(14) 0.0022(13) -0.0052(12) -0.0056(12)
C9 0.0158(11) 0.0181(15) 0.0245(15) -0.0011(13) 0.0023(10) 0.0009(11)
C15 0.0243(13) 0.0358(18) 0.0268(16) -0.0030(15) 0.0121(12) 0.0044(14)
C3 0.0163(11) 0.0142(13) 0.0236(15) 0.0012(12) 0.0066(11) 0.0016(10)
C10 0.0196(12) 0.0223(16) 0.0275(17) 0.0021(13) -0.0034(11) 0.0016(12)
C16 0.0258(14) 0.047(3) 0.078(3) -0.015(2) 0.0244(17) -0.0045(17)
loop_
_atom_type_symbol
_atom_type_description
_atom_type_scat_dispersion_real
_atom_type_scat_dispersion_imag
_atom_type_scat_source
C C 0.0033 0.0016 'International Tables Vol C Tables 4.2.6.8 and 6.1.1.4'
H H 0.0000 0.0000 'International Tables Vol C Tables 4.2.6.8 and 6.1.1.4'
O O 0.0106 0.0060 'International Tables Vol C Tables 4.2.6.8 and 6.1.1.4'
P P 0.1023 0.0942 'International Tables Vol C Tables 4.2.6.8 and 6.1.1.4'
loop_
_geom_angle_atom_site_label_1
_geom_angle_atom_site_label_2
_geom_angle_atom_site_label_3
_geom_angle
O1 P1 C2 111.43(13)
O1 P1 C8 112.04(13)
O1 P1 C1 111.30(13)
C2 P1 C8 109.41(12)
C2 P1 C1 104.18(12)
C8 P1 C1 108.14(13)
C1 O2 H2 109.5
C7 C2 P1 117.6(2)
C3 C2 P1 122.2(2)
C3 C2 C7 120.2(2)
C14 O3 C15 104.0(2)
C13 C8 P1 122.6(2)
C13 C8 C9 118.8(3)
C9 C8 P1 118.2(2)
O3 C14 H14 110.1
O3 C14 O4 105.5(2)
O3 C14 C13 111.4(2)
O4 C14 H14 110.1
O4 C14 C13 109.5(2)
C13 C14 H14 110.1
C14 O4 C16 106.1(2)
P1 C1 H1A 109.4
P1 C1 H1B 109.4
O2 C1 P1 111.10(18)
O2 C1 H1A 109.4
O2 C1 H1B 109.4
H1A C1 H1B 108.0
C6 C5 H5 119.9
C4 C5 H5 119.9
C4 C5 C6 120.3(2)
C5 C6 H6 119.8
C5 C6 C7 120.5(2)
C7 C6 H6 119.8
C8 C13 C14 122.8(2)
C12 C13 C8 119.5(3)
C12 C13 C14 117.6(2)
C2 C7 C6 119.1(2)
C2 C7 H7 120.4
C6 C7 H7 120.4
C13 C12 H12 119.5
C11 C12 C13 120.9(3)
C11 C12 H12 119.5
C5 C4 H4 119.9
C5 C4 C3 120.1(3)
C3 C4 H4 119.9
C12 C11 H11 120.1
C10 C11 C12 119.7(3)
C10 C11 H11 120.1
C8 C9 H9 119.7
C10 C9 C8 120.5(3)
C10 C9 H9 119.7
O3 C15 H15A 111.1
O3 C15 H15B 111.1
O3 C15 C16 103.5(2)
H15A C15 H15B 109.0
C16 C15 H15A 111.1
C16 C15 H15B 111.1
C2 C3 C4 119.7(3)
C2 C3 H3 120.1
C4 C3 H3 120.1
C11 C10 C9 120.5(3)
C11 C10 H10 119.8
C9 C10 H10 119.8
O4 C16 C15 104.9(2)
O4 C16 H16A 110.8
O4 C16 H16B 110.8
C15 C16 H16A 110.8
C15 C16 H16B 110.8
H16A C16 H16B 108.8
loop_
_geom_bond_atom_site_label_1
_geom_bond_atom_site_label_2
_geom_bond_distance
P1 O1 1.500(2)
P1 C2 1.797(2)
P1 C8 1.811(3)
P1 C1 1.819(3)
O2 H2 0.8200
O2 C1 1.405(3)
C2 C7 1.391(4)
C2 C3 1.388(4)
O3 C14 1.403(3)
O3 C15 1.433(3)
C8 C13 1.402(4)
C8 C9 1.405(4)
C14 H14 0.9800
C14 O4 1.419(3)
C14 C13 1.504(4)
O4 C16 1.434(4)
C1 H1A 0.9700
C1 H1B 0.9700
C5 H5 0.9300
C5 C6 1.378(4)
C5 C4 1.376(4)
C6 H6 0.9300
C6 C7 1.394(4)
C13 C12 1.398(4)
C7 H7 0.9300
C12 H12 0.9300
C12 C11 1.383(4)
C4 H4 0.9300
C4 C3 1.391(4)
C11 H11 0.9300
C11 C10 1.382(5)
C9 H9 0.9300
C9 C10 1.385(4)
C15 H15A 0.9700
C15 H15B 0.9700
C15 C16 1.516(5)
C3 H3 0.9300
C10 H10 0.9300
C16 H16A 0.9700
C16 H16B 0.9700
loop_
_geom_torsion_atom_site_label_1
_geom_torsion_atom_site_label_2
_geom_torsion_atom_site_label_3
_geom_torsion_atom_site_label_4
_geom_torsion
P1 C2 C7 C6 179.9(2)
P1 C2 C3 C4 -179.6(2)
P1 C8 C13 C14 11.9(4)
P1 C8 C13 C12 -171.5(2)
P1 C8 C9 C10 171.9(2)
O1 P1 C2 C7 17.3(2)
O1 P1 C2 C3 -163.1(2)
O1 P1 C8 C13 67.3(2)
O1 P1 C8 C9 -105.7(2)
O1 P1 C1 O2 -171.05(17)
C2 P1 C8 C13 -56.8(2)
C2 P1 C8 C9 130.2(2)
C2 P1 C1 O2 -50.8(2)
O3 C14 O4 C16 32.0(3)
O3 C14 C13 C8 -133.8(3)
O3 C14 C13 C12 49.5(3)
O3 C15 C16 O4 -13.9(4)
C8 P1 C2 C7 141.7(2)
C8 P1 C2 C3 -38.6(2)
C8 P1 C1 O2 65.5(2)
C8 C13 C12 C11 -0.4(4)
C8 C9 C10 C11 0.2(4)
C14 O3 C15 C16 33.3(3)
C14 O4 C16 C15 -10.4(4)
C14 C13 C12 C11 176.4(2)
O4 C14 C13 C8 109.9(3)
O4 C14 C13 C12 -66.8(3)
C1 P1 C2 C7 -102.8(2)
C1 P1 C2 C3 76.8(2)
C1 P1 C8 C13 -169.7(2)
C1 P1 C8 C9 17.3(2)
C5 C6 C7 C2 -0.8(4)
C5 C4 C3 C2 0.2(4)
C6 C5 C4 C3 -0.7(5)
C13 C8 C9 C10 -1.3(4)
C13 C14 O4 C16 152.1(3)
C13 C12 C11 C10 -0.8(4)
C7 C2 C3 C4 0.1(4)
C12 C11 C10 C9 0.9(4)
C4 C5 C6 C7 1.1(4)
C9 C8 C13 C14 -175.2(2)
C9 C8 C13 C12 1.4(4)
C15 O3 C14 O4 -41.2(3)
C15 O3 C14 C13 -160.0(2)
C3 C2 C7 C6 0.3(4)
