#------------------------------------------------------------------------------
#$Date: 2016-03-04 10:18:12 +0200 (Fri, 04 Mar 2016) $
#$Revision: 177302 $
#$URL: svn://www.crystallography.net/cod/cif/1/54/26/1542652.cif $
#------------------------------------------------------------------------------
#
# This file is available in the Crystallography Open Database (COD),
# http://www.crystallography.net/
#
# All data on this site have been placed in the public domain by the
# contributors.
#
data_1542652
loop_
_publ_author_name
'Kaplan, Peter T.'
'Vicic, David A.'
_publ_section_title
;
 Versatile Route to Arylated Fluoroalkyl Bromide Building Blocks.
;
_journal_issue                   4
_journal_name_full               'Organic letters'
_journal_page_first              884
_journal_page_last               886
_journal_paper_doi               10.1021/acs.orglett.6b00032
_journal_volume                  18
_journal_year                    2016
_chemical_formula_sum            'C12 H4 Br F12 N O2'
_chemical_formula_weight         502.07
_space_group_crystal_system      triclinic
_space_group_IT_number           2
_space_group_name_Hall           '-P 1'
_space_group_name_H-M_alt        'P -1'
_symmetry_space_group_name_Hall  '-P 1'
_symmetry_space_group_name_H-M   'P -1'
_atom_sites_solution_hydrogens   geom
_audit_creation_method           SHELXL-2014/7
_cell_angle_alpha                73.8830(10)
_cell_angle_beta                 89.3040(10)
_cell_angle_gamma                89.5360(10)
_cell_formula_units_Z            2
_cell_length_a                   6.0576(3)
_cell_length_b                   8.4076(5)
_cell_length_c                   15.1254(8)
_cell_measurement_reflns_used    9977
_cell_measurement_temperature    145(2)
_cell_measurement_theta_max      30.48
_cell_measurement_theta_min      3.21
_cell_volume                     739.99(7)
_computing_structure_refinement  'SHELXL-2014/7 (Sheldrick, 2014)'
_diffrn_ambient_temperature      145(2)
_diffrn_measured_fraction_theta_full 0.998
_diffrn_measured_fraction_theta_max 0.885
_diffrn_measurement_device_type  'Bruker D8 Quest'
_diffrn_radiation_type           MoK\a
_diffrn_radiation_wavelength     0.71073
_diffrn_reflns_av_R_equivalents  0.0275
_diffrn_reflns_av_unetI/netI     0.0274
_diffrn_reflns_laue_measured_fraction_full 0.998
_diffrn_reflns_laue_measured_fraction_max 0.885
_diffrn_reflns_limit_h_max       8
_diffrn_reflns_limit_h_min       -8
_diffrn_reflns_limit_k_max       11
_diffrn_reflns_limit_k_min       -12
_diffrn_reflns_limit_l_max       21
_diffrn_reflns_limit_l_min       -20
_diffrn_reflns_number            14441
_diffrn_reflns_point_group_measured_fraction_full 0.998
_diffrn_reflns_point_group_measured_fraction_max 0.885
_diffrn_reflns_theta_full        25.242
_diffrn_reflns_theta_max         30.479
_diffrn_reflns_theta_min         3.209
_exptl_absorpt_coefficient_mu    2.931
_exptl_absorpt_correction_T_max  0.7461
_exptl_absorpt_correction_T_min  0.5986
_exptl_absorpt_correction_type   multi-scan
_exptl_crystal_colour            colorless
_exptl_crystal_density_diffrn    2.253
_exptl_crystal_description       platelet
_exptl_crystal_F_000             484
_exptl_crystal_size_max          0.306
_exptl_crystal_size_mid          0.232
_exptl_crystal_size_min          0.096
_refine_diff_density_max         0.653
_refine_diff_density_min         -0.350
_refine_diff_density_rms         0.100
_refine_ls_extinction_method     none
_refine_ls_goodness_of_fit_ref   1.153
_refine_ls_hydrogen_treatment    constr
_refine_ls_matrix_type           full
_refine_ls_number_parameters     253
_refine_ls_number_reflns         3996
_refine_ls_number_restraints     0
_refine_ls_restrained_S_all      1.153
_refine_ls_R_factor_all          0.0488
_refine_ls_R_factor_gt           0.0392
_refine_ls_shift/su_max          0.001
_refine_ls_shift/su_mean         0.000
_refine_ls_structure_factor_coef Fsqd
_refine_ls_weighting_details
'w=1/[\s^2^(Fo^2^)+(0.0359P)^2^+0.6726P] where P=(Fo^2^+2Fc^2^)/3'
_refine_ls_weighting_scheme      calc
_refine_ls_wR_factor_gt          0.0849
_refine_ls_wR_factor_ref         0.0885
_reflns_Friedel_coverage         0.000
_reflns_number_gt                3503
_reflns_number_total             3996
_reflns_threshold_expression     'I > 2\s(I)'
_cod_data_source_file            ol6b00032_si_001.cif
_cod_data_source_block           Compound10a
_cod_depositor_comments
;
The following automatic conversions were performed:

'_exptl_absorpt_correction_type' value 'Multi-scan' changed to
'multi-scan' according to
/usr/data/users/saulius/crontab/automatic-downloads/current/ACS/lib/dictionaries/cif_core.dic
dictionary named 'cif_core.dic' version 2.4.2 from 2011-04-26.

Automatic conversion script
Id: cif_fix_values 4268 2015-11-12 08:31:59Z antanas 
;
_cod_database_code               1542652
_shelx_shelxl_version_number     2014/7
_shelx_space_group_comment
;
The symmetry employed for this shelxl refinement is uniquely defined
by the following loop, which should always be used as a source of
symmetry information in preference to the above space-group names.
They are only intended as comments.
;
_shelx_estimated_absorpt_t_min   0.467
_shelx_estimated_absorpt_t_max   0.766
_shelx_res_file
;

    Compound10a.res created by SHELXL-2014/7


TITL Compound10a.res in P-1
REM Old TITL zzz in P1

REM SHELXT solution in P-1
REM R1 0.105,  Rweak 0.012,  Alpha 0.055,  Orientation as input
REM Formula found by SHELXT:  C13 N O F12 Br

CELL  0.71073   6.0576   8.4076  15.1254   73.883   89.304   89.536
ZERR    2.000   0.0003   0.0005   0.0008    0.001    0.001    0.001
LATT  1
SFAC C H N O F BR
UNIT 24 8 2 4 24 2
TEMP -128.160
SIZE 0.096 0.232 0.306
L.S. 10
ACTA
BOND $H
LIST 6
FMAP 2
PLAN 5
WGHT    0.035900    0.672600
FVAR       0.43487
C1    1    0.379638    0.623802    0.804398    11.00000    0.02067    0.01716 =
         0.01641   -0.00271    0.00315   -0.00474
C2    1    0.287961    0.737355    0.846369    11.00000    0.01684    0.02318 =
         0.02431   -0.00704    0.00134    0.00187
AFIX  43
H2A   2    0.148294    0.786233    0.827274    11.00000   -1.20000
AFIX   0
C3    1    0.400224    0.778911    0.915804    11.00000    0.02456    0.02059 =
         0.02224   -0.00787    0.00308    0.00046
AFIX  43
H3A   2    0.339353    0.855568    0.945317    11.00000   -1.20000
AFIX   0
C4    1    0.603592    0.705668    0.941022    11.00000    0.02210    0.01864 =
         0.01545   -0.00103    0.00042   -0.00506
C5    1    0.697731    0.591211    0.901295    11.00000    0.01792    0.01910 =
         0.02121   -0.00143    0.00202    0.00095
AFIX  43
H5A   2    0.837174    0.542400    0.920856    11.00000   -1.20000
AFIX   0
C6    1    0.583153    0.549864    0.832320    11.00000    0.02132    0.01765 =
         0.02118   -0.00470    0.00344   -0.00020
AFIX  43
H6A   2    0.643215    0.471158    0.804050    11.00000   -1.20000
AFIX   0
C7    1    0.262137    0.586271    0.724991    11.00000    0.01915    0.01822 =
         0.02211   -0.00558    0.00441   -0.00551
C8    1    0.329177    0.709337    0.631832    11.00000    0.01585    0.01452 =
         0.02083   -0.00606    0.00104   -0.00276
C9    1    0.214007    0.687624    0.544824    11.00000    0.01477    0.01651 =
         0.02111   -0.00490    0.00086   -0.00442
C10   1    0.292719    0.810040    0.452899    11.00000    0.01555    0.01425 =
         0.02166   -0.00489    0.00112   -0.00370
C11   1    0.175357    0.790957    0.365563    11.00000    0.01679    0.01533 =
         0.02184   -0.00537   -0.00011   -0.00156
C12   1    0.255820    0.912450    0.273921    11.00000    0.02597    0.01948 =
         0.02046   -0.00360   -0.00030   -0.00349
N1    3    0.727168    0.753219    1.012906    11.00000    0.02882    0.02443 =
         0.01905   -0.00271   -0.00185   -0.00416
O1    4    0.918555    0.705148    1.026005    11.00000    0.02741    0.05841 =
         0.03980   -0.02239   -0.01264    0.00569
O2    4    0.634815    0.838926    1.054920    11.00000    0.04636    0.03836 =
         0.03366   -0.02170   -0.00967    0.00822
F1    5    0.040502    0.596428    0.735661    11.00000    0.01756    0.04550 =
         0.02602   -0.01097    0.00486   -0.01244
F2    5    0.310656    0.431051    0.721117    11.00000    0.04627    0.01400 =
         0.02640   -0.00547   -0.00209   -0.00647
F3    5    0.285161    0.863112    0.638093    11.00000    0.04659    0.01382 =
         0.02615   -0.00791   -0.00164   -0.00093
F4    5    0.548577    0.694504    0.621936    11.00000    0.01377    0.03966 =
         0.02382   -0.00489    0.00181   -0.00519
F5    5   -0.004043    0.708296    0.554098    11.00000    0.01384    0.05243 =
         0.02608   -0.00475    0.00174   -0.00563
F6    5    0.251736    0.533226    0.540121    11.00000    0.05594    0.01309 =
         0.02545   -0.00722   -0.00358   -0.00430
F7    5    0.257048    0.965569    0.457676    11.00000    0.05909    0.01246 =
         0.02554   -0.00646   -0.00112   -0.00584
F8    5    0.509572    0.788892    0.442807    11.00000    0.01465    0.05280 =
         0.02513   -0.00474    0.00204   -0.00615
F9    5   -0.041889    0.814537    0.373791    11.00000    0.01540    0.04564 =
         0.03032   -0.00813   -0.00112   -0.00249
F10   5    0.210763    0.636658    0.359551    11.00000    0.04998    0.01410 =
         0.02446   -0.00706   -0.00200   -0.00316
F11   5    0.470702    0.893705    0.262427    11.00000    0.02423    0.05054 =
         0.02819   -0.00195    0.00411   -0.00735
F12   5    0.219405    1.068205    0.276063    11.00000    0.05950    0.01419 =
         0.02871   -0.00231   -0.00705   -0.00429
BR1   6    0.098720    0.872505    0.172636    11.00000    0.03809    0.02711 =
         0.02253   -0.00528   -0.00522   -0.00404

HKLF 4

REM  Compound10a.res in P-1
REM R1 =  0.0392 for    3503 Fo > 4sig(Fo)  and  0.0488 for all    3996 data
REM    253 parameters refined using      0 restraints

END

WGHT      0.0359      0.6700

REM Highest difference peak  0.653,  deepest hole -0.350,  1-sigma level  0.100
Q1    1  -0.0067  0.9134  0.1979  11.00000  0.05    0.65
Q2    1   0.2320  0.8784  0.1901  11.00000  0.05    0.63
Q3    1   0.4858  0.6006  0.8178  11.00000  0.05    0.61
Q4    1   0.2068  0.8490  0.3297  11.00000  0.05    0.51
Q5    1   0.2720  0.7034  0.5865  11.00000  0.05    0.51
;
_shelx_res_checksum              92014
_shelx_hkl_file
;
  -1   0   0   12.70    0.50
  -1   0   0   14.20    0.80
   1   0   0   15.00    0.80
   1   0   0   14.30    0.70
  -2   0   0  132.79    4.30
  -2   0   0  136.39    3.90
  -2   0   0  128.09    4.30
  -2   0   0  128.49    4.20
   2   0   0  134.99    4.20
   2   0   0  134.09    4.30
   2   0   0  129.99    3.90
  -3   0   0   86.09    3.30
  -3   0   0   90.59    3.20
  -3   0   0   87.29    2.90
  -3   0   0   85.29    3.20
   3   0   0   87.19    3.10
   3   0   0   82.89    2.60
   3   0   0   84.79    3.30
   3   0   0   85.29    3.20
  -4   0   0  138.79    5.10
  -4   0   0  139.69    4.90
   4   0   0  136.99    5.00
  -5   0   0  132.69    5.30
  -5   0   0  137.19    5.10
   5   0   0  135.19    5.30
  -6   0   0   54.49    3.10
  -6   0   0   51.39    3.50
   6   0   0   54.79    3.50
  -7   0   0    0.30    2.00
  -7   0   0   -0.50    1.50
   7   0   0    2.40    1.90
  -8   0   0    3.10    2.90
  -8   0   0   -2.20    2.20
   8   0   0    1.50    2.10
  -8   2   1   13.90    3.50
   7  -2  -1    1.30    1.90
   7  -2  -1    1.00    2.00
  -7   2   1   -0.60    2.30
  -7   2   1   -1.90    1.70
   6  -2  -1    6.90    1.80
  -6   2   1    4.20    2.00
  -6   2   1    2.10    1.50
   5  -2  -1   58.39    3.20
  -5   2   1   60.89    3.20
  -5   2   1   57.19    3.20
   4  -2  -1    8.40    1.50
  -4   2   1    8.20    1.40
  -4   2   1    9.50    1.60
   3  -2  -1  217.48    7.30
   3  -2  -1  224.18    7.40
   3  -2  -1  229.28    7.40
  -3   2   1  243.68    7.50
  -3   2   1  232.08    7.40
   2  -2  -1  507.95   14.80
   2  -2  -1  495.85   14.80
   2  -2  -1  512.65   15.10
   2  -2  -1  509.35   15.20
   2  -2  -1  511.75   15.10
   2  -2  -1  510.25   15.10
  -2   2   1  502.15   15.20
  -2   2   1  527.25   15.20
   1  -2  -1  132.09    4.20
   1  -2  -1  132.49    4.20
   1  -2  -1  141.79    4.20
   1  -2  -1  130.29    4.10
   1  -2  -1  126.59    4.10
  -1   2   1  130.59    4.30
  -1   2   1  131.89    4.20
  -1   2   1  131.39    4.10
  -1   2   1  129.89    4.20
   0  -2  -1 2086.69   57.89
   0  -2  -1 2076.19   57.59
   0  -2  -1 1902.01   57.69
   0  -2  -1 2064.89   57.39
   0  -2  -1 1949.70   57.29
   0  -2  -1 2094.49   57.79
   0   2   1 2048.79   57.69
   0   2   1 2120.59   57.69
   0   2   1 1947.61   57.69
   0   2   1 1766.42   57.49
   0   2   1 1843.92   57.49
  -1  -2  -1  243.38    7.50
  -1  -2  -1  252.67    7.60
  -1  -2  -1  254.97    7.50
  -1  -2  -1  241.68    7.30
   1   2   1  244.68    7.30
   1   2   1  259.97    7.60
   1   2   1  248.58    7.50
   1   2   1  237.28    7.50
  -2  -2  -1 4762.02  138.69
  -2  -2  -1 4870.51  138.19
  -2  -2  -1 4810.22  138.09
  -2  -2  -1 4831.72  139.19
   2   2   1 4644.94  137.99
   2   2   1 4829.22  138.49
   2   2   1 4815.12  138.99
   2   2   1 4781.42  138.49
  -3  -2  -1   24.00    1.20
  -3  -2  -1   24.40    1.70
  -3  -2  -1   25.40    1.20
   3   2   1   24.70    1.30
   3   2   1   25.50    1.20
   3   2   1   23.90    1.70
  -4  -2  -1    4.30    0.60
  -4  -2  -1    5.20    1.40
  -4  -2  -1    6.30    1.00
   4   2   1    3.80    0.70
   4   2   1    4.80    1.40
   4   2   1    4.50    0.70
  -5  -2  -1   39.10    2.70
  -5  -2  -1   41.60    2.20
  -5  -2  -1   37.90    1.70
  -5  -2  -1   37.20    1.90
   5   2   1   37.00    2.70
  -6  -2  -1    7.10    1.40
  -6  -2  -1   10.70    2.10
   6   2   1    9.40    2.20
  -7  -2  -1   10.70    1.80
  -7  -2  -1   10.70    2.40
   7   2   1    7.10    2.40
   7  -4  -2    1.20    2.30
   7  -4  -2    5.10    2.20
  -7   4   2    2.60    2.10
  -7   4   2    0.70    2.60
   6  -4  -2    3.20    1.90
   6  -4  -2    3.20    1.70
  -6   4   2    3.20    1.80
  -6   4   2    3.50    2.00
   5  -4  -2   39.30    2.80
   5  -4  -2   40.00    2.90
  -5   4   2   42.70    3.00
  -5   4   2   39.30    3.00
   4  -4  -2    5.10    0.70
   4  -4  -2    5.90    1.50
   4  -4  -2    5.80    1.50
  -4   4   2    5.30    1.70
  -4   4   2    3.90    1.50
   3  -4  -2   38.10    2.10
   3  -4  -2   38.30    1.60
   3  -4  -2   38.20    2.20
   3  -4  -2   37.80    1.60
  -3   4   2   40.00    2.40
  -3   4   2   37.40    2.20
   2  -4  -2   48.50    2.10
   2  -4  -2   45.20    2.20
   2  -4  -2   43.70    2.00
   2  -4  -2   44.50    2.00
   2  -4  -2   45.90    1.90
   2  -4  -2   49.20    2.00
  -2   4   2   47.60    2.20
  -2   4   2   46.70    1.90
  -2   4   2   43.70    2.50
   1  -4  -2   25.20    1.50
   1  -4  -2   23.10    1.30
   1  -4  -2   24.10    1.30
   1  -4  -2   25.00    1.90
   1  -4  -2   24.50    1.50
   1  -4  -2   24.30    1.70
  -1   4   2   26.20    1.40
  -1   4   2   23.00    1.60
  -1   4   2   26.70    1.90
   0  -4  -2 3160.08   92.49
   0  -4  -2 3098.79   92.79
   0  -4  -2 3251.87   92.69
   0  -4  -2 3252.27   92.99
   0  -4  -2 3326.07   92.39
   0  -4  -2 3289.67   92.49
   0   4   2 3052.69   92.69
   0   4   2 3215.98   92.69
   0   4   2 3302.77   92.59
  -1  -4  -2  364.46   11.00
  -1  -4  -2  339.67   11.00
  -1  -4  -2  375.16   11.20
  -1  -4  -2  348.37   10.80
  -1  -4  -2  354.86   10.70
   1   4   2  362.26   11.10
   1   4   2  352.96   11.50
   1   4   2  374.26   10.60
   1   4   2  386.16   12.30
  -2  -4  -2 1014.80   30.00
  -2  -4  -2 1049.89   30.70
  -2  -4  -2 1017.30   30.50
   2   4   2 1065.29   30.60
   2   4   2 1078.59   30.60
   2   4   2 1024.40   30.10
  -3  -4  -2   19.00    0.90
  -3  -4  -2   19.60    1.80
   3   4   2   18.30    1.50
   3   4   2   17.40    1.70
   3   4   2   17.70    1.10
  -4  -4  -2  195.18    7.10
   4   4   2  196.98    7.00
   4   4   2  200.78    6.70
   4   4   2  200.78    6.30
  -5  -4  -2    6.60    1.20
  -5  -4  -2    5.50    1.00
  -5  -4  -2    7.80    2.10
   5   4   2    5.50    1.20
   5   4   2    7.60    1.90
  -6  -4  -2   19.30    1.70
  -6  -4  -2   21.00    1.70
  -6  -4  -2   22.70    2.80
   6   4   2   25.60    2.80
   6   4   2   25.00    1.90
  -7  -4  -2   12.40    2.60
   7   4   2   15.00    2.70
   7  -6  -3   -0.80    2.80
  -7   6   3    5.20    3.40
   6  -6  -3   13.60    2.70
  -6   6   3   17.50    2.80
  -6   6   3   12.30    3.00
   5  -6  -3    2.60    1.80
   5  -6  -3    0.60    1.70
  -5   6   3    2.40    1.80
  -5   6   3   -3.00    2.10
   4  -6  -3    6.00    1.80
   4  -6  -3    7.50    1.20
   4  -6  -3    8.20    1.80
  -4   6   3    8.90    2.30
  -4   6   3    7.70    1.90
   3  -6  -3   87.99    3.90
   3  -6  -3   87.39    3.40
  -3   6   3   88.19    3.90
  -3   6   3   81.09    4.20
   2  -6  -3  213.48    7.50
   2  -6  -3  211.48    7.20
   2  -6  -3  212.38    7.00
  -2   6   3  213.88    7.20
  -2   6   3  202.88    7.10
  -2   6   3  208.88    7.40
  -2   6   3  207.58    7.00
   1  -6  -3  168.58    5.80
   1  -6  -3  180.98    6.30
   1  -6  -3  173.88    5.90
   1  -6  -3  183.18    6.20
  -1   6   3  173.58    6.10
  -1   6   3  183.08    6.20
   0  -6  -3  554.64   16.60
   0  -6  -3  564.34   17.00
   0  -6  -3  555.04   17.00
   0  -6  -3  547.45   16.40
   0   6   3  560.04   17.00
   0   6   3  549.74   17.00
  -1  -6  -3   60.09    2.90
  -1  -6  -3   60.79    2.30
  -1  -6  -3   59.49    2.10
   1   6   3   57.99    3.10
   1   6   3   61.39    3.00
  -2  -6  -3  325.77   10.60
   2   6   3  323.17   10.60
   2   6   3  327.07   10.50
  -3  -6  -3  159.58    6.10
   3   6   3  159.08    5.90
   3   6   3  161.98    6.10
  -4  -6  -3  160.18    6.70
  -4  -6  -3  172.38    6.30
   4   6   3  174.68    6.30
   4   6   3  173.58    6.60
  -5  -6  -3    0.40    1.70
  -5  -6  -3    2.90    1.30
   5   6   3   -0.10    1.70
   5   6   3    1.50    1.30
  -6  -6  -3    3.70    2.20
  -6  -6  -3    3.50    1.50
   6   6   3    7.30    1.50
   6   6   3    6.80    2.30
   6  -8  -4    7.00    2.70
  -6   8   4    5.50    3.60
   5  -8  -4    8.30    2.10
   5  -8  -4    6.70    2.20
   5  -8  -4   10.90    2.70
  -5   8   4    4.50    2.80
   4  -8  -4    1.30    1.60
   4  -8  -4   -2.20    2.00
   4  -8  -4    0.50    1.60
   4  -8  -4   -1.10    1.10
  -4   8   4    2.90    2.20
  -4   8   4   -2.60    1.60
   3  -8  -4   15.40    1.90
   3  -8  -4   14.90    2.20
   3  -8  -4   11.20    1.70
  -3   8   4   10.20    2.00
  -3   8   4   15.20    2.30
   2  -8  -4    5.10    1.30
   2  -8  -4    4.30    1.30
   2  -8  -4    3.50    1.60
  -2   8   4    5.30    1.50
  -2   8   4    5.00    1.50
   1  -8  -4   72.99    3.60
   1  -8  -4   68.99    3.10
   1  -8  -4   72.39    3.60
  -1   8   4   74.69    3.60
  -1   8   4   73.59    3.50
   0  -8  -4  125.49    5.10
   0  -8  -4  123.09    4.50
   0  -8  -4  126.59    5.20
   0   8   4  133.99    5.20
   0   8   4  127.49    5.20
  -1  -8  -4    3.50    1.60
  -1  -8  -4    0.70    2.10
  -1  -8  -4   -1.30    1.40
   1   8   4   -0.70    1.50
   1   8   4    1.70    1.50
  -2  -8  -4  650.73   19.90
  -2  -8  -4  632.74   19.80
   2   8   4  647.34   19.80
   2   8   4  600.84   20.00
  -3  -8  -4   43.90    3.10
  -3  -8  -4   50.39    3.20
   3   8   4   47.70    3.00
   3   8   4   43.90    3.80
  -4  -8  -4    5.40    2.00
  -4  -8  -4    4.30    1.70
   4   8   4    5.20    1.70
   4   8   4    4.30    2.00
  -5  -8  -4   29.70    2.90
   5   8   4   31.50    3.30
   5   8   4   30.00    2.70
  -6  -8  -4   32.60    3.10
   6   8   4   36.70    3.20
   6   8   4   42.20    4.20
   4 -10  -5   -0.10    2.60
   4 -10  -5   10.10    2.40
   3 -10  -5    3.90    2.20
   3 -10  -5   -2.70    1.70
   2 -10  -5   55.79    3.30
   2 -10  -5   59.19    3.50
   2 -10  -5   49.80    3.00
  -2  10   5   51.29    3.70
  -2  10   5   56.79    3.50
   1 -10  -5   17.60    2.40
   1 -10  -5   16.90    2.30
  -1  10   5   16.40    2.50
  -1  10   5   16.40    2.40
   0 -10  -5   11.40    2.20
   0 -10  -5   13.90    2.20
   0  10   5   16.50    2.60
   0  10   5   15.60    2.40
  -1 -10  -5    9.50    2.10
  -1 -10  -5    7.80    1.90
   1  10   5   12.30    2.10
   1  10   5   11.00    2.40
  -2 -10  -5   19.50    2.50
  -2 -10  -5   16.10    2.50
   2  10   5   17.10    2.80
   2  10   5   15.90    3.00
  -3 -10  -5    1.10    2.00
  -3 -10  -5   -3.00    1.90
   3  10   5    1.50    1.90
  -4 -10  -5   44.20    3.60
   4  10   5   60.19    4.30
   0 -12  -6   66.89    4.60
  -2 -11  -5    5.80    2.50
  -1 -11  -5   36.10    3.30
  -1 -11  -5   42.40    4.90
   0  11   5   21.30    3.00
   0 -11  -5   18.90    2.80
   0 -11  -5   18.50    2.90
  -1  11   5   12.90    2.50
   1 -11  -5   15.40    2.60
   1 -11  -5   13.30    2.50
   2 -11  -5   -4.60    2.50
   2 -11  -5   -1.90    2.10
   3 -11  -5    5.80    3.00
   5   9   4    8.00    2.80
   4   9   4   18.20    2.60
  -4  -9  -4   13.70    2.70
  -4  -9  -4   19.50    2.80
   3   9   4   73.79    4.10
   3   9   4   77.49    4.30
  -3  -9  -4   75.89    4.20
  -3  -9  -4   77.39    4.20
   2   9   4   15.40    2.40
   2   9   4   16.00    2.80
  -2  -9  -4   16.20    2.30
  -2  -9  -4   16.60    2.40
   1   9   4  118.29    5.20
   1   9   4  116.29    5.10
  -1  -9  -4  115.49    5.20
  -1  -9  -4  117.69    5.10
   0   9   4   25.20    2.40
   0   9   4   25.40    2.60
   0  -9  -4   25.80    2.50
   0  -9  -4   23.70    1.80
  -1   9   4   72.99    3.90
  -1   9   4   71.19    3.60
   1  -9  -4   72.49    3.40
   1  -9  -4   78.59    3.90
  -2   9   4   11.40    2.00
  -2   9   4   16.00    2.30
   2  -9  -4   13.90    2.30
   2  -9  -4   12.50    1.90
   2  -9  -4   17.10    2.20
  -3   9   4    2.10    2.00
   3  -9  -4   -1.00    1.90
   3  -9  -4    0.20    1.60
   3  -9  -4   -0.30    1.40
  -4   9   4   24.20    3.00
   4  -9  -4   24.60    2.80
   4  -9  -4   24.70    3.20
   4  -9  -4   26.50    2.60
  -5   9   4   11.10    3.30
   5  -9  -4   11.40    2.70
   6   7   3    3.30    2.30
   6   7   3    6.40    1.70
  -6  -7  -3    1.00    2.10
  -6  -7  -3    3.90    1.80
   5   7   3   87.19    4.60
   5   7   3   90.69    4.20
  -5  -7  -3   88.99    4.60
  -5  -7  -3   86.79    4.20
   4   7   3   40.70    2.80
  -4  -7  -3   35.80    3.10
  -4  -7  -3   45.00    2.80
   3   7   3  250.37    8.80
   3   7   3  248.88    8.70
  -3  -7  -3  245.88    8.80
   2   7   3   37.20    2.70
   2   7   3   37.40    2.60
  -2  -7  -3   39.10    2.70
   1   7   3  239.18    9.20
   1   7   3  280.77    9.10
  -1  -7  -3  271.87    8.50
  -1  -7  -3  275.97    9.10
  -1  -7  -3  273.07    8.20
   0   7   3   24.50    2.10
   0   7   3   24.30    2.00
   0  -7  -3   26.30    2.10
   0  -7  -3   22.10    2.10
   0  -7  -3   21.20    1.50
   0  -7  -3   23.80    1.30
  -1   7   3  101.89    4.10
  -1   7   3  102.49    4.30
   1  -7  -3  104.29    4.40
   1  -7  -3  107.99    4.30
   1  -7  -3  101.49    4.00
  -2   7   3   75.39    3.80
  -2   7   3   73.59    3.40
  -2   7   3   76.39    3.50
   2  -7  -3   77.19    3.40
   2  -7  -3   77.49    3.80
   2  -7  -3   76.09    3.40
  -3   7   3    1.20    1.80
  -3   7   3    0.70    1.30
   3  -7  -3    3.20    1.80
   3  -7  -3   -0.20    0.90
   3  -7  -3    0.70    1.20
  -4   7   3   -0.40    2.40
  -4   7   3   -2.00    1.60
   4  -7  -3   -0.40    2.20
   4  -7  -3   -1.40    0.90
   4  -7  -3    0.80    1.40
   4  -7  -3    2.40    1.50
  -5   7   3    6.60    2.60
  -5   7   3    8.30    2.20
   5  -7  -3    8.70    2.20
   5  -7  -3    9.10    2.00
  -6   7   3   19.70    3.70
   6  -7  -3   21.20    2.80
   7   5   2   62.79    4.30
  -7  -5  -2   59.89    4.00
   6   5   2   12.10    1.80
   6   5   2   18.80    2.70
  -6  -5  -2   17.60    2.50
  -6  -5  -2   14.90    1.80
   5   5   2   35.00    2.30
   5   5   2   30.80    3.20
  -5  -5  -2   31.70    2.80
  -5  -5  -2   34.50    1.70
   4   5   2   58.79    2.90
   4   5   2   56.59    3.20
   4   5   2   51.09    2.40
  -4  -5  -2   58.89    3.30
  -4  -5  -2   58.79    2.10
   3   5   2    6.20    0.70
   3   5   2    7.90    1.50
   3   5   2    6.40    1.40
  -3  -5  -2    5.00    0.60
  -3  -5  -2    7.40    1.60
   2   5   2   29.20    1.90
   2   5   2   31.00    1.20
   2   5   2   29.40    1.90
  -2  -5  -2   30.20    2.00
  -2  -5  -2   29.00    1.20
   1   5   2  357.36   11.20
   1   5   2  370.16   10.60
   1   5   2  358.46   11.20
  -1  -5  -2  349.17   10.70
  -1  -5  -2  338.67   10.90
  -1  -5  -2  366.06   10.60
  -1  -5  -2  359.96   11.20
   0   5   2  168.48    5.80
   0   5   2  167.58    5.70
   0  -5  -2  170.38    5.40
   0  -5  -2  172.08    5.80
   0  -5  -2  172.48    5.60
   0  -5  -2  169.48    5.40
  -1   5   2 1070.59   30.40
  -1   5   2 1035.40   30.00
  -1   5   2 1050.89   30.10
  -1   5   2 1024.10   30.10
   1  -5  -2 1018.70   30.00
   1  -5  -2 1007.80   30.10
   1  -5  -2  945.71   30.20
   1  -5  -2 1053.99   30.40
   1  -5  -2 1021.40   30.10
  -2   5   2   77.69    3.00
  -2   5   2   76.89    3.10
  -2   5   2   73.59    3.50
  -2   5   2   80.59    3.30
   2  -5  -2   79.29    3.00
   2  -5  -2   71.09    3.40
   2  -5  -2   73.99    2.80
   2  -5  -2   81.69    3.30
  -3   5   2  159.28    6.30
  -3   5   2  161.98    5.90
   3  -5  -2  166.18    5.40
   3  -5  -2  160.78    5.80
   3  -5  -2  167.38    5.30
   3  -5  -2  167.98    6.00
  -4   5   2   15.10    2.40
  -4   5   2   11.00    2.00
   4  -5  -2   11.80    1.90
   4  -5  -2   12.10    1.00
   4  -5  -2    9.30    1.00
   4  -5  -2   12.00    1.90
  -5   5   2   26.40    2.50
  -5   5   2   23.20    2.70
   5  -5  -2   28.70    2.70
   5  -5  -2   22.00    2.40
  -6   5   2    4.60    1.90
  -6   5   2   -0.70    2.20
   6  -5  -2    4.00    2.00
   6  -5  -2    4.80    1.90
  -7   5   2   23.20    3.50
   7  -5  -2   20.60    3.40
   7   3   1   31.50    3.20
  -7  -3  -1   35.50    3.30
  -7  -3  -1   28.90    2.40
   6   3   1    9.60    2.20
   6   3   1    8.20    1.30
  -6  -3  -1   10.20    1.50
  -6  -3  -1   10.50    1.30
  -6  -3  -1   11.40    2.20
   5   3   1  354.36   11.80
   5   3   1  368.16   11.20
  -5  -3  -1  362.56   11.20
  -5  -3  -1  353.96   11.90
   4   3   1   46.30    2.20
   4   3   1   46.70    2.00
   4   3   1   46.50    2.70
  -4  -3  -1   47.00    2.10
  -4  -3  -1   44.40    2.60
   3   3   1  336.77   10.10
   3   3   1  326.87   10.30
   3   3   1  328.17    9.90
  -3  -3  -1  320.47   10.00
  -3  -3  -1  336.57    9.90
  -3  -3  -1  323.77   10.40
   2   3   1  587.84   18.20
   2   3   1  618.94   17.70
   2   3   1  589.34   18.00
  -2  -3  -1  633.94   18.10
  -2  -3  -1  573.74   17.50
  -2  -3  -1  625.04   18.10
  -2  -3  -1  597.14   17.90
   1   3   1   31.70    1.60
   1   3   1   34.20    1.60
   1   3   1   35.40    1.60
   1   3   1   34.80    1.60
  -1  -3  -1   36.50    1.70
  -1  -3  -1   34.90    1.40
  -1  -3  -1   36.40    1.50
   0   3   1   10.20    0.90
   0   3   1    9.70    0.70
   0   3   1    7.20    1.00
   0   3   1    8.80    0.90
   0  -3  -1    9.30    0.90
   0  -3  -1    9.90    0.90
   0  -3  -1    8.20    0.70
   0  -3  -1    8.60    0.80
   0  -3  -1    9.70    0.80
   0  -3  -1    9.30    0.70
  -1   3   1    5.00    1.00
  -1   3   1    5.20    0.70
   1  -3  -1    4.60    0.70
   1  -3  -1    4.70    0.60
   1  -3  -1    6.00    0.70
   1  -3  -1    4.80    0.80
   1  -3  -1    4.20    0.60
  -2   3   1  324.17   10.00
  -2   3   1  334.07   10.40
  -2   3   1  340.37   11.30
   2  -3  -1  337.27   10.30
   2  -3  -1  327.77   10.00
   2  -3  -1  352.16   10.40
   2  -3  -1  335.87   10.40
   2  -3  -1  344.97   10.10
   2  -3  -1  340.27   10.30
  -3   3   1  412.46   12.60
  -3   3   1  399.86   12.50
   3  -3  -1  389.66   11.90
   3  -3  -1  418.96   11.90
   3  -3  -1  398.96   12.40
  -4   3   1   83.49    3.70
  -4   3   1   84.39    3.80
   4  -3  -1   85.79    3.60
  -5   3   1   21.20    2.40
  -5   3   1   20.50    2.20
   5  -3  -1   18.00    2.20
   5  -3  -1   19.70    2.20
  -6   3   1    2.00    2.00
  -6   3   1    2.20    1.70
   6  -3  -1    2.20    1.60
   6  -3  -1    3.10    2.00
  -7   3   1   25.10    3.40
  -7   3   1   25.10    2.90
   7  -3  -1   25.60    2.90
   7  -3  -1   20.90    3.10
   8   1   0    0.10    2.20
  -8  -1   0    3.10    3.30
  -8  -1   0    0.40    2.20
   7   1   0   41.20    3.20
  -7  -1   0   38.80    3.40
  -7  -1   0   42.10    2.80
   6   1   0   38.30    2.90
  -6  -1   0   33.70    3.00
  -6  -1   0   38.10    2.50
   5   1   0  143.29    5.60
   5   1   0  148.09    4.60
  -5  -1   0  148.89    4.60
  -5  -1   0  139.69    5.60
  -5  -1   0  142.79    5.30
   4   1   0   -0.30    1.10
   4   1   0    0.20    0.60
   4   1   0    0.10    0.40
  -4  -1   0    1.20    0.40
  -4  -1   0    0.50    1.00
  -4  -1   0    0.80    0.80
   3   1   0  371.46   10.70
   3   1   0  369.46   11.10
   3   1   0  357.16   10.80
   3   1   0  348.17   11.00
  -3  -1   0  359.16   11.10
  -3  -1   0  342.27   11.00
  -3  -1   0  362.16   10.60
  -3  -1   0  359.76   11.00
   2   1   0  399.16   12.30
   2   1   0  420.76   12.50
   2   1   0  433.96   12.50
  -2  -1   0  427.86   12.30
  -2  -1   0  422.76   12.40
  -2  -1   0  415.66   12.50
  -2  -1   0  417.06   12.50
   1   1   0 1829.32   50.49
   1   1   0 1680.73   50.49
   1   1   0 1748.43   50.59
  -1  -1   0 1734.73   50.59
  -1  -1   0 1752.82   50.59
  -1  -1   0 1772.62   50.19
  -1  -1   0 1698.33   50.49
  -1   1   0  307.87    9.30
  -1   1   0  322.37    9.50
  -1   1   0  320.27    9.50
   1  -1   0  342.67    9.60
   1  -1   0  328.87    9.50
   1  -1   0  297.57    9.50
   1  -1   0  326.37    9.30
  -2   1   0  135.59    4.40
  -2   1   0  131.39    4.30
  -2   1   0  132.09    4.30
   2  -1   0  131.89    4.30
   2  -1   0  129.79    4.30
   2  -1   0  133.89    4.30
  -3   1   0   44.60    2.10
  -3   1   0   44.60    2.00
  -3   1   0   44.40    2.20
   3  -1   0   43.70    2.00
   3  -1   0   45.30    2.20
   3  -1   0   42.20    2.00
  -4   1   0   69.79    3.20
  -4   1   0   70.99    3.00
   4  -1   0   73.09    3.20
  -5   1   0   51.49    3.00
  -5   1   0   50.69    2.80
   5  -1   0   53.79    3.00
  -6   1   0    2.40    1.90
  -6   1   0    0.30    1.30
   6  -1   0    1.70    1.70
  -7   1   0    2.80    2.20
  -7   1   0    4.50    1.80
   7  -1   0    1.30    1.90
   7  -1   0    1.10    1.70
  -8   1   0   14.70    2.20
  -8   1   0   21.50    3.70
   8  -1   0   11.90    2.50
   8  -1  -1    2.60    2.10
  -8   1   1   -0.10    2.70
  -8   1   1    4.40    2.20
   7  -1  -1   60.59    4.00
  -7   1   1   71.09    4.20
  -7   1   1   67.39    3.80
   6  -1  -1   14.80    2.40
  -6   1   1   16.90    2.90
  -6   1   1   13.60    2.10
   5  -1  -1   39.80    2.60
  -5   1   1   37.00    2.40
  -5   1   1   37.40    2.70
   4  -1  -1    2.30    1.20
  -4   1   1    1.50    1.00
  -4   1   1    2.40    1.20
   3  -1  -1  754.72   22.60
   3  -1  -1  772.92   22.70
   3  -1  -1  766.32   22.60
  -3   1   1  727.33   22.60
  -3   1   1  775.22   22.70
  -3   1   1  796.02   22.70
   2  -1  -1  297.67    8.90
   2  -1  -1  292.77    8.90
   2  -1  -1  275.07    8.60
   2  -1  -1  282.67    8.90
  -2   1   1  299.17    8.90
  -2   1   1  303.97    8.90
  -2   1   1  294.97    8.90
  -2   1   1  295.47    8.50
   1  -1  -1 6404.26  182.08
   1  -1  -1 6453.45  181.28
   1  -1  -1 6082.29  181.88
   1  -1  -1 6243.18  181.28
   1  -1  -1 6542.55  181.98
  -1   1   1 6130.79  181.98
  -1   1   1 6328.87  182.08
  -1   1   1 6326.27  181.38
  -1  -1  -1  545.75   15.30
  -1  -1  -1  502.75   15.10
  -1  -1  -1  526.15   15.20
  -1  -1  -1  519.65   15.30
   1   1   1  522.15   15.30
   1   1   1  538.65   15.30
   1   1   1  526.45   15.10
   1   1   1  515.55   15.20
  -2  -1  -1    6.70    0.80
  -2  -1  -1    5.90    0.60
  -2  -1  -1    6.90    0.80
  -2  -1  -1    7.00    0.60
   2   1   1    6.40    0.60
   2   1   1    6.10    0.50
   2   1   1    6.00    0.90
   2   1   1    7.30    0.80
  -3  -1  -1    9.70    1.30
  -3  -1  -1   10.20    0.70
  -3  -1  -1    9.30    1.00
  -3  -1  -1   10.00    1.50
   3   1   1    8.80    0.70
   3   1   1    9.70    1.30
   3   1   1    9.60    1.00
   3   1   1    9.60    0.80
  -4  -1  -1  386.66   11.60
  -4  -1  -1  375.96   11.90
  -4  -1  -1  372.66   11.20
  -4  -1  -1  383.56   11.20
   4   1   1  379.26   11.20
   4   1   1  381.76   11.90
   4   1   1  370.46   11.60
  -5  -1  -1   98.59    3.20
  -5  -1  -1   98.79    3.90
  -5  -1  -1   98.79    3.20
  -5  -1  -1   95.99    4.30
   5   1   1   97.19    4.30
   5   1   1   96.29    3.10
  -6  -1  -1   10.50    1.80
  -6  -1  -1   11.70    2.30
   6   1   1   11.90    2.30
  -7  -1  -1    7.40    1.70
  -7  -1  -1    8.00    2.40
   7   1   1    9.70    2.20
  -8  -1  -1   10.40    2.30
   8   1   1    6.00    2.20
   7  -3  -2    0.60    2.00
   7  -3  -2   -0.10    1.90
  -7   3   2    2.00    2.00
  -7   3   2    1.50    2.50
   6  -3  -2   13.20    2.30
  -6   3   2   13.80    2.30
  -6   3   2   14.10    2.60
   5  -3  -2  188.28    7.00
  -5   3   2  195.28    7.10
  -5   3   2  193.18    7.20
   4  -3  -2   92.59    3.90
  -4   3   2   97.09    4.10
  -4   3   2   94.09    3.90
   3  -3  -2   15.10    0.90
   3  -3  -2   17.90    0.90
   3  -3  -2   17.30    1.50
  -3   3   2   17.50    1.50
  -3   3   2   18.40    1.60
   2  -3  -2    3.30    0.80
   2  -3  -2    3.20    0.80
   2  -3  -2    3.00    0.60
   2  -3  -2    2.40    0.70
   2  -3  -2    2.50    0.70
  -2   3   2    3.90    1.00
  -2   3   2    2.80    0.90
   1  -3  -2   20.30    1.10
   1  -3  -2   21.50    1.10
   1  -3  -2   21.70    1.20
   1  -3  -2   17.80    1.20
   1  -3  -2   21.40    1.10
   1  -3  -2   21.80    1.20
  -1   3   2   20.10    1.50
  -1   3   2   20.40    1.20
  -1   3   2   20.00    1.10
  -1   3   2   19.40    1.10
   0  -3  -2  454.25   13.40
   0  -3  -2  477.55   13.70
   0  -3  -2  462.25   13.70
   0  -3  -2  464.55   13.50
   0  -3  -2  477.45   13.70
   0  -3  -2  474.15   13.70
   0   3   2  470.05   13.80
   0   3   2  403.96   13.80
   0   3   2  453.95   13.40
   0   3   2  464.05   13.70
  -1  -3  -2 2568.44   74.29
  -1  -3  -2 2558.44   74.59
  -1  -3  -2 2594.64   74.29
   1   3   2 2482.35   74.29
   1   3   2 2654.03   74.39
   1   3   2 2646.14   74.39
  -2  -3  -2  261.87    7.90
  -2  -3  -2  269.67    8.30
  -2  -3  -2  273.47    8.40
   2   3   2  265.87    8.40
   2   3   2  274.47    8.40
   2   3   2  262.17    8.10
  -3  -3  -2  116.39    4.30
  -3  -3  -2  111.09    3.90
  -3  -3  -2  111.99    3.70
   3   3   2  113.99    4.20
   3   3   2  118.89    3.70
   3   3   2  117.39    4.00
  -4  -3  -2   30.30    1.60
  -4  -3  -2   33.50    2.20
  -4  -3  -2   31.70    1.50
   4   3   2   33.30    2.30
   4   3   2   33.60    1.80
   4   3   2   31.20    1.50
  -5  -3  -2   11.40    2.10
  -5  -3  -2    9.40    1.20
  -5  -3  -2    7.50    1.20
   5   3   2    7.10    1.30
   5   3   2   12.10    2.00
  -6  -3  -2  112.89    4.30
  -6  -3  -2  109.29    5.10
   6   3   2  109.49    5.00
   6   3   2  113.39    4.00
  -7  -3  -2   10.10    2.30
   7   3   2    9.80    2.30
   7  -5  -3   -1.50    2.40
  -7   5   3    8.40    2.80
   6  -5  -3   18.90    2.60
   6  -5  -3   17.50    2.70
  -6   5   3   22.30    2.90
  -6   5   3   17.70    2.60
   5  -5  -3    4.50    1.60
   5  -5  -3    4.60    2.80
  -5   5   3    5.00    2.00
  -5   5   3    4.10    1.60
   4  -5  -3   14.40    1.90
   4  -5  -3   11.70    1.10
   4  -5  -3   12.30    1.80
   4  -5  -3   12.80    1.20
  -4   5   3   15.00    2.30
  -4   5   3   11.10    2.00
   3  -5  -3 1312.67   38.30
   3  -5  -3 1339.27   38.90
   3  -5  -3 1356.56   38.40
  -3   5   3 1355.36   38.90
  -3   5   3 1224.98   39.00
   2  -5  -3   13.50    1.50
   2  -5  -3   13.80    1.20
   2  -5  -3   12.70    1.40
  -2   5   3   15.30    1.40
  -2   5   3   14.60    1.40
  -2   5   3   11.50    1.60
  -2   5   3   13.50    1.50
   1  -5  -3 1916.41   56.79
   1  -5  -3 1741.93   57.39
   1  -5  -3 2008.20   56.89
   1  -5  -3 2004.10   56.99
   1  -5  -3 2035.80   57.09
   1  -5  -3 1902.41   57.09
  -1   5   3 1999.20   56.79
  -1   5   3 2041.00   57.09
  -1   5   3 1940.61   56.89
  -1   5   3 2054.39   57.09
   0  -5  -3   32.70    1.70
   0  -5  -3   31.60    1.40
   0  -5  -3   33.60    1.40
   0  -5  -3   27.00    1.70
   0  -5  -3   33.10    1.80
   0  -5  -3   32.50    1.90
   0   5   3   29.70    1.80
   0   5   3   30.70    2.00
   0   5   3   30.70    1.70
  -1  -5  -3    6.90    0.50
  -1  -5  -3    7.30    1.20
  -1  -5  -3    6.80    0.70
   1   5   3    8.70    1.50
   1   5   3    7.40    1.20
  -2  -5  -3   60.49    2.90
   2   5   3   65.59    3.00
   2   5   3   59.89    2.80
  -3  -5  -3  582.04   18.00
   3   5   3  588.94   17.90
   3   5   3  580.94   17.80
  -4  -5  -3   13.50    1.60
  -4  -5  -3   14.50    1.90
  -4  -5  -3   12.60    0.80
   4   5   3   13.00    2.00
   4   5   3    9.40    1.30
   4   5   3   14.10    1.70
  -5  -5  -3   58.09    2.90
  -5  -5  -3   59.89    2.60
  -5  -5  -3   59.99    3.50
   5   5   3   58.59    3.00
   5   5   3   63.09    3.60
  -6  -5  -3    7.60    1.40
  -6  -5  -3    6.70    2.20
   6   5   3    8.80    1.50
   6   5   3    7.50    2.30
  -7  -5  -3   23.00    3.10
   7   5   3   19.00    3.30
   6  -7  -4    0.50    2.20
  -6   7   4    2.60    3.00
   5  -7  -4   -2.50    1.80
   5  -7  -4    2.80    1.90
  -5   7   4    0.40    2.00
  -5   7   4    5.30    2.40
   4  -7  -4   49.10    3.30
   4  -7  -4   56.49    3.30
   4  -7  -4   48.60    2.50
  -4   7   4   49.50    3.60
  -4   7   4   51.59    3.50
   3  -7  -4   47.50    3.00
   3  -7  -4   51.29    2.90
   3  -7  -4   44.50    2.40
  -3   7   4   46.20    3.20
  -3   7   4   47.50    2.90
   2  -7  -4   16.60    1.70
   2  -7  -4   20.80    2.00
   2  -7  -4   17.90    1.70
  -2   7   4   18.70    1.90
  -2   7   4   16.00    1.70
  -2   7   4   22.10    2.20
  -2   7   4   19.80    2.00
   1  -7  -4   40.90    2.50
   1  -7  -4   41.80    2.50
   1  -7  -4   38.60    2.10
  -1   7   4   39.90    2.50
  -1   7   4   38.70    2.50
   0  -7  -4   21.40    1.80
   0  -7  -4   22.90    2.10
   0  -7  -4   20.20    1.20
   0  -7  -4   20.50    1.40
   0   7   4   20.10    2.00
   0   7   4   19.90    2.00
  -1  -7  -4  651.33   19.60
  -1  -7  -4  648.04   18.70
  -1  -7  -4  664.53   19.70
  -1  -7  -4  632.04   18.90
   1   7   4  577.64   19.90
   1   7   4  657.73   19.70
  -2  -7  -4  202.48    7.20
  -2  -7  -4  193.98    7.10
   2   7   4  197.88    7.20
   2   7   4  203.68    7.40
  -3  -7  -4   10.90    2.10
  -3  -7  -4   12.70    2.00
   3   7   4   11.10    1.90
   3   7   4   11.70    2.10
  -4  -7  -4    4.60    1.70
  -4  -7  -4    0.40    1.30
   4   7   4    2.50    1.40
   4   7   4    6.10    1.80
  -5  -7  -4   43.50    3.20
  -5  -7  -4   33.30    2.80
   5   7   4   44.00    2.80
   5   7   4   38.40    3.20
  -6  -7  -4   16.00    2.20
  -6  -7  -4   19.90    3.00
   6   7   4   21.50    3.10
   5  -9  -5   12.40    3.00
   5  -9  -5    3.00    2.50
   4  -9  -5   -0.30    2.30
   4  -9  -5    3.40    2.10
   4  -9  -5    1.50    1.80
  -4   9   5   -1.00    1.90
  -4   9   5    0.80    2.30
   3  -9  -5   36.30    2.60
   3  -9  -5   36.00    2.60
   3  -9  -5   40.30    3.00
   2  -9  -5   49.70    2.80
   2  -9  -5   47.70    3.80
   2  -9  -5   52.09    3.00
  -2   9   5   45.20    3.20
   1  -9  -5   29.80    2.10
   1  -9  -5   35.10    2.70
   1  -9  -5   40.40    2.80
  -1   9   5   37.70    2.70
  -1   9   5   35.80    2.90
   0  -9  -5    0.20    1.40
   0  -9  -5    0.40    1.30
   0   9   5    2.10    1.60
   0   9   5   -1.10    1.40
  -1  -9  -5   89.29    4.40
   1   9   5   85.69    4.40
   1   9   5   88.59    4.30
  -2  -9  -5   25.60    2.60
  -2  -9  -5   20.50    2.60
   2   9   5   14.90    2.90
   2   9   5   20.80    2.40
  -3  -9  -5   54.49    3.50
  -3  -9  -5   54.79    3.60
   3   9   5   54.39    3.40
   3   9   5   50.69    3.70
  -4  -9  -5   26.70    2.80
  -4  -9  -5   21.90    2.90
   4   9   5   33.10    3.20
   4   9   5   30.10    2.90
  -5  -9  -5   30.90    3.30
  -5  -9  -5   21.20    3.00
   5   9   5   26.80    2.90
   5   9   5   29.10    3.70
   3 -11  -6    7.30    3.10
   2 -11  -6    1.40    2.50
   2 -11  -6   10.60    2.50
   1 -11  -6    2.40    2.20
   1 -11  -6    5.40    2.20
  -1  11   6    4.10    2.30
   0 -11  -6    9.60    2.20
   0 -11  -6    5.30    2.10
   0  11   6    4.40    2.20
   0  11   6   11.40    2.50
  -1 -11  -6   -2.60    2.20
  -1 -11  -6   -4.80    3.20
   1  11   6    6.20    2.50
  -2 -11  -6   11.40    2.40
   2  11   6    7.20    2.80
  -3 -11  -6   29.30    4.00
   3  11   6   39.70    5.10
   4  10   4   19.70    3.40
   3  10   4   20.50    3.40
   3  10   4   18.80    2.80
  -3 -10  -4   14.40    2.80
  -3 -10  -4   17.30    2.80
   2  10   4   -2.40    2.20
   2  10   4    2.90    1.70
  -2 -10  -4   -2.30    2.00
  -2 -10  -4    1.40    1.90
   1  10   4   26.70    3.00
   1  10   4   32.30    2.80
  -1 -10  -4   35.50    3.10
  -1 -10  -4   32.50    2.80
   0  10   4   85.39    4.30
   0  10   4   80.19    4.90
   0 -10  -4   80.99    4.30
   0 -10  -4   78.09    4.10
  -1  10   4   -2.40    1.70
   1 -10  -4   -2.10    1.90
   1 -10  -4   -0.30    1.60
   2 -10  -4   -0.60    2.00
   2 -10  -4    0.20    1.60
   2 -10  -4   -0.30    1.60
   3 -10  -4   16.10    2.50
   3 -10  -4   13.20    2.10
   3 -10  -4   15.90    2.80
  -4  10   4   14.50    3.00
   4 -10  -4   10.40    2.50
   4 -10  -4    5.60    3.00
   6   8   3   32.80    3.50
   6   8   3   28.60    2.90
  -6  -8  -3   22.10    2.60
   5   8   3   34.40    2.90
   5   8   3   40.20    3.40
  -5  -8  -3   31.40    3.20
  -5  -8  -3   38.10    3.10
   4   8   3  208.08    7.90
   4   8   3  219.28    8.10
  -4  -8  -3  214.18    7.90
  -4  -8  -3  197.38    8.00
   3   8   3    2.80    1.70
   3   8   3   -1.60    1.30
  -3  -8  -3    1.00    1.40
  -3  -8  -3    0.30    1.70
   2   8   3  108.09    5.10
   2   8   3  124.69    5.20
  -2  -8  -3  123.39    5.10
  -2  -8  -3  114.69    5.70
   1   8   3   59.49    3.90
   1   8   3   62.29    3.50
  -1  -8  -3   61.29    4.80
  -1  -8  -3   59.29    3.40
   0   8   3   63.79    3.20
   0   8   3   62.69    3.40
   0  -8  -3   62.89    2.80
   0  -8  -3   63.29    3.40
   0  -8  -3   58.69    3.40
  -1   8   3   39.60    2.40
  -1   8   3   43.00    2.80
   1  -8  -3   40.00    2.30
   1  -8  -3   42.00    2.70
   1  -8  -3   42.10    2.80
  -2   8   3    4.60    1.40
  -2   8   3    6.00    1.50
   2  -8  -3    6.30    1.40
   2  -8  -3    3.10    1.20
  -3   8   3    9.40    1.60
   3  -8  -3    9.20    1.70
   3  -8  -3   10.80    1.80
  -4   8   3   15.50    2.90
  -4   8   3   14.10    2.40
   4  -8  -3   16.40    2.80
   4  -8  -3   13.00    1.80
   4  -8  -3   15.70    2.20
   4  -8  -3   14.30    2.20
  -5   8   3   20.80    3.00
  -5   8   3   18.50    3.70
   5  -8  -3   24.20    2.90
   5  -8  -3   23.80    2.70
  -6   8   3    8.50    3.60
   6  -8  -3   12.30    2.70
   6   6   2   15.80    2.70
   6   6   2   16.30    2.10
  -6  -6  -2   16.00    2.10
  -6  -6  -2   19.20    2.70
   5   6   2   37.90    2.70
   5   6   2   43.40    3.10
  -5  -6  -2   40.20    3.10
   4   6   2   83.59    4.10
   4   6   2   84.39    3.90
  -4  -6  -2   89.09    2.90
   3   6   2  124.09    4.00
   3   6   2  129.49    5.10
   3   6   2  131.59    5.10
  -3  -6  -2  129.39    5.30
  -3  -6  -2  126.59    4.00
   2   6   2   -0.10    1.20
   2   6   2    1.00    1.00
   2   6   2   -0.50    0.50
  -2  -6  -2    1.10    0.50
  -2  -6  -2    0.00    1.30
  -2  -6  -2    0.30    0.40
   1   6   2   21.80    2.00
   1   6   2   28.40    1.30
   1   6   2   26.20    2.00
  -1  -6  -2   29.00    1.30
  -1  -6  -2   27.90    2.00
  -1  -6  -2   27.80    1.50
   0   6   2  304.87    9.50
   0   6   2  285.27    9.50
   0  -6  -2  291.77    9.20
   0  -6  -2  291.07    9.00
   0  -6  -2  299.67    9.60
  -1   6   2  235.98    7.90
  -1   6   2  235.78    7.70
   1  -6  -2  245.28    8.20
   1  -6  -2  237.98    7.70
   1  -6  -2  238.18    7.90
  -2   6   2   46.60    2.90
  -2   6   2   52.09    2.50
  -2   6   2   49.70    2.50
  -2   6   2   50.19    2.60
   2  -6  -2   49.30    2.50
   2  -6  -2   50.39    2.90
   2  -6  -2   52.69    2.60
  -3   6   2   10.50    2.20
  -3   6   2    8.40    1.40
  -3   6   2    9.40    1.70
   3  -6  -2    9.10    1.20
   3  -6  -2    9.00    1.60
   3  -6  -2   10.50    1.70
  -4   6   2    6.70    1.90
  -4   6   2    7.80    2.30
   4  -6  -2    9.00    1.80
   4  -6  -2    5.60    1.00
   4  -6  -2    4.80    1.70
  -5   6   2   34.80    3.40
  -5   6   2   31.50    3.00
   5  -6  -2   33.10    2.80
   5  -6  -2   30.30    2.80
  -6   6   2   12.70    2.50
  -6   6   2   22.30    3.40
   6  -6  -2   13.70    2.60
   6  -6  -2   17.00    2.60
  -7   6   2    7.30    3.40
   7  -6  -2    3.60    2.60
   7   4   1    3.40    2.30
  -7  -4  -1    0.30    2.10
   6   4   1  193.88    7.50
   6   4   1  196.88    6.60
  -6  -4  -1  193.38    6.60
  -6  -4  -1  188.68    7.60
  -6  -4  -1  193.98    6.60
   5   4   1   23.40    2.50
   5   4   1   23.80    1.90
  -5  -4  -1   24.70    1.60
  -5  -4  -1   23.60    3.30
   4   4   1   28.10    1.50
   4   4   1   28.90    1.90
   4   4   1   28.90    2.20
  -4  -4  -1   26.40    2.30
  -4  -4  -1   29.70    1.50
   3   4   1   39.40    2.10
   3   4   1   39.20    1.80
   3   4   1   37.30    2.20
  -3  -4  -1   38.50    1.60
  -3  -4  -1   38.90    2.30
   2   4   1   34.70    1.40
   2   4   1   31.60    1.80
   2   4   1   32.10    1.80
  -2  -4  -1   30.80    1.30
  -2  -4  -1   32.10    2.00
  -2  -4  -1   32.80    1.60
   1   4   1   27.80    1.70
   1   4   1   27.70    1.20
   1   4   1   28.60    1.60
   1   4   1   27.50    1.60
  -1  -4  -1   27.00    1.50
  -1  -4  -1   28.60    1.70
  -1  -4  -1   25.80    1.40
  -1  -4  -1   26.50    1.40
   0   4   1  381.96   11.10
   0   4   1  366.76   11.30
   0   4   1  370.36   11.50
   0   4   1  368.46   11.30
   0  -4  -1  366.36   11.10
   0  -4  -1  374.96   11.50
   0  -4  -1  352.26   11.20
   0  -4  -1  363.96   11.80
   0  -4  -1  383.06   11.10
   0  -4  -1  383.76   11.20
  -1   4   1  262.67    7.90
  -1   4   1  255.77    8.30
  -1   4   1  265.67    8.00
   1  -4  -1  263.87    8.00
   1  -4  -1  240.38    8.10
   1  -4  -1  236.78    8.00
   1  -4  -1  249.38    7.90
   1  -4  -1  263.27    7.90
   1  -4  -1  249.58    8.20
  -2   4   1  213.48    7.50
  -2   4   1  225.88    7.00
  -2   4   1  222.28    7.20
   2  -4  -1  223.88    7.20
   2  -4  -1  226.88    7.00
   2  -4  -1  229.98    7.30
   2  -4  -1  219.18    6.90
   2  -4  -1  223.18    7.20
  -3   4   1   14.00    1.80
  -3   4   1   13.10    1.50
   3  -4  -1   15.90    0.90
   3  -4  -1   15.10    0.90
   3  -4  -1   13.30    1.40
   3  -4  -1   14.30    1.60
  -4   4   1    4.50    1.40
  -4   4   1    5.20    1.70
   4  -4  -1    5.10    0.60
   4  -4  -1    5.10    1.50
   4  -4  -1    5.50    1.40
   4  -4  -1    3.50    0.60
  -5   4   1   12.30    2.10
  -5   4   1   12.30    2.20
   5  -4  -1   12.20    2.00
   5  -4  -1   12.40    2.10
  -6   4   1   20.50    2.50
  -6   4   1   18.50    2.80
   6  -4  -1   14.90    2.60
   6  -4  -1   15.40    2.20
  -7   4   1   18.50    3.00
  -7   4   1   18.50    3.30
   7  -4  -1   17.40    2.90
   7  -4  -1   18.60    2.80
   7   2   0   15.10    2.70
  -7  -2   0   21.00    2.90
  -7  -2   0   16.60    2.20
   6   2   0  356.86   10.80
   6   2   0  349.77   11.90
  -6  -2   0  349.87   11.90
  -6  -2   0  352.36   11.40
   5   2   0    2.00    1.50
   5   2   0    2.40    0.80
  -5  -2   0    1.30    0.70
  -5  -2   0    1.40    1.00
   4   2   0   61.19    2.50
   4   2   0   63.09    3.00
  -4  -2   0   62.29    2.40
  -4  -2   0   61.79    3.00
  -4  -2   0   66.39    2.70
   3   2   0  239.88    7.70
   3   2   0  236.88    7.40
   3   2   0  247.48    7.40
  -3  -2   0  237.38    7.30
  -3  -2   0  234.38    7.70
  -3  -2   0  232.28    7.70
   2   2   0  178.68    5.60
   2   2   0  175.88    5.40
   2   2   0  169.18    5.60
   2   2   0  174.48    5.50
  -2  -2   0  172.38    5.40
  -2  -2   0  177.18    5.50
  -2  -2   0  177.08    5.60
  -2  -2   0  173.78    5.70
   1   2   0  273.47    8.30
   1   2   0  269.77    8.30
   1   2   0  286.07    8.40
  -1  -2   0  283.87    8.20
  -1  -2   0  279.07    8.30
  -1  -2   0  270.27    8.20
  -1  -2   0  270.77    8.40
   0   2   0  741.33   21.40
   0   2   0  691.43   21.40
   0   2   0  765.12   21.60
   0  -2   0  720.63   21.40
   0  -2   0  773.92   21.40
   0  -2   0  784.02   21.60
   0  -2   0  716.23   21.50
   0  -2   0  708.63   21.40
  -1   2   0  207.78    6.50
  -1   2   0  208.78    6.70
  -1   2   0  210.98    6.80
   1  -2   0  233.08    6.70
   1  -2   0  220.68    6.80
   1  -2   0  233.08    6.60
   1  -2   0  219.38    6.50
   1  -2   0  213.38    6.70
  -2   2   0  775.42   22.50
  -2   2   0  748.93   22.10
  -2   2   0  771.62   22.50
   2  -2   0  750.72   22.10
   2  -2   0  766.82   22.50
   2  -2   0  771.32   22.50
   2  -2   0  773.62   22.50
   2  -2   0  761.92   22.10
   2  -2   0  764.32   22.40
  -3   2   0  373.86   11.50
  -3   2   0  366.86   11.40
   3  -2   0  361.66   11.30
   3  -2   0  367.66   11.60
  -4   2   0   45.80    2.50
  -4   2   0   48.80    2.70
   4  -2   0   47.60    2.50
  -5   2   0    0.20    1.20
  -5   2   0    1.60    1.60
   5  -2   0    0.40    1.40
  -6   2   0  108.59    5.10
  -6   2   0  106.19    4.80
   6  -2   0  102.09    4.70
   6  -2   0  100.49    4.80
  -7   2   0   15.00    3.00
  -7   2   0   18.40    2.60
   7  -2   0   17.70    2.80
   7  -2   0   17.40    2.60
  -8   0   1   21.40    2.90
   7   0  -1   24.20    2.80
  -7   0   1   26.50    2.50
  -7   0   1   26.10    3.00
   6   0  -1  218.08    8.00
  -6   0   1  207.38    8.60
  -6   0   1  223.78    8.40
   5   0  -1    9.30    1.90
  -5   0   1   10.30    2.00
  -5   0   1   12.00    1.60
   4   0  -1 1789.62   50.29
   4   0  -1 1714.23   50.99
  -4   0   1 1848.92   50.99
  -4   0   1 1742.33   50.99
  -4   0   1 1659.73   50.39
   3   0  -1  300.97    9.40
   3   0  -1  304.77    9.50
   3   0  -1  312.37    9.70
   3   0  -1  293.47    8.90
  -3   0   1  310.47    9.40
  -3   0   1  287.37    9.40
  -3   0   1  313.27    9.00
  -3   0   1  302.47    9.50
   2   0  -1 1133.59   33.80
   2   0  -1 1188.48   34.00
   2   0  -1 1185.18   34.10
   2   0  -1 1167.98   34.10
  -2   0   1 1247.78   33.80
  -2   0   1 1167.48   34.00
  -2   0   1 1165.28   34.10
  -2   0   1 1141.09   34.10
   1   0  -1   93.19    3.10
   1   0  -1   99.49    3.10
   1   0  -1   98.19    3.10
  -1   0   1  103.99    3.00
  -1   0   1   97.49    3.10
  -1   0   1   95.89    3.10
  -1   0  -1   62.39    2.30
  -1   0  -1   62.79    2.10
   1   0   1   81.99    2.30
   1   0   1   76.89    2.40
  -2   0  -1  270.47    8.50
  -2   0  -1  261.57    8.40
  -2   0  -1  288.17    8.50
   2   0   1  293.47    8.50
   2   0   1  288.67    8.50
  -3   0  -1   65.29    2.60
  -3   0  -1   66.99    2.60
  -3   0  -1   67.69    2.80
   3   0   1   69.29    2.80
   3   0   1   67.19    2.50
  -4   0  -1  216.38    7.30
  -4   0  -1  215.98    7.10
   4   0   1  217.78    7.30
  -5   0  -1   48.70    3.00
  -5   0  -1   51.39    2.70
   5   0   1   51.69    3.00
  -6   0  -1    5.50    1.90
  -6   0  -1    2.90    1.40
   6   0   1    1.60    1.70
  -7   0  -1   16.50    2.20
  -7   0  -1   16.30    2.70
   7   0   1   14.60    2.50
   7   0   1   13.50    2.20
  -8   0  -1   40.90    3.30
  -8   0  -1   32.60    5.50
   8   0   1   29.60    3.20
  -8   2   2    5.60    3.00
   7  -2  -2    7.70    2.30
  -7   2   2    9.00    2.10
  -7   2   2   12.70    2.70
   6  -2  -2  181.68    7.20
  -6   2   2  181.28    8.30
  -6   2   2  195.78    7.10
   5  -2  -2   66.99    3.50
  -5   2   2   67.19    3.40
  -5   2   2   66.99    3.50
   4  -2  -2  392.26   12.50
  -4   2   2  403.26   12.50
  -4   2   2  397.46   12.50
   3  -2  -2   15.90    1.20
   3  -2  -2   15.90    1.40
   3  -2  -2   14.70    1.20
   3  -2  -2   15.30    1.00
   3  -2  -2   17.70    0.80
  -3   2   2   18.10    1.50
  -3   2   2   17.20    1.50
  -3   2   2   17.80    0.80
   2  -2  -2  542.45   16.20
   2  -2  -2  550.54   16.10
   2  -2  -2  552.44   16.30
   2  -2  -2  547.65   15.90
   2  -2  -2  522.25   16.20
   2  -2  -2  545.75   15.90
  -2   2   2  544.75   16.20
  -2   2   2  553.64   15.90
  -2   2   2  552.74   16.50
   1  -2  -2  725.03   21.50
   1  -2  -2  751.32   21.50
   1  -2  -2  753.92   21.50
   1  -2  -2  760.22   21.50
   1  -2  -2  789.22   21.70
  -1   2   2  695.13   21.50
  -1   2   2  727.53   21.50
  -1   2   2  724.13   21.60
  -1   2   2  732.13   21.50
   0  -2  -2  123.59    3.90
   0  -2  -2  119.29    3.70
   0  -2  -2  121.59    3.80
   0  -2  -2  131.89    3.90
   0  -2  -2  124.99    4.00
   0  -2  -2  126.59    3.90
   0   2   2  134.99    3.90
   0   2   2  115.19    4.10
   0   2   2  115.69    3.70
   0   2   2  120.09    3.90
  -1  -2  -2    6.90    0.70
  -1  -2  -2    8.30    0.80
  -1  -2  -2    7.50    0.70
  -1  -2  -2    7.80    0.80
   1   2   2    8.50    0.80
   1   2   2    8.50    0.90
   1   2   2    8.50    0.80
  -2  -2  -2  345.37   10.50
  -2  -2  -2  362.26   10.70
  -2  -2  -2  374.76   11.00
   2   2   2  357.76   10.90
   2   2   2  356.26   10.70
   2   2   2  363.06   10.90
   2   2   2  359.36   10.50
  -3  -2  -2  185.08    5.90
  -3  -2  -2  188.28    5.90
  -3  -2  -2  191.28    6.30
   3   2   2  190.48    5.90
   3   2   2  191.28    5.90
   3   2   2  190.48    6.30
  -4  -2  -2  195.78    6.90
  -4  -2  -2  199.98    6.40
  -4  -2  -2  199.48    6.20
  -4  -2  -2  198.68    6.20
   4   2   2  192.98    6.30
   4   2   2  202.48    6.90
   4   2   2  204.88    6.30
  -5  -2  -2   61.19    3.30
  -5  -2  -2   64.99    2.40
  -5  -2  -2   62.39    2.30
  -5  -2  -2   63.89    2.80
   5   2   2   65.79    2.40
   5   2   2   62.39    3.40
  -6  -2  -2    4.30    1.70
  -6  -2  -2    4.80    1.30
   6   2   2    5.30    1.90
  -7  -2  -2    0.40    1.60
  -7  -2  -2   -1.80    1.90
   7   2   2   -3.00    1.80
   7   2   2    0.90    1.50
   7  -4  -3   14.40    2.80
   7  -4  -3   11.00    2.70
  -7   4   3    7.10    2.40
  -7   4   3   11.60    3.00
   6  -4  -3   57.49    3.60
  -6   4   3   62.09    3.70
  -6   4   3   56.69    3.80
   5  -4  -3   39.90    2.90
  -5   4   3   47.90    3.10
  -5   4   3   44.90    3.00
   4  -4  -3  763.32   22.00
   4  -4  -3  729.53   22.70
   4  -4  -3  749.82   21.90
  -4   4   3  755.82   22.80
  -4   4   3  743.03   22.80
   3  -4  -3    4.70    0.70
   3  -4  -3    3.40    0.60
   3  -4  -3    2.70    1.10
  -3   4   3    3.20    1.20
  -3   4   3    3.70    1.10
   2  -4  -3    6.30    0.80
   2  -4  -3    5.20    0.90
   2  -4  -3    5.30    0.80
   2  -4  -3    5.30    0.80
  -2   4   3    3.90    1.00
  -2   4   3    4.60    1.20
  -2   4   3    4.60    1.10
   1  -4  -3  325.07   10.00
   1  -4  -3  328.07   10.00
   1  -4  -3  316.27    9.80
   1  -4  -3  327.27   10.00
   1  -4  -3  313.17    9.80
   1  -4  -3  312.07   10.10
  -1   4   3  336.47   10.00
  -1   4   3  335.07   10.10
  -1   4   3  309.17    9.90
   0  -4  -3   40.40    1.80
   0  -4  -3   40.80    1.80
   0  -4  -3   39.70    1.50
   0  -4  -3   37.80    1.80
   0  -4  -3   37.30    1.80
   0  -4  -3   39.10    1.90
   0  -4  -3   41.20    1.60
   0   4   3   37.60    1.80
   0   4   3   33.60    2.30
   0   4   3   39.10    1.90
   0   4   3   40.20    1.50
  -1  -4  -3  260.47    8.50
  -1  -4  -3  258.17    8.40
  -1  -4  -3  272.47    8.40
   1   4   3  279.27    8.50
   1   4   3  282.57    8.60
   1   4   3  265.57    8.50
  -2  -4  -3   42.10    2.20
   2   4   3   39.40    2.00
   2   4   3   42.30    2.20
  -3  -4  -3   60.49    2.60
  -3  -4  -3   57.39    2.00
  -3  -4  -3   60.89    2.90
   3   4   3   57.59    2.10
   3   4   3   60.49    2.60
   3   4   3   61.79    2.90
  -4  -4  -3  134.79    5.30
  -4  -4  -3  132.19    4.30
  -4  -4  -3  135.09    4.80
   4   4   3  135.59    4.40
   4   4   3  135.39    5.30
   4   4   3  138.09    4.90
  -5  -4  -3  165.78    5.40
  -5  -4  -3  165.38    5.80
  -5  -4  -3  160.68    6.50
   5   4   3  162.08    6.40
   5   4   3  168.38    5.70
  -6  -4  -3   18.60    1.80
  -6  -4  -3   24.20    2.60
  -6  -4  -3   25.60    2.10
   6   4   3   23.10    1.80
   6   4   3   29.00    2.90
  -7  -4  -3    0.60    2.10
   7   4   3    5.80    2.20
  -7   6   4   -3.10    3.40
   6  -6  -4   -1.00    1.90
   6  -6  -4    0.90    2.00
  -6   6   4   -0.90    1.90
  -6   6   4    6.50    2.60
   5  -6  -4   10.80    2.10
   5  -6  -4    9.90    2.20
  -5   6   4    6.90    2.00
  -5   6   4   12.60    4.50
   4  -6  -4  866.11   25.30
   4  -6  -4  834.12   25.80
   4  -6  -4  880.91   26.10
  -4   6   4  871.01   26.00
  -4   6   4  799.22   26.20
   3  -6  -4   44.80    2.60
   3  -6  -4   41.60    2.70
   3  -6  -4   40.30    2.20
  -3   6   4   42.60    2.60
  -3   6   4   39.80    2.80
   2  -6  -4   16.20    1.70
   2  -6  -4   16.20    1.60
   2  -6  -4   15.40    1.60
  -2   6   4   16.50    1.70
  -2   6   4   17.20    1.70
  -2   6   4   15.90    1.80
  -2   6   4   16.20    1.70
   1  -6  -4    6.90    1.20
   1  -6  -4    8.60    0.90
   1  -6  -4    7.70    1.30
   1  -6  -4    9.00    1.10
  -1   6   4    8.70    1.50
  -1   6   4    7.40    1.20
  -1   6   4    8.70    1.40
   0  -6  -4  188.78    6.20
   0  -6  -4  181.48    5.90
   0  -6  -4  180.88    5.70
   0  -6  -4  181.88    6.30
   0   6   4  171.18    6.40
   0   6   4  178.68    6.30
  -1  -6  -4  196.68    6.10
  -1  -6  -4  200.78    6.00
  -1  -6  -4  195.58    6.70
  -1  -6  -4  195.58    6.80
   1   6   4  200.08    6.80
   1   6   4  200.68    7.20
  -2  -6  -4   61.59    3.10
  -2  -6  -4   61.69    3.10
   2   6   4   65.19    3.30
   2   6   4   61.09    3.00
  -3  -6  -4    1.30    1.10
  -3  -6  -4   -0.50    1.30
   3   6   4    1.20    1.10
   3   6   4    0.20    1.50
  -4  -6  -4   19.70    2.10
  -4  -6  -4   22.60    2.40
   4   6   4   21.80    2.10
   4   6   4   22.20    2.50
  -5  -6  -4   37.90    2.50
  -5  -6  -4   40.20    3.00
   5   6   4   40.60    2.50
   5   6   4   37.70    3.10
  -6  -6  -4   44.40    3.30
   6   6   4   39.40    3.30
   6   6   4   43.00    2.80
   6  -8  -5   -3.40    2.60
   6  -8  -5    0.60    3.10
   5  -8  -5   12.00    2.60
   5  -8  -5    6.80    2.10
  -5   8   5    7.00    2.40
  -5   8   5   10.30    2.80
   4  -8  -5   39.80    2.50
   4  -8  -5   48.80    3.40
   4  -8  -5   41.40    3.10
   4  -8  -5   46.70    3.00
  -4   8   5   43.90    3.20
  -4   8   5   36.70    3.30
   3  -8  -5   11.30    1.70
   3  -8  -5   10.60    2.00
   3  -8  -5   13.30    1.80
  -3   8   5   11.70    2.00
  -3   8   5   10.40    2.10
   2  -8  -5  263.57    9.00
   2  -8  -5  273.77    9.20
   2  -8  -5  272.97    9.30
  -2   8   5  268.97    9.00
  -2   8   5  267.77    9.30
  -2   8   5  271.37    9.20
   1  -8  -5   12.70    1.70
   1  -8  -5    9.00    1.40
   1  -8  -5    9.50    1.60
  -1   8   5   11.70    2.00
  -1   8   5   10.40    1.90
   0  -8  -5  200.18    7.30
   0  -8  -5  214.78    7.60
   0  -8  -5  209.08    6.80
   0   8   5  204.38    7.60
   0   8   5  211.58    7.60
  -1  -8  -5   78.59    4.90
  -1  -8  -5   71.59    2.80
  -1  -8  -5   84.29    3.80
   1   8   5   85.69    4.30
   1   8   5   72.89    4.10
  -2  -8  -5   74.99    3.80
  -2  -8  -5   75.89    3.90
   2   8   5   73.39    3.70
   2   8   5   75.69    4.20
  -3  -8  -5   43.40    3.10
  -3  -8  -5   41.10    3.00
   3   8   5   48.40    3.30
   3   8   5   43.80    2.90
  -4  -8  -5    9.30    2.10
   4   8   5    8.60    1.80
   4   8   5    9.50    2.20
  -5  -8  -5   18.60    2.60
  -5  -8  -5   20.60    2.70
   5   8   5   22.90    2.60
  -6  -8  -5   16.00    2.60
   6   8   5   18.90    2.90
   4 -10  -6   89.89    4.80
   4 -10  -6   79.59    4.40
   3 -10  -6   16.20    2.60
   3 -10  -6   18.00    2.30
   3 -10  -6   14.10    2.50
   2 -10  -6    9.40    2.00
  -2  10   6   10.80    2.20
   1 -10  -6    0.00    1.70
   1 -10  -6   -2.60    1.70
  -1  10   6   -2.90    1.90
  -1  10   6   -2.60    1.80
   0 -10  -6   68.39    3.70
   0 -10  -6   69.79    3.90
   0  10   6   67.29    4.00
   0  10   6   66.29    4.00
  -1 -10  -6   11.50    2.30
  -1 -10  -6   14.20    2.30
   1  10   6   16.00    2.40
   1  10   6   12.60    2.30
  -2 -10  -6   85.79    4.40
  -2 -10  -6   77.79    4.20
   2  10   6   66.59    4.60
   2  10   6   81.99    4.50
  -3 -10  -6    8.70    2.20
  -3 -10  -6   13.50    2.40
   3  10   6   11.00    3.30
   3  10   6   13.70    2.40
  -4 -10  -6    6.80    2.30
   4  10   6    8.60    3.00
  -2 -11  -4   17.10    3.10
  -1 -11  -4    7.30    2.40
   0 -11  -4    4.50    2.30
   0 -11  -4    5.30    2.10
  -1  11   4    2.40    2.20
   1 -11  -4    5.90    2.10
   1 -11  -4    8.20    2.60
  -2  11   4   13.60    2.60
   2 -11  -4   16.20    2.40
   2 -11  -4   16.00    3.10
   3 -11  -4    9.20    3.00
   5   9   3   24.80    2.80
   5   9   3   30.90    3.50
  -5  -9  -3   20.40    3.10
   4   9   3    4.80    1.90
   4   9   3   10.40    2.50
  -4  -9  -3    8.30    2.30
  -4  -9  -3   14.50    2.60
   3   9   3    2.10    1.60
   3   9   3    2.50    2.10
  -3  -9  -3    0.90    1.70
  -3  -9  -3    5.40    2.10
   2   9   3   82.89    4.40
   2   9   3   84.49    4.40
  -2  -9  -3   85.09    4.20
  -2  -9  -3   77.39    4.40
   1   9   3  111.39    5.10
   1   9   3  116.59    5.00
  -1  -9  -3  117.29    5.20
  -1  -9  -3  111.79    5.10
   0   9   3   20.20    2.20
   0   9   3   20.50    2.40
   0  -9  -3   21.70    2.40
   0  -9  -3   23.80    2.40
   0  -9  -3   21.10    1.80
  -1   9   3   10.80    1.90
  -1   9   3    9.50    1.70
   1  -9  -3    9.90    2.10
   1  -9  -3    8.40    1.50
   1  -9  -3   14.60    2.10
  -2   9   3    3.20    1.60
   2  -9  -3    3.70    1.80
   2  -9  -3    4.90    1.40
   2  -9  -3    3.80    1.50
  -3   9   3   17.80    2.80
  -3   9   3   13.30    2.10
   3  -9  -3   12.20    2.00
   3  -9  -3   13.30    2.40
   3  -9  -3   10.10    1.90
  -4   9   3   39.20    3.40
   4  -9  -3   34.40    2.90
   4  -9  -3   36.20    3.50
   4  -9  -3   34.00    2.90
  -5   9   3   -4.40    3.10
   5  -9  -3    0.30    2.50
   5  -9  -3    5.90    3.10
   6   7   2   10.30    2.50
   6   7   2   13.30    2.40
  -6  -7  -2    9.60    2.60
  -6  -7  -2   14.10    2.40
   5   7   2  315.57   11.00
   5   7   2  317.37   10.70
  -5  -7  -2  299.77   11.10
  -5  -7  -2  317.57   10.70
   4   7   2   27.00    2.50
   4   7   2   26.40    2.60
  -4  -7  -2   27.80    2.80
   3   7   2   23.40    2.50
   3   7   2   21.90    2.30
  -3  -7  -2   25.60    1.10
  -3  -7  -2   25.80    2.70
   2   7   2   56.59    3.10
   2   7   2   53.89    3.00
  -2  -7  -2   49.40    2.00
  -2  -7  -2   50.79    3.10
  -2  -7  -2   56.79    2.10
   1   7   2  109.39    4.50
   1   7   2   99.59    4.50
  -1  -7  -2  109.89    4.60
  -1  -7  -2  110.59    4.10
  -1  -7  -2  109.29    3.70
   0   7   2   61.89    2.90
   0   7   2   60.79    3.10
   0  -7  -2   63.99    3.30
   0  -7  -2   60.89    2.40
   0  -7  -2   62.19    2.70
  -1   7   2   45.70    2.40
  -1   7   2   50.19    2.80
   1  -7  -2   51.59    2.50
   1  -7  -2   51.39    2.70
   1  -7  -2   49.70    2.90
  -2   7   2   11.10    1.70
  -2   7   2   12.00    2.10
  -2   7   2   12.40    1.50
   2  -7  -2   13.40    1.60
   2  -7  -2   12.30    2.00
   2  -7  -2   12.20    1.60
  -3   7   2   29.10    2.10
  -3   7   2   32.80    3.00
  -3   7   2   26.40    2.40
   3  -7  -2   31.70    2.40
   3  -7  -2   28.40    2.90
   3  -7  -2   22.80    1.90
   3  -7  -2   28.40    2.00
  -4   7   2   11.60    2.20
  -4   7   2   17.40    2.90
   4  -7  -2   10.20    1.90
   4  -7  -2   12.60    2.10
   4  -7  -2   13.50    2.50
   4  -7  -2   11.00    1.40
  -5   7   2    5.80    2.60
  -5   7   2    8.70    2.10
   5  -7  -2    5.70    1.90
   5  -7  -2    3.40    1.90
  -6   7   2   22.10    4.00
   6  -7  -2   19.60    2.80
  -7  -5  -1    5.70    2.50
   6   5   1   65.49    4.00
   6   5   1   63.79    3.20
  -6  -5  -1   66.89    4.10
   5   5   1  155.28    5.70
  -5  -5  -1  150.38    6.30
  -5  -5  -1  154.28    5.20
   4   5   1   62.69    3.00
   4   5   1   51.69    2.50
   4   5   1   61.69    3.30
  -4  -5  -1   58.79    2.30
  -4  -5  -1   54.69    3.30
   3   5   1  445.06   13.80
   3   5   1  455.95   13.20
   3   5   1  437.56   13.70
  -3  -5  -1  429.76   13.10
  -3  -5  -1  435.06   14.00
   2   5   1   59.79    2.80
   2   5   1   59.89    2.20
   2   5   1   63.59    2.80
  -2  -5  -1   59.19    3.00
  -2  -5  -1   60.69    2.20
   1   5   1  195.68    6.70
   1   5   1  199.18    6.20
   1   5   1  204.88    6.70
  -1  -5  -1  207.48    6.50
  -1  -5  -1  199.58    6.80
  -1  -5  -1  196.38    6.40
  -1  -5  -1  200.18    6.20
   0   5   1  456.75   13.80
   0   5   1  454.05   13.90
   0   5   1  453.65   13.60
   0  -5  -1  458.05   13.60
   0  -5  -1  459.65   13.60
   0  -5  -1  464.55   14.10
   0  -5  -1  431.56   13.90
  -1   5   1  471.45   14.60
  -1   5   1  476.15   14.30
   1  -5  -1  461.75   14.30
   1  -5  -1  473.15   14.30
   1  -5  -1  467.35   14.60
   1  -5  -1  470.55   14.20
  -2   5   1   30.10    1.70
  -2   5   1   29.90    1.90
  -2   5   1   27.40    2.20
   2  -5  -1   28.50    1.60
   2  -5  -1   25.50    2.10
   2  -5  -1   27.40    1.80
   2  -5  -1   29.40    1.40
   2  -5  -1   26.90    1.70
  -3   5   1   -0.10    1.20
  -3   5   1    2.00    0.80
  -3   5   1    1.20    1.60
   3  -5  -1   -0.70    0.60
   3  -5  -1    0.50    0.70
   3  -5  -1   -0.20    1.10
   3  -5  -1    2.40    1.10
  -4   5   1   45.30    2.90
  -4   5   1   47.40    3.20
   4  -5  -1   46.00    1.80
   4  -5  -1   43.70    2.90
   4  -5  -1   45.30    2.70
   4  -5  -1   47.20    1.90
  -5   5   1   17.50    2.40
  -5   5   1   18.20    3.60
   5  -5  -1   11.70    2.30
   5  -5  -1   17.00    2.20
  -6   5   1   26.30    2.90
  -6   5   1   19.90    3.00
   6  -5  -1   22.80    2.60
   6  -5  -1   24.00    2.70
  -7   5   1    7.10    3.00
   7  -5  -1    4.70    2.20
   7   3   0   13.80    2.70
  -7  -3   0   10.50    2.00
  -7  -3   0   12.60    2.60
   6   3   0    2.90    1.00
   6   3   0    3.80    1.90
  -6  -3   0    4.60    1.30
  -6  -3   0    2.70    1.80
   5   3   0  597.54   17.80
   5   3   0  583.54   18.40
  -5  -3   0  590.54   18.60
  -5  -3   0  592.44   17.90
   4   3   0  171.88    5.70
   4   3   0  169.28    6.10
   4   3   0  166.18    5.60
  -4  -3   0  172.78    5.70
  -4  -3   0  169.88    6.20
   3   3   0  245.88    7.60
   3   3   0  243.48    7.80
   3   3   0  235.88    7.40
  -3  -3   0  230.18    7.50
  -3  -3   0  232.18    7.40
  -3  -3   0  246.18    8.00
   2   3   0  157.38    5.00
   2   3   0  154.98    4.90
   2   3   0  141.29    5.00
   2   3   0  145.69    5.00
  -2  -3   0  143.59    4.70
  -2  -3   0  149.88    4.90
  -2  -3   0  154.48    5.20
   1   3   0   74.99    2.70
   1   3   0   77.39    2.50
   1   3   0   75.09    2.60
  -1  -3   0   74.39    2.80
  -1  -3   0   72.29    2.50
  -1  -3   0   71.89    2.70
  -1  -3   0   62.79    2.60
   0   3   0  353.06   10.60
   0   3   0  345.77   10.70
   0   3   0  360.46   10.80
   0   3   0  358.66   11.00
   0  -3   0  351.76   10.60
   0  -3   0  339.97   10.70
   0  -3   0  357.36   10.60
   0  -3   0  374.06   10.60
   0  -3   0  359.56   10.90
   0  -3   0  380.26   11.00
  -1   3   0  300.17    9.50
  -1   3   0  280.67    8.70
  -1   3   0  274.07    9.10
  -1   3   0  293.87    8.90
  -1   3   0  302.37    8.90
   1  -3   0  301.17    8.90
   1  -3   0  275.37    9.00
   1  -3   0  292.37    8.80
   1  -3   0  299.17    8.90
   1  -3   0  283.67    8.70
  -2   3   0  419.26   12.70
  -2   3   0  445.66   13.30
  -2   3   0  412.46   13.00
   2  -3   0  429.06   13.10
   2  -3   0  430.96   13.00
   2  -3   0  422.06   12.80
   2  -3   0  440.06   13.10
   2  -3   0  437.66   12.90
   2  -3   0  427.76   12.60
  -3   3   0  151.38    5.40
  -3   3   0  146.09    5.20
   3  -3   0  148.19    5.30
   3  -3   0  143.99    4.50
   3  -3   0  146.29    4.50
   3  -3   0  147.79    5.10
  -4   3   0    3.30    1.30
  -4   3   0    2.90    1.50
   4  -3   0    2.50    1.30
   4  -3   0    1.60    1.10
  -5   3   0    0.70    1.30
  -5   3   0    2.00    1.80
   5  -3   0    2.90    1.50
   5  -3   0    0.30    1.20
  -6   3   0   18.20    2.30
  -6   3   0   15.40    2.80
   6  -3   0   20.70    2.40
   6  -3   0   17.60    2.30
  -7   3   0   24.30    2.90
  -7   3   0   24.20    3.50
   7  -3   0   22.80    2.80
   7  -3   0   21.40    3.00
  -8  -1   1    9.20    2.30
  -8  -1   1   11.60    3.10
   7   1  -1   -1.20    1.90
  -7  -1   1   -0.30    2.00
  -7  -1   1    1.00    1.60
   6   1  -1   12.00    2.30
  -6  -1   1   12.70    2.40
  -6  -1   1   10.60    1.90
   5   1  -1  196.48    7.20
   5   1  -1  203.58    6.20
  -5  -1   1  201.68    6.90
  -5  -1   1  196.98    7.20
  -5  -1   1  205.68    6.40
   4   1  -1   72.89    3.30
   4   1  -1   74.69    2.60
  -4  -1   1   74.59    3.30
  -4  -1   1   72.49    2.60
  -4  -1   1   73.39    3.10
   3   1  -1 1004.60   29.60
   3   1  -1 1036.30   29.70
   3   1  -1  979.10   29.70
   3   1  -1 1011.40   29.40
  -3  -1   1 1020.20   29.80
  -3  -1   1  977.40   29.70
  -3  -1   1 1045.80   29.60
  -3  -1   1 1029.40   29.40
   2   1  -1  265.37    8.20
   2   1  -1  272.47    8.00
   2   1  -1  265.97    8.10
   2   1  -1  269.07    8.10
  -2  -1   1  258.97    8.10
  -2  -1   1  262.77    8.10
  -2  -1   1  271.77    8.00
  -2  -1   1  265.77    8.20
   1   1  -1   69.99    2.40
   1   1  -1   69.79    2.40
   1   1  -1   68.89    2.40
   1   1  -1   65.79    2.40
  -1  -1   1   71.89    2.50
  -1  -1   1   74.89    2.40
  -1  -1   1   73.49    2.40
  -1  -1   1   69.39    2.40
  -1   1  -1  153.08    4.80
  -1   1  -1  147.19    4.60
  -1   1  -1  155.28    4.80
  -1   1  -1  154.48    4.80
  -1   1  -1  156.68    4.70
   1  -1   1  152.88    4.80
   1  -1   1  154.28    4.70
   1  -1   1  157.58    4.80
   1  -1   1  162.08    4.90
   1  -1   1  152.08    4.60
  -2   1  -1  710.93   20.80
  -2   1  -1  720.03   20.90
  -2   1  -1  721.93   20.90
   2  -1   1  716.73   20.90
   2  -1   1  718.13   20.90
   2  -1   1  724.73   20.90
   2  -1   1  670.63   20.80
  -3   1  -1  123.49    4.30
  -3   1  -1  122.79    4.40
  -3   1  -1  118.49    4.20
   3  -1   1  126.39    4.30
   3  -1   1  127.09    4.30
   3  -1   1  121.09    4.30
  -4   1  -1   20.00    1.80
  -4   1  -1   19.80    1.60
   4  -1   1   18.40    1.70
  -5   1  -1    5.20    1.40
  -5   1  -1    6.60    1.70
   5  -1   1    3.40    1.30
   5  -1   1    5.50    1.70
  -6   1  -1   17.30    2.40
  -6   1  -1   20.00    2.20
   6  -1   1   22.10    2.50
   6  -1   1   22.60    2.50
  -7   1  -1   29.00    3.20
  -7   1  -1   23.60    2.60
   7  -1   1   20.70    2.60
   7  -1   1   15.00    2.60
  -8   1  -1   16.70    3.10
   8  -1   1   13.00    2.50
  -8   1   2   13.90    3.60
  -8   1   2   18.70    3.70
   7  -1  -2    5.20    2.30
  -7   1   2    6.10    1.90
  -7   1   2   10.40    2.60
   6  -1  -2   19.70    2.50
  -6   1   2   14.10    2.10
   5  -1  -2    1.00    1.50
  -5   1   2   -0.30    1.00
  -5   1   2    0.30    1.40
   4  -1  -2   29.10    2.00
   4  -1  -2   29.30    1.10
  -4   1   2   28.00    1.90
  -4   1   2   30.70    2.10
   3  -1  -2 1954.70   57.69
   3  -1  -2 1881.51   57.19
   3  -1  -2 2011.60   57.79
   3  -1  -2 1963.40   57.59
  -3   1   2 2065.59   57.69
  -3   1   2 2045.50   57.19
  -3   1   2 2029.70   57.69
   2  -1  -2  880.11   25.50
   2  -1  -2  806.42   25.30
   2  -1  -2  880.81   25.40
   2  -1  -2  846.62   25.50
  -2   1   2  908.71   25.20
  -2   1   2  891.81   25.50
  -2   1   2  903.41   25.60
   1  -1  -2  220.38    6.40
   1  -1  -2  214.58    6.30
   1  -1  -2  209.78    6.30
   1  -1  -2  213.28    6.40
  -1   1   2  201.08    6.40
  -1   1   2  202.98    6.40
  -1   1   2  214.98    6.30
  -1   1   2  215.88    6.30
   0  -1  -2    3.00    0.60
   0  -1  -2    2.40    0.30
   0   1   2    3.00    0.40
   0   1   2    1.70    0.40
  -1  -1  -2   72.19    2.60
  -1  -1  -2   81.19    2.60
  -1  -1  -2   80.59    2.70
  -1  -1  -2   75.59    2.60
  -1  -1  -2   77.69    2.40
   1   1   2   82.19    2.40
   1   1   2   82.09    2.70
   1   1   2   78.59    2.60
   1   1   2   77.29    2.40
   1   1   2   80.49    2.60
  -2  -1  -2  460.55   13.20
  -2  -1  -2  432.96   13.30
  -2  -1  -2  441.36   13.20
  -2  -1  -2  454.65   13.50
  -2  -1  -2  456.85   13.50
   2   1   2  466.55   13.30
   2   1   2  459.75   13.50
   2   1   2  451.65   13.20
   2   1   2  457.75   13.50
  -3  -1  -2  233.38    7.20
  -3  -1  -2  234.08    7.70
  -3  -1  -2  250.07    7.20
  -3  -1  -2  236.18    7.40
  -3  -1  -2  239.38    7.90
   3   1   2  245.68    7.70
   3   1   2  233.08    7.20
   3   1   2  243.18    7.40
  -4  -1  -2  269.27    8.00
  -4  -1  -2  270.17    8.50
  -4  -1  -2  273.27    8.00
  -4  -1  -2  258.17    8.70
   4   1   2  268.27    8.00
   4   1   2  267.47    8.70
   4   1   2  265.87    8.40
  -5  -1  -2   69.59    3.10
  -5  -1  -2   70.09    3.50
   5   1   2   71.39    3.60
  -6  -1  -2   10.60    2.10
  -6  -1  -2    9.40    1.60
   6   1   2    9.80    1.70
   6   1   2   10.00    2.10
  -7  -1  -2   27.80    2.50
  -7  -1  -2   29.50    2.90
   7   1   2   24.20    2.40
   7   1   2   28.40    3.00
  -8  -1  -2   15.30    2.80
   8   1   2   11.80    2.20
  -8   3   3   19.30    4.30
   7  -3  -3    7.70    2.50
  -7   3   3    8.30    2.20
  -7   3   3   12.00    2.70
   6  -3  -3   44.10    3.20
  -6   3   3   42.60    3.10
  -6   3   3   44.10    3.40
   5  -3  -3    0.10    1.50
  -5   3   3    0.30    1.50
  -5   3   3   -0.50    1.40
   4  -3  -3   37.60    1.70
   4  -3  -3   41.50    2.50
   4  -3  -3   43.30    1.60
  -4   3   3   42.50    2.50
  -4   3   3   41.20    2.50
   3  -3  -3   77.69    2.60
   3  -3  -3   73.09    3.10
   3  -3  -3   71.09    2.80
   3  -3  -3   77.89    2.70
  -3   3   3   76.79    3.20
  -3   3   3   78.39    3.20
   2  -3  -3  160.68    5.00
   2  -3  -3  153.18    5.20
   2  -3  -3  160.88    5.30
   2  -3  -3  159.38    5.00
   2  -3  -3  155.68    5.10
  -2   3   3  155.38    5.20
  -2   3   3  155.48    5.00
  -2   3   3  158.88    5.30
   1  -3  -3  850.51   24.80
   1  -3  -3  858.11   25.00
   1  -3  -3  828.62   24.70
   1  -3  -3  887.11   24.80
   1  -3  -3  776.92   24.80
   1  -3  -3  849.81   24.80
  -1   3   3  880.61   25.00
  -1   3   3  840.62   24.80
  -1   3   3  840.52   24.80
  -1   3   3  881.61   24.80
   0  -3  -3  314.07    9.20
   0  -3  -3  307.17    9.00
   0  -3  -3  306.57    9.10
   0  -3  -3  302.47    8.90
   0  -3  -3  294.77    9.20
   0  -3  -3  300.77    9.10
   0   3   3  305.27    9.10
   0   3   3  290.47    8.90
   0   3   3  306.97    9.10
   0   3   3  285.87    9.40
  -1  -3  -3    5.20    0.80
  -1  -3  -3    3.30    0.80
  -1  -3  -3    3.00    0.70
  -1  -3  -3    1.80    0.60
   1   3   3    2.80    0.70
   1   3   3    3.60    0.90
   1   3   3    3.60    0.70
  -2  -3  -3   19.00    1.20
  -2  -3  -3   19.10    1.50
  -2  -3  -3   19.10    1.30
   2   3   3   17.20    1.30
   2   3   3   17.90    1.50
  -3  -3  -3  482.05   14.60
  -3  -3  -3  500.75   15.30
  -3  -3  -3  503.75   15.00
  -3  -3  -3  498.95   15.00
   3   3   3  504.95   15.30
   3   3   3  515.15   15.00
   3   3   3  497.15   14.60
  -4  -3  -3  139.79    5.30
  -4  -3  -3  137.69    4.70
  -4  -3  -3  139.79    4.70
  -4  -3  -3  142.39    4.80
   4   3   3  147.69    4.80
   4   3   3  139.79    5.30
   4   3   3  137.79    4.60
  -5  -3  -3    6.10    1.80
  -5  -3  -3    6.30    1.10
  -5  -3  -3    4.20    0.90
   5   3   3    5.50    1.10
   5   3   3    5.50    1.80
  -6  -3  -3   64.89    3.80
  -6  -3  -3   65.99    3.00
   6   3   3   68.99    3.00
   6   3   3   68.79    3.90
  -7  -3  -3    5.70    2.50
   7   3   3    7.00    2.30
   7  -5  -4   25.90    3.20
  -7   5   4   26.60    3.40
   6  -5  -4   29.90    2.90
   6  -5  -4   28.30    2.90
  -6   5   4   35.90    3.20
  -6   5   4   27.90    2.80
   5  -5  -4  198.28    7.50
  -5   5   4  206.88    7.60
  -5   5   4  195.78    7.60
   4  -5  -4    3.60    0.90
   4  -5  -4    4.40    1.60
   4  -5  -4    4.20    0.80
  -4   5   4    3.40    1.70
  -4   5   4    3.20    1.40
   3  -5  -4  239.38    7.50
   3  -5  -4  230.18    7.70
  -3   5   4  222.38    8.00
  -3   5   4  242.58    7.90
   2  -5  -4  104.09    3.80
   2  -5  -4  100.59    3.70
   2  -5  -4  102.39    4.00
  -2   5   4  103.79    4.10
  -2   5   4  102.59    3.90
  -2   5   4  104.09    4.00
   1  -5  -4    4.40    0.80
   1  -5  -4    1.50    0.80
   1  -5  -4    3.20    0.60
   1  -5  -4    3.60    1.00
  -1   5   4    2.80    0.90
  -1   5   4    3.60    1.10
  -1   5   4    3.70    1.00
   0  -5  -4   84.39    3.40
   0  -5  -4   93.49    3.10
   0  -5  -4   95.99    3.00
   0  -5  -4   93.89    3.60
   0  -5  -4   97.99    3.40
   0   5   4   81.19    3.70
   0   5   4   93.49    3.50
   0   5   4   80.89    3.40
   0   5   4   94.99    3.10
  -1  -5  -4  289.07    9.20
  -1  -5  -4  283.37    9.30
   1   5   4  307.77    9.70
   1   5   4  282.07    9.30
   1   5   4  298.57    9.50
  -2  -5  -4   11.20    1.50
  -2  -5  -4   11.90    1.40
   2   5   4   11.50    1.40
   2   5   4   10.70    1.50
  -3  -5  -4   53.59    2.80
  -3  -5  -4   47.10    2.60
   3   5   4   48.70    2.60
   3   5   4   47.50    2.80
  -4  -5  -4  117.29    4.90
  -4  -5  -4  120.29    4.60
   4   5   4  118.89    4.60
   4   5   4  118.79    5.00
  -5  -5  -4  114.89    5.10
  -5  -5  -4  112.79    4.50
   5   5   4  115.59    4.50
   5   5   4  111.99    5.10
  -6  -5  -4    8.50    2.30
  -6  -5  -4    8.20    1.40
   6   5   4    9.90    1.50
   6   5   4   12.30    2.50
  -7  -5  -4   -0.50    2.30
   7   5   4    2.40    2.40
   6  -7  -5   17.80    2.90
  -6   7   5   18.40    3.20
   5  -7  -5   28.00    2.80
   5  -7  -5   26.70    2.90
  -5   7   5   31.30    3.30
  -5   7   5   31.30    3.00
   4  -7  -5   81.29    3.40
   4  -7  -5   79.29    4.10
   4  -7  -5   82.99    4.10
   4  -7  -5   79.99    4.10
  -4   7   5   83.49    4.20
  -4   7   5   81.29    4.30
   3  -7  -5   14.30    1.90
   3  -7  -5   13.90    1.90
  -3   7   5   14.30    2.10
  -3   7   5   11.90    2.20
   2  -7  -5    7.50    1.50
   2  -7  -5    7.80    1.50
   2  -7  -5    8.40    1.50
  -2   7   5    8.70    1.70
  -2   7   5   10.70    1.80
  -2   7   5   10.30    1.70
   1  -7  -5   56.39    2.50
   1  -7  -5   58.39    2.90
   1  -7  -5   58.69    2.80
  -1   7   5   59.39    3.00
  -1   7   5   55.09    2.60
  -1   7   5   57.49    3.10
   0  -7  -5  137.99    5.20
   0  -7  -5  132.89    4.30
   0  -7  -5  132.49    4.40
   0  -7  -5  129.49    4.90
   0   7   5  130.79    5.10
   0   7   5  122.09    5.20
  -1  -7  -5   58.49    2.90
  -1  -7  -5   55.99    1.90
  -1  -7  -5   54.79    3.10
   1   7   5   56.29    3.00
   1   7   5   53.09    3.50
  -2  -7  -5   82.49    3.80
  -2  -7  -5   83.19    3.90
   2   7   5   80.69    3.80
   2   7   5   85.79    4.20
  -3  -7  -5    2.60    1.40
  -3  -7  -5    4.00    1.70
   3   7   5    5.00    1.80
   3   7   5    2.80    1.40
  -4  -7  -5   27.00    2.30
  -4  -7  -5   27.90    2.50
   4   7   5   33.60    3.00
   4   7   5   30.50    2.50
  -5  -7  -5   22.00    2.60
  -5  -7  -5   13.80    2.30
   5   7   5   23.90    3.00
   5   7   5   18.70    2.30
  -6  -7  -5   39.70    2.90
  -6  -7  -5   47.70    3.50
   6   7   5   46.30    3.20
   6   7   5   47.90    3.90
   5  -9  -6   17.70    3.10
   4  -9  -6   22.90    2.70
   4  -9  -6   23.80    2.60
   4  -9  -6   21.10    2.80
  -4   9   6   18.60    2.70
  -4   9   6   20.10    2.70
   3  -9  -6   10.90    2.10
   3  -9  -6   15.00    2.40
   3  -9  -6    9.50    1.80
  -3   9   6   11.50    2.20
   2  -9  -6   19.80    2.40
   2  -9  -6   19.40    1.90
   2  -9  -6   21.80    2.20
  -2   9   6   23.70    2.50
   1  -9  -6    9.20    1.40
   1  -9  -6   10.10    1.80
   1  -9  -6    7.00    1.70
  -1   9   6    8.70    2.00
   0  -9  -6   41.80    2.90
   0  -9  -6   37.30    2.60
   0   9   6   40.30    3.10
   0   9   6   39.40    3.10
  -1  -9  -6    4.60    1.60
   1   9   6    4.00    1.50
  -2  -9  -6   62.39    3.60
  -2  -9  -6   61.09    3.40
   2   9   6   56.99    4.20
   2   9   6   59.29    3.60
  -3  -9  -6   10.40    2.10
  -3  -9  -6    9.70    2.00
   3   9   6   15.40    2.90
   3   9   6   14.40    2.30
  -4  -9  -6    4.90    2.00
   4   9   6    5.80    2.50
   4   9   6    3.30    1.90
  -5  -9  -6    4.50    2.00
  -5  -9  -6   -0.90    2.20
   5   9   6    3.90    2.70
   5   9   6    3.30    2.00
   3 -11  -7   -2.90    2.20
   2 -11  -7   12.40    2.50
  -2  11   7   13.00    2.60
   1 -11  -7   20.90    3.00
  -1  11   7   24.10    3.10
   0 -11  -7    3.10    2.00
   0 -11  -7    2.90    2.00
   0  11   7    5.10    2.70
   0  11   7    2.70    2.20
  -1 -11  -7   14.40    2.70
   1  11   7   21.80    3.30
  -2 -11  -7   16.90    3.00
   2  11   7   24.70    3.70
   3  11   7   10.90    3.50
   3  10   3   33.80    3.30
  -3 -10  -3   40.20    3.30
  -3 -10  -3   36.60    3.40
   2  10   3   13.40    2.60
  -2 -10  -3   10.20    2.60
  -2 -10  -3   13.50    2.60
   1  10   3   16.70    3.10
   1  10   3   13.60    2.30
  -1 -10  -3   14.50    2.50
  -1 -10  -3   14.30    2.50
   0  10   3    0.90    1.70
   0 -10  -3   -0.10    1.90
   0 -10  -3    2.60    1.70
  -1  10   3   23.90    2.50
   1 -10  -3   17.10    2.50
   1 -10  -3   17.30    2.60
  -2  10   3   43.20    3.30
   2 -10  -3   40.70    3.30
   2 -10  -3   37.50    2.90
   2 -10  -3   35.30    2.70
  -3  10   3    7.20    2.00
   3 -10  -3    5.90    1.80
   3 -10  -3    7.40    2.20
   3 -10  -3    5.60    2.70
  -4  10   3    6.30    3.00
   4 -10  -3    3.80    2.90
   6   8   2   21.90    3.00
   6   8   2   25.60    3.50
  -6  -8  -2   31.00    3.10
   5   8   2    1.10    1.70
   5   8   2    1.90    2.20
  -5  -8  -2    0.30    2.00
   4   8   2    4.70    1.70
   4   8   2    8.80    2.10
  -4  -8  -2    8.30    2.10
   3   8   2   61.29    3.50
   3   8   2   60.59    3.40
  -3  -8  -2   61.49    3.80
   2   8   2   98.89    4.60
   2   8   2  106.99    4.70
  -2  -8  -2  109.49    4.90
   1   8   2   89.29    4.30
   1   8   2   91.29    4.10
  -1  -8  -2   91.29    4.30
  -1  -8  -2   87.09    3.80
   0   8   2    1.70    1.20
   0   8   2    0.10    1.30
   0  -8  -2    1.70    1.10
   0  -8  -2    0.40    1.40
  -1   8   2    0.90    1.40
   1  -8  -2    0.90    1.20
   1  -8  -2    0.40    1.00
   1  -8  -2    2.00    1.70
  -2   8   2   20.20    2.10
   2  -8  -2   22.80    2.10
   2  -8  -2   17.00    2.30
   2  -8  -2   22.10    2.00
  -3   8   2   50.89    2.80
  -3   8   2   51.69    3.50
   3  -8  -2   46.10    2.70
   3  -8  -2   52.09    3.40
   3  -8  -2   45.10    3.00
   3  -8  -2   47.50    2.70
  -4   8   2   27.90    3.20
   4  -8  -2   22.60    3.30
   4  -8  -2   26.90    2.60
  -5   8   2   14.50    3.20
   5  -8  -2   13.00    2.40
   5  -8  -2   15.00    2.30
   5  -8  -2   18.40    3.10
  -6   8   2   -0.20    4.10
   6  -8  -2    2.80    2.60
   7   6   1    7.00    4.30
   6   6   1  109.79    4.70
   6   6   1  115.59    5.50
  -6  -6  -1  104.69    5.40
   5   6   1   59.79    3.60
  -5  -6  -1   58.79    3.60
   4   6   1    2.90    1.40
  -4  -6  -1    4.30    0.90
   3   6   1    2.50    1.20
   3   6   1    3.40    1.50
  -3  -6  -1    3.90    1.60
  -3  -6  -1    3.50    0.70
   2   6   1   86.09    3.70
   2   6   1   83.19    3.60
   2   6   1   84.99    2.90
  -2  -6  -1   86.29    3.90
  -2  -6  -1   88.19    3.10
   1   6   1  134.79    4.50
   1   6   1  139.19    5.10
   1   6   1  127.29    5.10
  -1  -6  -1  146.99    5.00
  -1  -6  -1  140.69    4.50
  -1  -6  -1  144.79    5.30
   0   6   1  208.38    6.80
   0   6   1  201.48    7.00
   0   6   1  204.48    6.60
   0  -6  -1  208.18    7.20
   0  -6  -1  200.08    6.60
   0  -6  -1  204.08    6.50
   0  -6  -1  204.38    6.70
  -1   6   1   50.89    2.90
  -1   6   1   49.40    2.50
  -1   6   1   46.70    2.20
   1  -6  -1   48.40    2.20
   1  -6  -1   47.70    2.30
   1  -6  -1   49.30    2.80
  -2   6   1   41.30    2.30
  -2   6   1   37.60    2.80
   2  -6  -1   40.30    2.80
   2  -6  -1   42.10    2.40
   2  -6  -1   40.90    2.20
  -3   6   1    4.80    1.90
  -3   6   1    6.60    1.10
  -3   6   1    5.70    1.50
   3  -6  -1    6.20    1.10
   3  -6  -1    6.10    1.60
   3  -6  -1    5.30    1.30
   3  -6  -1    7.70    1.90
  -4   6   1   49.40    3.20
  -4   6   1   47.60    3.60
   4  -6  -1   52.69    3.20
   4  -6  -1   51.39    2.80
   4  -6  -1   50.69    2.20
  -5   6   1   35.40    3.20
  -5   6   1   35.90    3.40
   5  -6  -1   40.20    2.90
   5  -6  -1   35.80    3.20
  -6   6   1    1.30    2.60
  -6   6   1    2.70    2.20
   6  -6  -1   -0.40    1.80
   6  -6  -1    0.80    1.90
   7  -6  -1    0.80    2.50
   7   4   0   23.50    3.20
  -7  -4   0   30.10    3.10
   6   4   0   28.70    2.80
   6   4   0   34.40    2.10
  -6  -4   0   29.80    3.00
  -6  -4   0   32.20    2.10
   5   4   0   42.40    2.90
   5   4   0   43.80    2.30
  -5  -4   0   43.40    2.20
  -5  -4   0   34.20    4.60
   4   4   0  184.78    6.20
   4   4   0  176.78    5.90
   4   4   0  181.18    6.40
  -4  -4   0  176.18    5.90
  -4  -4   0  173.98    6.60
   3   4   0   -0.50    0.70
   3   4   0    0.00    0.80
   3   4   0    0.40    1.00
  -3  -4   0    1.20    1.30
   2   4   0  144.39    4.60
   2   4   0  134.69    4.90
   2   4   0  142.29    4.80
  -2  -4   0  140.99    5.10
  -2  -4   0  136.09    4.60
  -2  -4   0  136.89    4.50
   1   4   0  220.88    7.10
   1   4   0  220.58    6.80
   1   4   0  215.08    7.00
   1   4   0  214.88    6.60
  -1  -4   0  210.98    6.90
  -1  -4   0  210.78    7.50
  -1  -4   0  208.98    6.70
  -1  -4   0  219.08    7.10
   0   4   0  488.55   14.20
   0   4   0  479.25   14.30
   0   4   0  461.35   14.50
   0   4   0  476.95   14.10
   0  -4   0  458.35   14.50
   0  -4   0  483.15   14.10
   0  -4   0  495.45   14.00
   0  -4   0  482.95   14.50
   0  -4   0  442.56   14.20
   0  -4   0  477.95   14.20
  -1   4   0  233.38    6.90
  -1   4   0  212.38    6.60
  -1   4   0  212.28    7.10
  -1   4   0  209.38    7.20
   1  -4   0  219.78    6.80
   1  -4   0  205.08    7.20
   1  -4   0  191.88    7.00
   1  -4   0  227.68    6.90
   1  -4   0  213.28    6.70
   1  -4   0  225.88    6.90
  -2   4   0   10.80    1.00
  -2   4   0   11.70    1.70
  -2   4   0   11.70    1.30
   2  -4   0   14.70    1.10
   2  -4   0   11.80    1.30
   2  -4   0   11.80    0.90
  -3   4   0   37.20    1.60
  -3   4   0   39.10    2.60
  -3   4   0   39.70    2.30
   3  -4   0   40.10    1.60
   3  -4   0   37.10    2.00
   3  -4   0   39.70    2.30
   3  -4   0   37.90    1.60
  -4   4   0   26.40    2.20
  -4   4   0   29.50    2.40
   4  -4   0   25.20    2.20
   4  -4   0   28.60    2.20
   4  -4   0   26.10    1.10
  -5   4   0   85.19    4.40
  -5   4   0   84.79    4.20
   5  -4   0   87.09    4.20
   5  -4   0   85.79    4.00
  -6   4   0   18.20    2.80
  -6   4   0   19.20    2.60
   6  -4   0   13.90    2.40
   6  -4   0   16.70    2.30
  -7   4   0    4.10    2.30
  -7   4   0    2.00    2.50
   7  -4   0    5.60    2.20
   7  -4   0    3.20    2.30
  -8  -2   1   15.90    2.60
   7   2  -1    2.20    2.00
  -7  -2   1    6.30    2.20
  -7  -2   1    4.50    1.70
   6   2  -1  226.98    8.40
   6   2  -1  233.78    7.40
  -6  -2   1  233.68    8.00
  -6  -2   1  234.28    8.60
   5   2  -1  152.08    5.90
   5   2  -1  158.78    5.20
  -5  -2   1  156.88    5.60
  -5  -2   1  155.18    6.00
  -5  -2   1  145.29    5.10
   4   2  -1  209.28    6.60
   4   2  -1  204.28    7.00
  -4  -2   1  200.38    7.10
  -4  -2   1  204.28    6.50
  -4  -2   1  206.38    6.70
   3   2  -1   29.40    1.80
   3   2  -1   27.20    1.40
   3   2  -1   30.40    1.50
  -3  -2   1   29.50    1.60
  -3  -2   1   28.40    1.80
  -3  -2   1   28.00    1.40
   2   2  -1   79.49    2.80
   2   2  -1   81.49    2.80
   2   2  -1   77.69    2.90
   2   2  -1   78.49    2.90
  -2  -2   1   78.99    2.80
  -2  -2   1   80.89    2.80
  -2  -2   1   76.59    2.70
   1   2  -1   26.70    1.50
   1   2  -1   28.80    1.40
   1   2  -1   28.20    1.20
   1   2  -1   27.80    1.30
  -1  -2   1   28.10    1.20
  -1  -2   1   28.90    1.40
  -1  -2   1   26.80    1.30
  -1  -2   1   26.40    1.40
   0   2  -1 2344.67   69.19
   0   2  -1 2430.86   68.79
   0   2  -1 2421.76   68.99
   0   2  -1 2484.05   69.09
   0   2  -1 2239.08   68.79
   0  -2   1 2405.56   68.79
   0  -2   1 2298.07   68.69
   0  -2   1 2434.46   68.69
   0  -2   1 2278.77   69.39
   0  -2   1 2511.45   68.89
  -1   2  -1  680.73   20.40
  -1   2  -1  715.43   20.20
  -1   2  -1  691.93   20.00
   1  -2   1  705.63   20.20
   1  -2   1  658.73   20.00
   1  -2   1  663.93   20.30
   1  -2   1  687.23   20.20
   1  -2   1  708.13   20.00
   1  -2   1  699.63   20.00
  -2   2  -1  481.75   14.30
  -2   2  -1  483.95   14.70
   2  -2   1  496.05   14.80
   2  -2   1  500.35   14.80
   2  -2   1  488.55   14.30
   2  -2   1  493.95   14.70
   2  -2   1  496.65   14.60
  -3   2  -1  118.29    4.40
  -3   2  -1  113.99    4.10
  -3   2  -1  115.89    4.30
   3  -2   1  120.49    4.30
   3  -2   1  117.29    4.20
  -4   2  -1   35.90    2.30
  -4   2  -1   34.00    2.10
   4  -2   1   36.60    2.20
   4  -2   1   35.10    2.20
  -5   2  -1   45.80    3.00
  -5   2  -1   44.20    2.80
   5  -2   1   43.80    2.80
   5  -2   1   44.90    2.70
  -6   2  -1  107.29    4.70
  -6   2  -1  106.59    5.20
   6  -2   1  104.49    4.90
   6  -2   1  108.29    4.80
  -7   2  -1   21.20    2.70
  -7   2  -1   17.90    3.10
   7  -2   1   17.40    2.70
   7  -2   1   17.40    2.60
  -8   0   2    4.70    2.20
  -8   0   2    5.50    2.60
   7   0  -2    0.40    1.90
  -7   0   2    3.10    1.60
  -7   0   2    1.80    2.00
   6   0  -2    2.50    1.70
  -6   0   2    6.60    3.30
  -6   0   2    1.70    1.60
   5   0  -2   40.60    2.60
   5   0  -2   39.90    1.50
  -5   0   2   40.20    2.40
  -5   0   2   36.40    1.60
  -5   0   2   41.80    2.70
   4   0  -2  668.23   20.10
   4   0  -2  632.54   19.30
  -4   0   2  649.74   19.50
  -4   0   2  679.23   20.10
  -4   0   2  685.83   20.00
   3   0  -2  321.97    9.80
   3   0  -2  334.07   10.20
   3   0  -2  324.87   10.20
   3   0  -2  333.97   10.30
  -3   0   2  348.47   10.00
  -3   0   2  341.37   10.30
  -3   0   2  317.47   10.20
  -3   0   2  335.07   10.30
   2   0  -2  114.59    3.80
   2   0  -2  113.49    3.60
   2   0  -2  113.09    3.80
   2   0  -2  116.79    3.80
  -2   0   2  113.29    3.80
  -2   0   2  111.19    3.80
  -2   0   2  107.39    3.70
  -2   0   2  118.89    3.70
   1   0  -2    6.50    0.80
   1   0  -2    8.10    0.80
   1   0  -2    6.40    0.80
   1   0  -2    8.20    1.00
  -1   0   2    9.40    0.90
  -1   0   2    5.60    0.80
  -1   0   2    7.50    0.80
  -1   0  -2  343.07   10.10
  -1   0  -2  345.77   10.00
  -1   0  -2  344.57   10.00
  -1   0  -2  348.67   10.00
   1   0   2  331.37   10.00
   1   0   2  357.26   10.10
   1   0   2  339.97   10.00
   1   0   2  330.27   10.00
   1   0   2  333.17   10.00
  -2   0  -2  393.36   11.80
  -2   0  -2  405.96   11.50
  -2   0  -2  406.86   11.50
  -2   0  -2  398.46   11.90
   2   0   2  395.26   11.90
   2   0   2  404.36   11.80
   2   0   2  389.56   11.90
   2   0   2  388.26   11.80
   2   0   2  391.86   11.50
  -3   0  -2   67.09    2.70
  -3   0  -2   67.19    2.60
  -3   0  -2   67.59    2.80
   3   0   2   65.29    2.60
   3   0   2   67.19    2.50
   3   0   2   64.89    2.70
   3   0   2   70.69    2.80
  -4   0  -2  141.69    5.30
  -4   0  -2  145.09    5.00
   4   0   2  144.99    5.10
   4   0   2  146.29    5.20
  -5   0  -2   17.50    2.00
  -5   0  -2   17.20    1.80
   5   0   2   19.40    1.80
   5   0   2   16.90    2.10
  -6   0  -2   37.30    3.00
  -6   0  -2   37.30    2.60
   6   0   2   36.20    2.90
   6   0   2   36.00    2.50
  -7   0  -2   19.30    2.40
  -7   0  -2   16.60    2.70
   7   0   2   17.10    2.20
   7   0   2   12.70    2.50
  -8   0  -2   14.90    2.50
   8   0   2    9.70    2.40
  -8   2   3    4.60    3.00
   7  -2  -3    6.20    2.20
  -7   2   3    7.00    1.90
  -7   2   3    9.80    2.50
   6  -2  -3   37.20    3.10
  -6   2   3   39.90    2.80
  -6   2   3   36.50    4.90
   5  -2  -3    0.60    1.40
  -5   2   3    0.60    1.50
  -5   2   3    1.10    1.20
   4  -2  -3  383.56   12.10
   4  -2  -3  377.56   11.20
   4  -2  -3  368.16   11.10
  -4   2   3  385.06   12.00
  -4   2   3  380.76   12.00
  -4   2   3  378.26   11.20
   3  -2  -3  374.06   11.80
   3  -2  -3  373.06   11.50
   3  -2  -3  373.26   11.60
  -3   2   3  400.06   11.80
  -3   2   3  389.56   11.90
  -3   2   3  390.06   11.30
   2  -2  -3  296.17    9.00
   2  -2  -3  303.67    9.00
   2  -2  -3  289.97    9.20
   2  -2  -3  298.37    9.20
  -2   2   3  302.87    9.10
  -2   2   3  304.27    8.90
  -2   2   3  299.17    9.20
   1  -2  -3  256.87    7.50
   1  -2  -3  260.17    7.40
   1  -2  -3  248.18    7.60
   1  -2  -3  243.88    7.50
   1  -2  -3  253.57    7.70
  -1   2   3  249.28    7.60
  -1   2   3  253.17    7.50
  -1   2   3  247.78    7.70
  -1   2   3  233.18    7.50
   0  -2  -3   76.69    2.60
   0  -2  -3   73.59    2.40
   0  -2  -3   74.59    2.60
   0  -2  -3   75.99    2.40
   0  -2  -3   69.69    2.70
   0   2   3   73.39    2.40
   0   2   3   76.49    2.60
   0   2   3   79.89    2.90
  -1  -2  -3  624.04   17.70
  -1  -2  -3  595.74   17.70
  -1  -2  -3  595.44   17.70
  -1  -2  -3  617.64   17.80
   1   2   3  599.24   17.70
   1   2   3  599.04   17.80
   1   2   3  639.04   17.70
   1   2   3  570.34   17.70
  -2  -2  -3  773.82   22.30
  -2  -2  -3  735.13   22.10
  -2  -2  -3  767.12   22.50
  -2  -2  -3  777.22   22.30
  -2  -2  -3  760.62   22.50
   2   2   3  775.02   22.50
   2   2   3  766.22   22.30
   2   2   3  768.52   22.10
  -3  -2  -3  180.88    6.20
  -3  -2  -3  181.08    5.70
  -3  -2  -3  187.18    5.80
  -3  -2  -3  186.88    5.80
   3   2   3  183.58    5.80
   3   2   3  181.98    6.20
   3   2   3  186.58    5.70
  -4  -2  -3  207.98    6.70
  -4  -2  -3  214.08    6.60
  -4  -2  -3  209.98    6.50
  -4  -2  -3  203.28    7.10
   4   2   3  205.88    6.60
   4   2   3  210.58    7.20
   4   2   3  217.08    6.60
  -5  -2  -3    1.10    1.50
  -5  -2  -3    0.30    0.60
  -5  -2  -3    1.50    0.60
  -5  -2  -3    0.00    0.90
   5   2   3    0.60    1.50
   5   2   3   -0.50    0.90
  -6  -2  -3   52.49    2.70
  -6  -2  -3   50.79    3.40
   6   2   3   49.20    2.60
   6   2   3   50.09    3.40
  -7  -2  -3   20.40    2.70
  -7  -2  -3   25.10    2.30
   7   2   3   20.30    2.20
   7   2   3   23.10    3.00
   7  -4  -4    3.20    2.40
  -7   4   4    6.60    2.20
  -7   4   4    1.70    2.70
   6  -4  -4    7.80    2.00
  -6   4   4    9.00    2.40
  -6   4   4    7.10    1.90
   5  -4  -4   24.00    2.70
   5  -4  -4   23.30    1.20
  -5   4   4   21.20    2.40
  -5   4   4   23.70    2.40
   4  -4  -4  346.77   11.50
   4  -4  -4  351.46   10.60
   4  -4  -4  366.66   10.80
  -4   4   4  349.17   11.50
  -4   4   4  355.96   11.50
   3  -4  -4   71.89    2.60
  -3   4   4   69.79    3.20
  -3   4   4   74.39    3.20
   2  -4  -4  389.06   11.60
   2  -4  -4  357.86   11.70
   2  -4  -4  396.56   11.60
   2  -4  -4  386.16   11.60
  -2   4   4  388.16   11.80
  -2   4   4  371.06   11.90
  -2   4   4  391.06   11.90
   1  -4  -4  762.72   22.80
   1  -4  -4  789.82   22.90
   1  -4  -4  783.52   22.80
   1  -4  -4  809.02   22.80
   1  -4  -4  744.13   22.70
   1  -4  -4  727.93   23.20
  -1   4   4  777.92   22.80
  -1   4   4  794.02   22.90
  -1   4   4  800.92   23.10
   0  -4  -4  100.19    3.50
   0  -4  -4  103.79    3.40
   0  -4  -4   97.79    3.60
   0  -4  -4  102.99    3.60
   0  -4  -4   93.99    3.50
   0  -4  -4   97.59    3.20
   0  -4  -4  102.29    3.20
   0   4   4   90.79    3.50
   0   4   4   98.79    3.60
   0   4   4   98.89    3.90
   0   4   4   97.09    3.20
  -1  -4  -4   14.60    1.20
  -1  -4  -4   16.00    1.20
  -1  -4  -4   13.00    1.30
  -1  -4  -4   13.90    1.10
   1   4   4   15.20    1.50
   1   4   4   14.00    1.10
   1   4   4   12.50    1.20
  -2  -4  -4  481.25   14.90
  -2  -4  -4  496.25   14.90
   2   4   4  480.15   14.90
   2   4   4  492.45   15.00
   2   4   4  514.35   15.60
  -3  -4  -4  224.08    7.40
  -3  -4  -4  222.28    7.20
   3   4   4  217.28    7.20
   3   4   4  217.88    7.40
  -4  -4  -4  151.68    5.30
  -4  -4  -4  148.49    5.70
  -4  -4  -4  147.99    4.70
   4   4   4  150.48    5.70
   4   4   4  153.98    4.80
   4   4   4  149.69    5.30
   4   4   4  153.38    4.80
  -5  -4  -4   89.19    3.70
  -5  -4  -4   91.49    3.40
  -5  -4  -4   91.79    4.50
   5   4   4   96.09    5.40
   5   4   4   95.99    3.70
   5   4   4   91.99    3.40
  -6  -4  -4    2.40    1.90
   6   4   4    2.20    1.90
  -7  -4  -4   11.40    2.40
   7   4   4    5.80    2.40
  -7   6   5    9.10    3.40
   6  -6  -5   20.10    2.90
   6  -6  -5   28.00    2.80
  -6   6   5   23.70    3.00
  -6   6   5   16.60    3.00
   5  -6  -5   17.80    2.30
   5  -6  -5   16.70    2.50
  -5   6   5   22.30    2.50
  -5   6   5   18.60    2.60
   4  -6  -5   98.39    4.40
   4  -6  -5   95.69    3.80
   4  -6  -5   98.29    4.50
  -4   6   5   97.89    4.50
  -4   6   5   92.19    4.50
   3  -6  -5   24.80    1.70
   3  -6  -5   22.70    2.10
   3  -6  -5   25.30    2.10
  -3   6   5   28.00    2.40
  -3   6   5   25.80    2.10
   2  -6  -5   37.20    2.10
   2  -6  -5   39.40    2.30
   2  -6  -5   41.00    2.30
  -2   6   5   37.10    2.40
  -2   6   5   38.10    2.30
  -2   6   5   38.50    2.20
   1  -6  -5  110.99    4.00
   1  -6  -5  111.39    4.10
   1  -6  -5  101.89    3.70
   1  -6  -5  107.59    4.20
  -1   6   5  107.69    4.20
  -1   6   5  114.89    4.50
  -1   6   5  107.99    3.90
   0  -6  -5  229.38    7.40
   0  -6  -5  237.08    7.70
   0  -6  -5  236.98    7.10
   0  -6  -5  232.28    7.00
   0   6   5  228.18    7.60
   0   6   5  203.08    7.80
  -1  -6  -5   60.19    3.00
  -1  -6  -5   60.49    2.80
   1   6   5   63.99    3.30
   1   6   5   57.89    2.80
  -2  -6  -5   10.50    1.70
  -2  -6  -5   11.00    1.60
   2   6   5    9.60    1.90
   2   6   5   13.40    1.60
  -3  -6  -5   57.29    2.90
  -3  -6  -5   52.49    3.00
   3   6   5   52.09    2.80
   3   6   5   59.19    3.20
  -4  -6  -5  199.58    7.30
  -4  -6  -5  195.68    7.00
   4   6   5  196.88    7.60
   4   6   5  198.48    7.00
  -5  -6  -5   41.60    2.70
  -5  -6  -5   47.20    3.10
   5   6   5   44.10    3.20
   5   6   5   45.20    2.70
  -6  -6  -5    2.60    1.50
  -6  -6  -5    6.00    2.20
   6   6   5    4.40    1.60
   6   6   5    6.10    2.20
   5  -8  -6   28.60    3.30
   5  -8  -6   28.50    2.90
   5  -8  -6   18.00    2.90
  -5   8   6   23.80    3.20
  -5   8   6   27.60    3.00
   4  -8  -6    0.60    1.90
   4  -8  -6   -2.30    1.20
   4  -8  -6   -0.10    1.70
   4  -8  -6    0.90    2.10
  -4   8   6    3.40    1.80
   3  -8  -6   -2.00    1.30
   3  -8  -6   -1.30    1.10
   3  -8  -6    3.20    1.60
  -3   8   6    1.20    1.50
  -3   8   6   -0.70    1.60
   2  -8  -6  155.68    5.80
   2  -8  -6  143.99    5.50
   2  -8  -6  146.69    5.50
  -2   8   6  149.59    6.00
  -2   8   6  144.09    5.50
   1  -8  -6   27.50    2.40
   1  -8  -6   27.80    1.80
   1  -8  -6   29.20    2.10
  -1   8   6   31.50    2.60
  -1   8   6   29.60    2.50
   0  -8  -6  129.49    4.90
   0  -8  -6  124.39    4.50
   0  -8  -6  128.69    5.60
   0   8   6  119.09    5.30
   0   8   6  129.59    5.80
  -1  -8  -6  122.89    5.20
  -1  -8  -6  119.79    4.80
   1   8   6  121.69    5.00
   1   8   6  112.69    5.40
  -2  -8  -6   25.70    2.50
  -2  -8  -6   32.90    2.50
   2   8   6   35.90    3.10
   2   8   6   30.00    2.50
  -3  -8  -6    0.00    1.60
  -3  -8  -6    0.60    1.40
   3   8   6    3.70    1.50
   3   8   6    3.60    1.90
  -4  -8  -6   21.70    2.50
  -4  -8  -6   22.70    2.60
   4   8   6   24.00    2.50
  -5  -8  -6   74.79    4.30
  -5  -8  -6   73.69    3.90
   5   8   6   73.89    4.60
   5   8   6   73.19    4.00
  -6  -8  -6   34.90    3.20
   6   8   6   32.80    3.20
   4 -10  -7    6.70    2.30
   3 -10  -7    2.00    1.90
   3 -10  -7    6.80    1.90
   2 -10  -7   11.50    2.10
   2 -10  -7   17.10    2.40
  -2  10   7   13.90    2.60
   1 -10  -7   17.60    2.50
   1 -10  -7   17.70    2.20
  -1  10   7   17.30    2.70
   0 -10  -7   68.19    3.50
   0 -10  -7   66.29    3.90
   0  10   7   64.49    4.10
   0  10   7   68.09    4.10
  -1 -10  -7   40.10    3.10
  -1 -10  -7   32.90    2.80
   1  10   7   38.00    3.20
   1  10   7   40.20    3.30
  -2 -10  -7   34.70    3.00
  -2 -10  -7   26.80    2.90
   2  10   7   28.70    3.60
   2  10   7   30.60    3.10
  -3 -10  -7    0.10    2.00
  -3 -10  -7    0.80    2.00
   3  10   7   -2.90    2.90
   3  10   7   -2.70    1.80
  -4 -10  -7    7.10    2.60
   4  10   7   15.50    3.40
  -2 -11  -3   -1.00    2.50
  -1 -11  -3   20.50    3.00
   0  11   3   -0.80    2.00
   0 -11  -3   -1.40    2.30
   0 -11  -3    5.40    2.10
  -1  11   3   30.20    3.40
   1 -11  -3   29.80    3.20
   1 -11  -3   29.10    3.00
  -2  11   3   12.70    2.50
   2 -11  -3   13.10    2.90
   5   9   2   -1.50    1.90
   5   9   2    1.20    2.50
  -5  -9  -2    5.30    2.10
   4   9   2   15.50    2.60
   4   9   2   17.60    2.80
  -4  -9  -2   17.40    2.80
  -4  -9  -2   18.30    2.80
   3   9   2   21.90    2.70
  -3  -9  -2   21.80    2.80
   2   9   2   37.20    3.00
   2   9   2   30.80    2.80
  -2  -9  -2   33.60    3.00
   1   9   2    7.20    1.70
   1   9   2    6.40    1.70
  -1  -9  -2    5.80    2.00
   0   9   2    3.90    1.60
   0   9   2    5.30    1.50
   0  -9  -2    2.10    1.30
   0  -9  -2    2.50    1.50
   0  -9  -2    7.80    1.90
  -1   9   2   68.19    3.20
  -1   9   2   63.09    3.70
   1  -9  -2   65.59    3.60
   1  -9  -2   66.29    3.30
   1  -9  -2   70.39    4.00
  -2   9   2   17.10    2.10
   2  -9  -2   14.70    2.10
   2  -9  -2   16.90    2.40
   2  -9  -2   16.30    2.00
  -3   9   2   15.20    2.80
  -3   9   2   15.30    2.10
   3  -9  -2   11.20    2.00
   3  -9  -2   12.70    1.90
   3  -9  -2   17.20    2.20
   3  -9  -2   14.10    2.60
  -4   9   2    6.20    2.60
   4  -9  -2    0.80    2.40
   4  -9  -2    0.50    1.90
  -5   9   2   -3.90    3.20
   5  -9  -2    6.30    3.30
   6   7   1    7.90    2.40
  -6  -7  -1    7.00    1.90
  -6  -7  -1    0.90    2.20
   5   7   1   -1.00    1.40
   5   7   1    3.70    1.90
  -5  -7  -1   -1.00    1.90
   4   7   1    4.20    1.60
   4   7   1    0.90    1.60
  -4  -7  -1    2.70    1.70
   3   7   1  134.89    7.50
   3   7   1  142.89    5.50
  -3  -7  -1  134.29    4.50
  -3  -7  -1  136.09    6.40
   2   7   1   92.59    4.10
   2   7   1   80.69    3.80
  -2  -7  -1   93.19    3.40
  -2  -7  -1   93.19    4.30
  -2  -7  -1   90.09    3.10
   1   7   1    1.40    1.20
   1   7   1    4.40    1.40
   1   7   1    1.50    0.70
  -1  -7  -1    3.40    1.50
  -1  -7  -1    0.10    0.70
  -1  -7  -1    0.20    1.10
   0   7   1    7.20    1.30
   0   7   1    5.70    1.50
   0  -7  -1    8.00    1.80
   0  -7  -1    7.90    1.20
  -1   7   1    9.20    1.70
  -1   7   1   13.00    1.30
   1  -7  -1    9.60    1.40
   1  -7  -1   12.40    1.90
  -2   7   1   13.80    1.70
  -2   7   1   14.30    2.10
   2  -7  -1   13.60    1.80
   2  -7  -1   13.70    2.10
   2  -7  -1   12.80    1.60
  -3   7   1  225.98    8.70
  -3   7   1  236.68    7.70
   3  -7  -1  230.48    7.80
   3  -7  -1  216.18    8.60
   3  -7  -1  236.18    7.70
  -4   7   1   -2.10    2.10
   4  -7  -1    0.40    0.90
   4  -7  -1    4.30    2.10
   4  -7  -1    1.30    1.50
   4  -7  -1    0.60    1.40
  -5   7   1    1.00    2.00
  -5   7   1    0.70    2.60
   5  -7  -1    8.60    2.10
   5  -7  -1    3.40    1.80
  -6   7   1    2.30    3.10
   6  -7  -1    3.40    2.20
   7   5   0   15.60    2.90
  -7  -5   0   11.30    2.80
   6   5   0   59.89    3.10
   6   5   0   52.79    3.60
  -6  -5   0   60.49    3.80
   5   5   0   17.20    2.80
   5   5   0   14.00    1.70
  -5  -5   0   15.20    1.40
  -5  -5   0   14.10    2.40
   4   5   0    0.70    1.50
   4   5   0    0.30    1.10
  -4  -5   0    1.50    0.80
  -4  -5   0    0.40    1.70
   3   5   0    0.40    0.80
   3   5   0    2.20    1.10
   3   5   0    3.90    1.30
  -3  -5   0    2.50    0.80
  -3  -5   0    1.80    1.50
   2   5   0  209.68    7.20
   2   5   0  218.68    7.10
   2   5   0  220.88    6.80
  -2  -5   0  214.08    7.40
  -2  -5   0  219.58    6.90
  -2  -5   0  213.88    7.20
   1   5   0  314.57   10.70
   1   5   0  348.27   10.50
   1   5   0  354.36   10.90
  -1  -5   0  370.36   11.20
  -1  -5   0  347.97   10.50
   0   5   0  106.29    3.60
   0   5   0  101.19    3.60
   0   5   0  102.29    3.90
   0  -5   0  101.49    3.60
   0  -5   0  102.39    3.50
   0  -5   0  103.49    4.10
   0  -5   0  103.59    3.70
  -1   5   0   40.40    1.80
  -1   5   0   38.90    2.40
  -1   5   0   40.00    2.10
   1  -5   0   43.90    1.90
   1  -5   0   40.40    1.80
   1  -5   0   40.50    2.10
   1  -5   0   41.30    2.50
  -2   5   0   23.30    1.60
  -2   5   0   23.00    2.20
   2  -5   0   22.30    1.70
   2  -5   0   24.20    1.40
   2  -5   0   22.90    2.00
   2  -5   0   22.20    1.20
  -3   5   0  137.39    4.70
  -3   5   0  139.79    5.70
  -3   5   0  136.89    5.20
   3  -5   0  135.49    4.50
   3  -5   0  140.49    4.60
   3  -5   0  134.29    4.90
   3  -5   0  137.79    5.30
  -4   5   0   38.70    3.10
  -4   5   0   39.40    2.70
   4  -5   0   36.20    2.60
   4  -5   0   38.00    2.50
   4  -5   0   36.90    1.60
  -5   5   0   12.10    2.30
  -5   5   0   16.70    2.70
   5  -5   0   16.20    2.10
   5  -5   0   15.20    2.30
  -6   5   0    3.30    2.20
  -6   5   0    7.10    2.60
   6  -5   0    3.70    1.80
   6  -5   0    6.90    2.10
  -7   5   0   -2.30    2.80
   7  -5   0   -2.20    2.30
   7   3  -1    4.80    2.30
  -7  -3   1    4.50    2.50
   6   3  -1   35.30    3.10
   6   3  -1   36.40    2.10
  -6  -3   1   37.80    2.40
  -6  -3   1   39.10    3.30
   5   3  -1   23.30    2.40
   5   3  -1   27.00    1.80
  -5  -3   1   23.20    1.80
  -5  -3   1   27.40    2.40
   4   3  -1   80.39    3.60
   4   3  -1   77.69    3.20
   4   3  -1   82.59    3.30
  -4  -3   1   80.39    3.20
  -4  -3   1   80.39    3.80
   3   3  -1    0.90    0.80
   3   3  -1    2.20    0.60
   3   3  -1    0.80    1.00
  -3  -3   1    1.80    0.70
  -3  -3   1    1.10    1.10
   2   3  -1   46.30    2.00
   2   3  -1   47.50    2.10
   2   3  -1   47.50    2.20
   2   3  -1   45.40    2.30
  -2  -3   1   45.70    1.90
  -2  -3   1   45.90    1.90
  -2  -3   1   47.60    2.30
  -2  -3   1   45.30    2.00
   1   3  -1   18.60    1.10
   1   3  -1   18.00    1.10
   1   3  -1   18.30    1.20
  -1  -3   1   17.90    1.00
  -1  -3   1   16.80    1.30
  -1  -3   1   18.50    1.10
   0   3  -1  397.16   12.20
   0   3  -1  411.96   12.10
   0   3  -1  385.06   11.90
   0  -3   1  393.76   12.10
   0  -3   1  406.66   11.80
   0  -3   1  401.56   12.30
   0  -3   1  403.86   12.10
   0  -3   1  410.86   12.30
  -1   3  -1    1.10    0.50
  -1   3  -1    1.10    0.60
   1  -3   1    1.50    0.50
   1  -3   1    1.10    0.50
   1  -3   1    1.50    1.00
   1  -3   1    3.10    0.90
   1  -3   1    1.10    1.00
   1  -3   1    1.70    0.50
  -2   3  -1    6.10    1.30
  -2   3  -1    5.40    1.00
  -2   3  -1    5.10    0.70
   2  -3   1    5.00    0.80
   2  -3   1    4.50    0.80
   2  -3   1    4.80    1.00
   2  -3   1    5.70    0.90
   2  -3   1    3.90    0.60
   2  -3   1    4.50    0.80
  -3   3  -1  103.09    4.00
  -3   3  -1  103.59    3.30
  -3   3  -1  106.49    4.20
   3  -3   1  100.19    4.00
   3  -3   1   99.49    3.30
   3  -3   1  105.79    3.80
   3  -3   1  103.39    3.30
   3  -3   1  103.79    3.70
  -4   3  -1  105.69    4.50
  -4   3  -1  106.79    4.30
   4  -3   1  106.19    4.30
   4  -3   1  107.89    4.20
  -5   3  -1   32.20    2.70
  -5   3  -1   30.50    2.80
   5  -3   1   29.70    2.60
   5  -3   1   29.90    2.40
  -6   3  -1   -0.20    2.10
  -6   3  -1    2.50    1.70
   6  -3   1    1.10    1.70
   6  -3   1   -1.20    1.80
  -7   3  -1    0.80    2.10
  -7   3  -1   -1.40    2.50
   7  -3   1    4.30    2.00
   7  -3   1   -0.80    2.10
  -8  -1   2   15.90    3.90
  -8  -1   2   12.70    2.30
   7   1  -2    1.80    2.10
  -7  -1   2    1.30    1.60
   6   1  -2   39.80    3.10
  -6  -1   2   48.70    3.20
  -6  -1   2   43.20    2.80
   5   1  -2   43.90    2.90
  -5  -1   2   42.50    2.50
  -5  -1   2   44.30    2.80
  -5  -1   2   42.40    2.00
   4   1  -2   11.90    0.90
   4   1  -2    9.90    1.60
  -4  -1   2   13.10    1.40
  -4  -1   2   13.20    1.00
  -4  -1   2   11.10    1.60
   3   1  -2  100.99    3.70
   3   1  -2  100.29    3.50
   3   1  -2   96.39    3.30
  -3  -1   2   99.69    3.70
  -3  -1   2  100.59    3.60
  -3  -1   2  100.79    3.40
  -3  -1   2   96.79    3.60
   2   1  -2   17.20    1.00
   2   1  -2   17.60    1.10
   2   1  -2   18.70    1.10
   2   1  -2   18.30    1.10
  -2  -1   2   16.40    1.10
  -2  -1   2   16.40    1.00
  -2  -1   2   18.20    1.20
  -2  -1   2   16.60    1.00
   1   1  -2 1971.80   56.19
   1   1  -2 1860.51   56.49
   1   1  -2 2050.49   56.29
   1   1  -2 1955.50   56.19
  -1  -1   2 1914.11   56.39
  -1  -1   2 1915.51   56.79
  -1  -1   2 2016.60   56.39
  -1  -1   2 1954.60   56.19
   0   1  -2  118.09    4.00
   0   1  -2  114.69    4.10
   0   1  -2  132.99    4.10
   0   1  -2  124.39    4.10
   0  -1   2  125.99    4.10
   0  -1   2  123.49    4.00
   0  -1   2  112.29    4.10
   0  -1   2  131.69    4.10
  -1   1  -2   28.50    1.10
  -1   1  -2   23.90    1.10
  -1   1  -2   27.30    1.40
  -1   1  -2   28.30    1.30
   1  -1   2   27.00    1.30
   1  -1   2   27.80    1.20
   1  -1   2   26.70    1.10
   1  -1   2   28.30    1.20
   1  -1   2   27.80    1.40
  -2   1  -2  387.86   11.60
  -2   1  -2  387.66   12.00
  -2   1  -2  401.26   11.60
  -2   1  -2  368.06   11.10
   2  -1   2  363.66   11.10
   2  -1   2  380.56   11.60
   2  -1   2  391.26   11.50
   2  -1   2  398.26   11.60
   2  -1   2  373.56   11.40
  -3   1  -2  205.28    6.80
  -3   1  -2  211.18    6.90
  -3   1  -2  219.18    7.00
   3  -1   2  211.18    6.90
   3  -1   2  214.38    6.80
   3  -1   2  216.88    6.90
  -4   1  -2   77.99    3.30
  -4   1  -2   78.69    3.50
   4  -1   2   82.99    3.40
   4  -1   2   78.39    3.30
  -5   1  -2  154.38    5.90
  -5   1  -2  155.68    5.70
   5  -1   2  155.98    5.80
   5  -1   2  150.78    5.70
  -6   1  -2   38.30    2.70
  -6   1  -2   36.20    2.80
   6  -1   2   38.50    2.70
   6  -1   2   30.40    2.70
  -7   1  -2    8.00    2.30
  -7   1  -2    8.70    1.90
   7  -1   2   13.00    2.40
   7  -1   2    3.40    2.20
  -8   1  -2    1.60    2.40
   8  -1   2   -2.00    2.30
  -8   1   3    7.20    2.90
   7  -1  -3   49.30    3.90
  -7   1   3   63.59    4.00
  -7   1   3   63.89    3.60
   6  -1  -3    1.00    1.80
  -6   1   3    3.30    1.50
  -6   1   3    3.10    2.10
   5  -1  -3   60.09    2.10
   5  -1  -3   64.59    3.40
  -5   1   3   65.29    3.30
  -5   1   3   61.79    3.20
  -5   1   3   60.09    2.10
   4  -1  -3  202.48    6.40
   4  -1  -3  209.88    7.20
  -4   1   3  210.98    7.10
  -4   1   3  214.18    6.40
  -4   1   3  214.48    7.10
   3  -1  -3  165.18    5.80
   3  -1  -3  176.88    5.80
   3  -1  -3  178.08    6.00
   3  -1  -3  177.48    5.50
  -3   1   3  185.78    5.50
  -3   1   3  188.28    5.90
  -3   1   3  174.18    5.90
   2  -1  -3  112.29    3.70
   2  -1  -3  111.49    3.60
   2  -1  -3  106.59    3.70
   2  -1  -3  104.39    3.60
   2  -1  -3  113.19    3.80
  -2   1   3  108.19    3.60
  -2   1   3  114.69    3.60
   1  -1  -3   41.00    1.70
   1  -1  -3   42.90    1.70
  -1   1   3   38.60    1.60
  -1   1   3   39.50    1.40
  -1   1   3   42.40    1.70
  -1   1   3   42.10    1.60
   0  -1  -3  203.48    6.80
   0  -1  -3  232.78    6.70
   0   1   3  228.08    6.70
   0   1   3  238.08    6.80
  -1  -1  -3   65.79    2.40
  -1  -1  -3   64.49    2.20
  -1  -1  -3   63.69    2.30
  -1  -1  -3   63.89    2.30
   1   1   3   64.09    2.40
   1   1   3   64.79    2.30
   1   1   3   62.39    2.20
   1   1   3   64.79    2.30
  -2  -1  -3  555.94   16.70
  -2  -1  -3  559.04   16.50
  -2  -1  -3  565.84   16.80
  -2  -1  -3  549.25   16.50
  -2  -1  -3  581.44   16.50
   2   1   3  577.84   16.50
   2   1   3  571.74   16.80
   2   1   3  571.24   16.50
   2   1   3  568.54   16.60
   2   1   3  557.94   16.70
  -3  -1  -3  108.29    3.30
  -3  -1  -3  100.49    3.30
  -3  -1  -3  100.69    3.60
  -3  -1  -3  102.29    3.80
   3   1   3  105.79    3.90
   3   1   3  108.69    3.50
   3   1   3  105.69    3.60
  -4  -1  -3    1.60    1.10
  -4  -1  -3    1.20    0.80
  -4  -1  -3    1.30    0.40
  -4  -1  -3    1.30    0.40
   4   1   3    0.60    0.60
   4   1   3    1.50    0.80
   4   1   3    0.70    1.10
  -5  -1  -3   61.79    2.80
  -5  -1  -3   60.39    3.30
   5   1   3   60.39    2.80
   5   1   3   60.49    3.30
  -6  -1  -3   54.79    3.50
  -6  -1  -3   54.69    2.80
   6   1   3   54.69    3.40
   6   1   3   56.39    2.90
  -7  -1  -3   21.60    2.80
  -7  -1  -3   32.30    2.60
   7   1   3   29.00    2.50
   7   1   3   24.50    3.00
  -8  -1  -3    8.90    2.20
  -8   3   4   20.60    3.90
   7  -3  -4   38.70    3.60
  -7   3   4   41.20    3.30
  -7   3   4   39.40    3.70
   6  -3  -4   -1.40    1.70
  -6   3   4    4.70    1.60
   5  -3  -4   -1.50    1.50
  -5   3   4   -2.10    1.50
   4  -3  -4    1.10    0.70
   4  -3  -4    2.70    1.40
   4  -3  -4    1.80    0.50
  -4   3   4    0.50    0.50
  -4   3   4    1.90    1.20
  -4   3   4    1.60    1.10
   3  -3  -4  293.17    8.60
   3  -3  -4  270.57    8.40
   3  -3  -4  276.97    9.00
   3  -3  -4  272.47    8.60
  -3   3   4  282.57    8.90
  -3   3   4  276.57    8.40
  -3   3   4  274.57    8.90
   2  -3  -4  127.29    4.20
   2  -3  -4  126.89    4.50
   2  -3  -4  127.19    4.40
   2  -3  -4  127.59    4.20
   2  -3  -4  133.09    4.20
  -2   3   4  126.59    4.20
  -2   3   4  131.19    4.50
  -2   3   4  122.89    4.30
  -2   3   4  133.39    4.60
   1  -3  -4    0.40    0.50
   1  -3  -4    0.40    0.50
   1  -3  -4   -0.30    0.60
   1  -3  -4    0.70    0.50
   1  -3  -4    0.40    0.50
   1  -3  -4    1.30    0.40
  -1   3   4    1.30    0.50
  -1   3   4    1.40    0.60
  -1   3   4    0.80    0.60
   0  -3  -4   14.70    0.90
   0  -3  -4   16.30    1.10
   0  -3  -4   15.50    1.10
   0  -3  -4   14.60    0.90
   0  -3  -4   15.10    1.00
   0  -3  -4   15.60    0.80
   0   3   4   16.20    1.40
   0   3   4   16.90    1.20
   0   3   4   13.70    0.80
   0   3   4   14.40    0.90
   0   3   4   13.90    1.00
  -1  -3  -4  482.85   14.30
  -1  -3  -4  472.25   14.50
  -1  -3  -4  473.35   14.40
  -1  -3  -4  488.05   14.50
   1   3   4  503.55   15.60
   1   3   4  495.45   14.30
   1   3   4  456.35   14.60
  -2  -3  -4    9.30    1.30
  -2  -3  -4   11.20    1.20
  -2  -3  -4   10.90    1.00
  -2  -3  -4   10.60    1.00
   2   3   4   10.10    1.30
   2   3   4   11.30    1.10
   2   3   4   12.20    1.00
  -3  -3  -4  137.69    4.60
  -3  -3  -4  140.39    4.30
  -3  -3  -4  138.69    4.70
  -3  -3  -4  136.09    4.90
   3   3   4  133.39    4.90
   3   3   4  134.99    4.30
   3   3   4  136.59    4.60
   3   3   4  143.69    4.30
  -4  -3  -4   16.30    1.30
  -4  -3  -4   14.10    1.90
  -4  -3  -4   14.80    1.10
   4   3   4   15.20    0.90
   4   3   4   13.70    1.30
   4   3   4   14.90    1.00
   4   3   4   14.10    1.80
  -5  -3  -4  133.19    4.60
  -5  -3  -4  133.09    4.50
  -5  -3  -4  128.69    5.30
   5   3   4  132.59    4.60
   5   3   4  124.49    4.40
   5   3   4  127.09    5.30
  -6  -3  -4    3.50    1.10
  -6  -3  -4    2.50    1.80
   6   3   4    2.10    1.10
   6   3   4    3.00    1.80
  -7  -3  -4   19.80    2.70
   7   3   4   24.40    3.00
   7  -5  -5   58.39    3.90
  -7   5   5   52.29    4.20
   6  -5  -5   10.10    2.50
  -6   5   5   15.80    2.60
  -6   5   5   13.10    2.50
   5  -5  -5   12.90    2.20
  -5   5   5   10.70    2.10
  -5   5   5   14.20    2.20
   4  -5  -5   34.00    2.50
   4  -5  -5   34.30    2.00
  -4   5   5   33.20    2.60
  -4   5   5   38.00    2.70
   3  -5  -5   12.60    1.30
  -3   5   5   13.10    1.70
  -3   5   5   12.10    1.60
   2  -5  -5  194.98    6.40
   2  -5  -5  189.48    6.20
   2  -5  -5  189.78    6.50
  -2   5   5  191.68    6.50
  -2   5   5  199.28    6.50
  -2   5   5  195.58    6.70
   1  -5  -5  121.09    4.50
   1  -5  -5  113.19    4.00
   1  -5  -5  125.59    4.20
   1  -5  -5  120.19    4.40
  -1   5   5  120.29    4.10
  -1   5   5  121.69    4.60
   0  -5  -5   -0.10    0.70
   0  -5  -5   -0.10    0.40
   0  -5  -5    0.60    0.40
   0  -5  -5    1.00    0.70
   0  -5  -5    0.90    0.70
   0   5   5    0.00    0.80
   0   5   5    0.10    0.40
   0   5   5    0.80    0.70
   0   5   5    0.50    1.10
  -1  -5  -5    5.20    1.00
  -1  -5  -5    6.80    1.10
   1   5   5    5.60    1.40
   1   5   5    4.70    0.90
   1   5   5    4.60    1.00
  -2  -5  -5  259.37    8.60
  -2  -5  -5  270.07    8.60
   2   5   5  254.57    8.50
   2   5   5  274.47    8.80
  -3  -5  -5  324.67   10.50
  -3  -5  -5  328.77   10.60
   3   5   5  333.97   10.70
   3   5   5  321.07   10.40
  -4  -5  -5   30.10    2.10
  -4  -5  -5   34.00    2.60
   4   5   5   33.50    2.60
   4   5   5   35.30    2.20
  -5  -5  -5    2.20    1.10
  -5  -5  -5    5.20    1.80
   5   5   5    3.90    1.90
   5   5   5    2.50    1.20
  -6  -5  -5   10.90    2.10
  -6  -5  -5    9.80    2.20
   6   5   5   13.30    2.50
  -7  -5  -5   30.60    3.10
   7   5   5   28.90    3.40
   6  -7  -6   19.80    3.20
   5  -7  -6    1.90    2.00
   5  -7  -6    3.40    1.80
  -5   7   6    5.90    2.40
  -5   7   6   -0.10    1.90
   4  -7  -6    2.20    1.20
   4  -7  -6    5.50    1.80
   4  -7  -6    0.70    1.80
   4  -7  -6    0.00    1.50
  -4   7   6    0.30    1.50
  -4   7   6   -0.10    1.80
   3  -7  -6   10.80    1.70
   3  -7  -6    7.20    1.40
   3  -7  -6    8.60    1.70
  -3   7   6    9.10    1.80
  -3   7   6    9.20    1.80
   2  -7  -6   74.39    3.40
   2  -7  -6   76.59    3.40
   2  -7  -6   78.69    3.50
  -2   7   6   77.89    3.80
  -2   7   6   72.69    3.30
   1  -7  -6   97.99    3.70
   1  -7  -6  100.39    4.20
   1  -7  -6   97.89    3.90
  -1   7   6  100.99    4.40
  -1   7   6   98.99    4.20
  -1   7   6   96.59    3.70
   0  -7  -6   55.09    3.00
   0  -7  -6   56.79    2.70
   0  -7  -6   57.89    2.10
   0  -7  -6   50.99    2.40
   0   7   6   49.20    3.10
   0   7   6   54.99    3.00
  -1  -7  -6    3.50    1.40
   1   7   6    8.30    2.10
   1   7   6    1.90    1.30
  -2  -7  -6    2.10    1.30
  -2  -7  -6    4.90    1.60
   2   7   6    3.90    1.30
   2   7   6    2.90    1.60
  -3  -7  -6  126.19    5.10
  -3  -7  -6  113.19    5.00
   3   7   6  123.19    5.30
   3   7   6  117.39    5.00
  -4  -7  -6   71.99    3.80
  -4  -7  -6   69.59    3.70
   4   7   6   73.89    3.70
   4   7   6   76.09    4.10
  -5  -7  -6   15.60    2.40
  -5  -7  -6   11.80    1.90
   5   7   6   14.70    2.70
   5   7   6   12.10    2.00
  -6  -7  -6    0.80    2.20
  -6  -7  -6    0.10    1.70
   6   7   6    7.70    2.40
   5  -9  -7    1.00    2.60
   4  -9  -7   10.90    2.40
   4  -9  -7   14.10    2.20
  -4   9   7   13.30    2.40
   3  -9  -7    3.80    1.70
   3  -9  -7    1.70    1.60
   3  -9  -7    0.70    1.60
  -3   9   7    2.40    1.60
   2  -9  -7    6.40    1.70
   2  -9  -7    5.40    1.70
   2  -9  -7    5.60    1.40
  -2   9   7    4.30    2.10
   1  -9  -7   66.69    3.10
   1  -9  -7   68.79    3.40
   1  -9  -7   77.19    3.90
  -1   9   7   71.69    4.00
   0  -9  -7   49.20    2.80
   0  -9  -7   47.50    3.20
   0   9   7   44.30    3.20
   0   9   7   44.80    3.30
  -1  -9  -7   -1.00    1.40
  -1  -9  -7    1.30    1.50
   1   9   7   -1.20    1.50
   1   9   7    2.90    1.90
  -2  -9  -7    3.20    1.60
  -2  -9  -7    6.20    1.90
   2   9   7    6.20    1.70
   2   9   7    6.60    2.60
  -3  -9  -7   14.40    2.40
  -3  -9  -7   13.00    2.20
   3   9   7   12.70    2.40
   3   9   7   19.30    3.10
  -4  -9  -7   37.90    3.00
  -4  -9  -7   37.70    3.10
   4   9   7   34.60    3.20
   4   9   7   45.00    3.90
  -5  -9  -7   30.00    3.20
  -5  -9  -7   25.70    3.00
   5   9   7   25.90    3.20
   5   9   7   38.20    4.20
   3 -11  -8   14.40    2.50
   2 -11  -8   -3.70    2.10
  -2  11   8    1.70    2.70
   1 -11  -8   26.80    3.10
  -1  11   8   28.10    3.30
   0 -11  -8   16.00    2.80
   0  11   8   21.70    3.30
  -1 -11  -8   26.80    3.10
   1  11   8   27.50    3.50
  -2 -11  -8   11.10    2.40
   2  11   8    6.90    3.00
  -3 -11  -8    2.00    2.60
   3  10   2    2.40    1.90
  -3 -10  -2    2.30    2.40
  -3 -10  -2    5.30    2.10
   2  10   2    5.70    2.00
  -2 -10  -2    3.80    2.40
  -2 -10  -2    2.50    1.80
   1  10   2   11.10    2.20
  -1 -10  -2    8.40    2.00
  -1 -10  -2    8.80    2.50
   0  10   2   32.00    3.10
   0 -10  -2   37.60    3.00
   0 -10  -2   42.70    3.30
  -1  10   2   39.30    3.10
   1 -10  -2   36.10    2.50
   1 -10  -2   34.20    3.30
   1 -10  -2   40.30    3.10
  -2  10   2   32.10    3.00
   2 -10  -2   34.20    3.10
   2 -10  -2   27.70    2.80
   2 -10  -2   28.00    2.60
   3 -10  -2    3.00    1.80
   3 -10  -2   -3.20    2.00
  -4  10   2    1.70    2.90
   4 -10  -2    5.90    3.00
   6   8   1   -1.70    2.70
  -6  -8  -1    0.90    2.30
   5   8   1    2.90    2.30
   5   8   1    2.40    1.70
  -5  -8  -1    4.20    2.30
   4   8   1  107.69    5.00
   4   8   1  110.09    5.00
  -4  -8  -1  105.19    5.20
   3   8   1   72.59    3.80
   3   8   1   65.79    3.60
  -3  -8  -1   69.89    3.90
   2   8   1   16.70    2.10
   2   8   1   13.80    2.10
  -2  -8  -1   16.50    2.30
  -2  -8  -1   18.40    1.40
   1   8   1   -1.70    1.30
  -1  -8  -1   -0.30    1.30
  -1  -8  -1   -0.10    1.90
   0   8   1   20.90    1.70
   0   8   1   18.90    2.60
   0  -8  -1   22.90    1.90
   0  -8  -1   21.00    2.50
  -1   8   1   61.39    2.90
  -1   8   1   64.79    3.50
   1  -8  -1   64.59    3.10
   1  -8  -1   68.79    3.70
  -2   8   1   37.90    3.70
  -2   8   1   40.60    2.70
   2  -8  -1   39.20    2.40
   2  -8  -1   38.30    3.40
   2  -8  -1   36.40    2.60
  -3   8   1   38.50    2.50
  -3   8   1   34.00    3.20
   3  -8  -1   42.80    3.20
   3  -8  -1   38.40    2.30
   3  -8  -1   35.80    2.70
   3  -8  -1   35.70    2.30
  -4   8   1   10.10    2.90
   4  -8  -1   17.00    3.00
   4  -8  -1   12.10    2.20
   4  -8  -1    9.80    1.90
  -5   8   1    9.10    3.10
   5  -8  -1    8.10    2.70
   5  -8  -1   12.40    2.30
   5  -8  -1    5.40    2.20
   7   6   0    4.20    2.80
   6   6   0   25.60    3.10
   6   6   0   29.80    2.50
  -6  -6   0   30.70    3.10
   5   6   0    0.50    1.30
   5   6   0    1.10    1.80
  -5  -6   0    0.10    1.90
   4   6   0  174.48    6.50
   4   6   0  175.08    6.40
  -4  -6   0  175.48    6.90
  -4  -6   0  167.98    5.70
   3   6   0   39.90    2.60
   3   6   0   40.90    2.60
   3   6   0   43.30    1.90
  -3  -6   0   40.50    2.90
  -3  -6   0   39.10    1.90
   2   6   0   95.69    4.00
   2   6   0   99.39    3.50
   2   6   0  101.59    4.20
  -2  -6   0  102.29    4.50
  -2  -6   0  107.29    3.80
   1   6   0    4.20    1.30
   1   6   0    4.90    0.70
   1   6   0    5.30    1.30
  -1  -6   0    5.40    0.80
  -1  -6   0    8.20    1.40
  -1  -6   0    5.30    1.60
  -1  -6   0    5.00    0.80
   0   6   0   21.50    1.20
   0   6   0   21.40    1.90
   0   6   0   22.40    1.70
   0  -6   0   23.00    2.00
   0  -6   0   18.20    1.20
   0  -6   0   21.90    1.60
   0  -6   0   19.20    1.20
  -1   6   0   49.90    3.00
  -1   6   0   47.10    2.10
  -1   6   0   45.50    2.50
   1  -6   0   47.80    2.80
   1  -6   0   47.00    2.40
   1  -6   0   46.50    2.10
  -2   6   0  255.47    9.30
  -2   6   0  270.47    8.60
   2  -6   0  257.77    9.30
   2  -6   0  274.57    8.90
  -3   6   0    2.40    1.00
  -3   6   0   -0.40    1.90
   3  -6   0    1.90    0.80
   3  -6   0    3.60    1.40
   3  -6   0    2.60    1.80
   3  -6   0    3.40    1.10
  -4   6   0   29.60    4.30
  -4   6   0   22.50    2.60
  -4   6   0   22.00    1.60
   4  -6   0   24.30    2.00
   4  -6   0   23.20    1.50
   4  -6   0   23.90    2.40
  -5   6   0   12.10    3.10
  -5   6   0    8.20    2.10
   5  -6   0   11.20    2.20
   5  -6   0   10.50    2.00
  -6   6   0   18.00    3.40
  -6   6   0   14.10    2.70
   6  -6   0   16.50    2.70
   6  -6   0   16.10    2.70
   7  -6   0   10.60    2.70
   7   4  -1   28.40    3.20
  -7  -4   1   24.20    3.10
   6   4  -1   28.00    2.80
   6   4  -1   22.60    1.90
  -6  -4   1   23.70    2.80
  -6  -4   1   25.60    2.10
   5   4  -1    7.20    2.00
   5   4  -1    7.00    1.30
  -5  -4   1   10.50    2.30
  -5  -4   1    6.80    1.30
   4   4  -1    6.60    1.30
   4   4  -1    9.10    1.70
  -4  -4   1    7.50    1.80
  -4  -4   1    5.90    1.10
   3   4  -1   85.79    3.50
   3   4  -1   89.99    3.60
   3   4  -1   92.29    3.60
  -3  -4   1   86.59    3.20
  -3  -4   1   92.89    4.00
   2   4  -1  679.53   20.80
   2   4  -1  674.53   20.50
   2   4  -1  694.13   20.70
  -2  -4   1  714.03   20.90
  -2  -4   1  698.43   20.40
   1   4  -1  221.68    6.90
   1   4  -1  217.08    7.10
   1   4  -1  211.28    6.80
  -1  -4   1  220.68    7.20
  -1  -4   1  220.18    6.70
  -1  -4   1  222.08    7.30
   0   4  -1    3.10    0.80
   0   4  -1    2.70    0.50
   0  -4   1    3.10    0.60
   0  -4   1    3.50    0.80
   0  -4   1    2.40    0.60
   0  -4   1    3.80    0.90
   0  -4   1    4.90    1.20
  -1   4  -1   14.30    1.00
  -1   4  -1   15.60    1.60
  -1   4  -1   14.90    1.30
  -1   4  -1   14.40    0.90
   1  -4   1   16.10    1.00
   1  -4   1   15.30    1.60
   1  -4   1   15.40    1.30
   1  -4   1   13.60    1.10
   1  -4   1   15.20    1.00
  -2   4  -1  204.48    7.20
  -2   4  -1  209.98    6.50
   2  -4   1  204.38    6.50
   2  -4   1  204.28    6.50
   2  -4   1  209.48    6.90
   2  -4   1  200.98    6.40
  -3   4  -1  191.38    6.70
  -3   4  -1  190.18    6.00
  -3   4  -1  195.08    7.00
   3  -4   1  192.88    6.40
   3  -4   1  189.58    6.70
   3  -4   1  195.18    6.00
  -4   4  -1   42.10    2.80
  -4   4  -1   40.20    2.90
   4  -4   1   41.10    2.60
   4  -4   1   44.40    2.50
   4  -4   1   40.80    1.50
  -5   4  -1   29.10    3.70
  -5   4  -1   28.60    2.70
   5  -4   1   28.70    2.60
   5  -4   1   28.80    2.50
  -6   4  -1    2.30    2.20
  -6   4  -1    1.40    1.90
   6  -4   1    4.50    1.90
   6  -4   1    3.20    1.80
  -7   4  -1   11.80    2.50
  -7   4  -1   10.00    2.80
   7  -4   1   11.50    2.50
   7  -4   1   12.30    2.50
  -8  -2   2   19.50    2.80
   7   2  -2   11.00    2.50
  -7  -2   2   14.30    2.80
  -7  -2   2   11.00    2.10
   6   2  -2   65.89    2.80
   6   2  -2   60.79    3.70
  -6  -2   2   65.29    3.80
  -6  -2   2   66.89    3.30
   5   2  -2   82.59    3.20
   5   2  -2   80.49    3.90
  -5  -2   2   78.49    3.50
  -5  -2   2   83.29    4.10
   4   2  -2   36.70    2.30
   4   2  -2   36.60    1.90
  -4  -2   2   33.70    1.60
  -4  -2   2   36.40    2.40
  -4  -2   2   35.40    2.00
   3   2  -2   73.89    2.90
   3   2  -2   75.29    2.90
   3   2  -2   77.19    3.10
  -3  -2   2   76.29    3.20
  -3  -2   2   75.39    2.90
  -3  -2   2   77.39    2.80
   2   2  -2   42.80    1.80
   2   2  -2   40.60    1.80
   2   2  -2   42.40    1.90
   2   2  -2   41.40    1.90
  -2  -2   2   40.50    2.10
  -2  -2   2   39.90    2.50
  -2  -2   2   41.70    1.80
  -2  -2   2   40.70    1.70
   1   2  -2    5.40    0.60
   1   2  -2    4.50    0.80
   1   2  -2    5.60    0.70
   1   2  -2    5.30    0.90
  -1  -2   2    4.60    0.60
  -1  -2   2    4.60    0.90
  -1  -2   2    4.10    0.70
  -1  -2   2    4.80    0.90
   0   2  -2 2714.53   75.19
   0   2  -2 2639.24   74.69
   0   2  -2 2455.65   74.99
   0   2  -2 2534.95   75.09
   0  -2   2 2429.26   75.29
   0  -2   2 2625.94   75.09
   0  -2   2 2640.84   74.69
   0  -2   2 2721.83   74.69
  -1   2  -2   95.99    3.40
  -1   2  -2   91.09    3.20
  -1   2  -2   92.59    3.20
   1  -2   2   89.29    3.10
   1  -2   2   91.89    2.90
   1  -2   2   93.99    2.90
   1  -2   2   83.69    3.30
   1  -2   2   92.59    3.00
  -2   2  -2  137.19    4.40
  -2   2  -2  142.19    4.80
  -2   2  -2  137.49    4.60
  -2   2  -2  126.89    4.10
   2  -2   2  132.99    4.60
   2  -2   2  137.89    4.50
   2  -2   2  131.09    4.60
   2  -2   2  133.99    4.40
   2  -2   2  132.99    4.20
  -3   2  -2   12.30    1.00
  -3   2  -2   10.60    1.40
  -3   2  -2    9.20    1.20
   3  -2   2   10.40    1.20
   3  -2   2   10.30    1.30
  -4   2  -2  185.38    6.70
  -4   2  -2  185.28    6.50
   4  -2   2  189.28    6.40
   4  -2   2  189.68    6.60
  -5   2  -2   40.90    2.60
  -5   2  -2   35.90    2.70
   5  -2   2   35.20    2.60
   5  -2   2   38.30    2.60
  -6   2  -2   16.50    2.40
  -6   2  -2   16.00    2.70
   6  -2   2   14.60    2.10
   6  -2   2   15.10    2.40
  -7   2  -2    1.90    1.90
  -7   2  -2    0.00    2.30
   7  -2   2   -1.10    1.90
   7  -2   2   -2.80    1.80
  -8   0   3   -3.30    2.20
  -8   0   3    4.20    2.70
   7   0  -3    1.00    2.10
  -7   0   3    9.60    2.50
  -7   0   3    5.90    1.90
   6   0  -3   20.10    2.60
  -6   0   3   21.90    2.20
   5   0  -3   44.10    1.70
   5   0  -3   42.60    2.80
  -5   0   3   41.20    2.60
  -5   0   3   44.50    2.80
   4   0  -3  151.38    5.40
   4   0  -3  147.59    4.70
  -4   0   3  146.49    5.30
  -4   0   3  146.89    4.90
  -4   0   3  151.18    5.40
   3   0  -3   10.80    1.00
   3   0  -3    9.40    1.00
   3   0  -3    8.40    0.90
   3   0  -3    9.00    1.30
  -3   0   3   11.20    1.00
  -3   0   3    8.90    1.20
  -3   0   3    8.30    1.10
   2   0  -3  175.68    5.40
   2   0  -3  176.38    5.50
   2   0  -3  162.78    5.40
   2   0  -3  172.08    5.40
  -2   0   3  178.18    5.40
  -2   0   3  158.48    5.70
  -2   0   3  169.18    5.40
   1   0  -3  297.47    8.80
   1   0  -3  303.87    8.80
   1   0  -3  288.27    8.90
   1   0  -3  297.57    8.90
  -1   0   3  285.87    8.90
  -1   0   3  298.07    8.80
  -1   0   3  314.77    9.00
   0   0  -3   25.00    1.30
   0   0  -3   26.50    1.20
   0   0  -3   29.10    1.50
   0   0  -3   30.60    1.60
   0   0   3   28.20    1.60
   0   0   3   24.40    1.20
   0   0   3   26.20    1.20
   0   0   3   31.50    1.50
   0   0   3   24.30    1.60
  -1   0  -3   84.49    2.90
  -1   0  -3   86.99    2.80
  -1   0  -3   83.99    2.80
  -1   0  -3   81.89    2.80
   1   0   3   88.69    2.90
   1   0   3   82.09    2.80
   1   0   3   80.69    2.80
   1   0   3   91.29    2.80
  -2   0  -3   48.30    2.00
  -2   0  -3   47.80    1.90
  -2   0  -3   47.50    1.90
  -2   0  -3   47.80    1.70
   2   0   3   49.10    1.90
   2   0   3   49.10    1.90
   2   0   3   48.80    1.60
   2   0   3   48.40    2.00
   2   0   3   48.90    2.00
  -3   0  -3   62.59    2.10
  -3   0  -3   66.79    2.60
  -3   0  -3   62.39    2.70
  -3   0  -3   60.39    2.50
   3   0   3   62.89    2.40
   3   0   3   64.09    2.60
   3   0   3   66.39    2.70
  -4   0  -3   69.79    2.90
  -4   0  -3   70.59    3.20
   4   0   3   70.19    3.10
   4   0   3   67.49    2.90
  -5   0  -3   99.39    4.40
  -5   0  -3   98.59    4.10
   5   0   3  101.59    4.30
   5   0   3  104.09    4.10
  -6   0  -3   48.70    2.80
  -6   0  -3   49.10    3.20
   6   0   3   52.69    2.90
   6   0   3   46.50    3.20
  -7   0  -3    4.20    1.80
  -7   0  -3    0.30    1.90
   7   0   3   -2.00    1.80
   7   0   3   -0.10    1.60
  -8   0  -3   36.60    3.50
   8   0   3   38.50    3.40
  -8   2   4   10.20    3.30
   7  -2  -4    0.00    2.00
  -7   2   4    1.20    1.80
  -7   2   4    1.70    2.30
   6  -2  -4   18.00    2.60
  -6   2   4   14.80    2.20
  -6   2   4   13.00    2.40
   5  -2  -4   66.99    3.60
   5  -2  -4   68.59    2.40
   5  -2  -4   67.69    2.30
  -5   2   4   71.89    3.60
  -5   2   4   69.59    3.40
   4  -2  -4  180.78    6.50
   4  -2  -4  184.48    5.80
  -4   2   4  185.18    6.40
  -4   2   4  180.38    5.70
  -4   2   4  184.28    6.50
   3  -2  -4  108.69    4.10
   3  -2  -4  105.19    3.80
   3  -2  -4  109.49    3.70
  -3   2   4  104.49    4.00
  -3   2   4  109.59    4.20
  -3   2   4  108.49    3.50
   2  -2  -4    0.40    0.60
   2  -2  -4   -0.40    0.50
   2  -2  -4   -0.10    0.60
   2  -2  -4   -0.30    0.50
  -2   2   4   -0.80    0.60
  -2   2   4    0.80    0.70
  -2   2   4    0.00    0.40
   1  -2  -4  109.49    3.60
   1  -2  -4  113.09    3.60
   1  -2  -4  105.99    3.40
   1  -2  -4  112.09    3.70
  -1   2   4  109.99    3.60
  -1   2   4  100.49    3.40
  -1   2   4  113.79    3.60
  -1   2   4  114.39    3.80
   0  -2  -4  224.48    6.50
   0  -2  -4  202.58    6.80
   0  -2  -4  211.58    6.60
   0  -2  -4  224.98    6.70
   0  -2  -4  215.38    6.30
   0   2   4  216.18    6.90
   0   2   4  208.38    6.60
   0   2   4  225.88    6.40
  -1  -2  -4 1008.10   30.20
  -1  -2  -4 1057.19   30.00
  -1  -2  -4 1093.99   30.50
  -1  -2  -4 1067.19   30.40
  -1  -2  -4 1024.20   30.30
   1   2   4  958.90   30.10
   1   2   4 1081.09   30.50
   1   2   4 1072.19   30.30
   1   2   4 1043.60   30.30
  -2  -2  -4  173.48    5.50
  -2  -2  -4  169.48    5.50
  -2  -2  -4  172.98    5.60
   2   2   4  173.98    5.70
   2   2   4  172.68    5.20
   2   2   4  177.48    5.80
   2   2   4  174.28    5.20
  -3  -2  -4    0.50    0.50
  -3  -2  -4    1.40    0.50
  -3  -2  -4    1.20    0.90
  -3  -2  -4    0.20    0.50
   3   2   4    1.70    1.00
   3   2   4    1.70    0.40
   3   2   4    0.80    0.40
  -4  -2  -4   28.90    2.00
  -4  -2  -4   26.80    1.30
  -4  -2  -4   27.60    1.50
  -4  -2  -4   27.80    1.40
   4   2   4   26.30    1.40
   4   2   4   28.90    1.60
   4   2   4   29.30    2.20
  -5  -2  -4   75.39    3.10
  -5  -2  -4   76.59    2.70
  -5  -2  -4   72.99    3.70
  -5  -2  -4   75.29    2.60
   5   2   4   71.79    3.70
   5   2   4   73.09    3.10
  -6  -2  -4   70.49    3.20
  -6  -2  -4   64.39    3.70
   6   2   4   70.99    3.20
   6   2   4   68.39    3.80
  -7  -2  -4   28.20    2.90
  -7  -2  -4   26.90    2.50
   7   2   4   24.00    2.60
   7   2   4   32.80    3.00
   7  -4  -5   -1.60    2.30
  -7   4   5   -3.20    2.70
  -7   4   5   -1.80    2.10
   6  -4  -5    4.50    2.20
  -6   4   5    1.80    2.10
  -6   4   5    2.20    1.70
   5  -4  -5   16.50    2.80
   5  -4  -5   11.30    1.20
  -5   4   5   13.70    2.10
  -5   4   5   14.00    2.10
   4  -4  -5  276.47    9.40
   4  -4  -5  271.27    8.50
   4  -4  -5  294.77    8.90
  -4   4   5  283.07    9.40
  -4   4   5  265.57    9.20
   3  -4  -5   92.29    3.40
   3  -4  -5   96.89    3.50
   3  -4  -5   96.39    3.30
  -3   4   5   98.69    3.80
  -3   4   5   94.39    3.30
  -3   4   5   90.29    3.70
   2  -4  -5   67.49    2.60
   2  -4  -5   69.29    2.70
   2  -4  -5   67.89    2.60
   2  -4  -5   69.89    2.50
  -2   4   5   72.49    3.10
  -2   4   5   71.59    2.80
  -2   4   5   70.29    2.90
  -2   4   5   67.89    2.60
   1  -4  -5  130.79    4.40
   1  -4  -5  122.49    4.20
   1  -4  -5  127.79    4.20
   1  -4  -5  133.39    4.10
   1  -4  -5  125.09    4.30
  -1   4   5  128.79    4.20
  -1   4   5  124.99    4.60
  -1   4   5  116.09    4.20
   0  -4  -5   40.50    2.00
   0  -4  -5   38.10    1.70
   0  -4  -5   40.60    1.80
   0  -4  -5   38.20    1.60
   0  -4  -5   36.70    1.90
   0  -4  -5   40.40    1.50
   0   4   5   37.50    1.50
   0   4   5   40.60    2.30
   0   4   5   36.00    1.70
  -1  -4  -5  158.58    5.20
  -1  -4  -5  158.78    5.40
   1   4   5  168.38    5.30
   1   4   5  166.68    5.70
   1   4   5  154.88    5.40
  -2  -4  -5  190.18    6.30
  -2  -4  -5  192.38    6.30
   2   4   5  187.38    6.30
   2   4   5  187.48    6.20
   2   4   5  193.58    6.50
  -3  -4  -5   64.99    2.80
  -3  -4  -5   66.09    3.00
   3   4   5   62.29    3.10
   3   4   5   64.09    2.80
  -4  -4  -5    3.10    1.00
  -4  -4  -5    5.40    1.60
   4   4   5    3.60    0.50
   4   4   5    3.70    0.60
   4   4   5    4.00    1.60
   4   4   5    3.60    1.10
  -5  -4  -5    1.70    1.00
  -5  -4  -5    3.00    1.70
  -5  -4  -5    4.40    0.90
   5   4   5    2.60    1.90
   5   4   5    2.30    0.80
  -6  -4  -5   35.10    2.90
   6   4   5   28.00    3.10
  -7  -4  -5   18.80    3.10
   7   4   5   22.00    3.30
   6  -6  -6   -3.10    1.90
   6  -6  -6    1.50    2.10
  -6   6   6    1.00    2.00
  -6   6   6   -4.10    2.50
   5  -6  -6    7.30    2.00
  -5   6   6    6.10    2.00
   4  -6  -6    7.80    1.40
  -4   6   6    8.90    1.90
  -4   6   6   10.20    2.00
   3  -6  -6   29.00    2.10
   3  -6  -6   29.60    1.90
  -3   6   6   28.70    2.20
  -3   6   6   29.70    2.20
   2  -6  -6   83.79    3.40
   2  -6  -6   81.89    3.50
  -2   6   6   83.69    3.40
  -2   6   6   84.59    3.50
  -2   6   6   83.89    3.80
   1  -6  -6   22.00    1.80
   1  -6  -6   21.90    1.50
   1  -6  -6   23.20    1.50
   1  -6  -6   22.20    1.40
   1  -6  -6   19.30    1.20
  -1   6   6   21.40    1.50
  -1   6   6   21.70    2.10
   0  -6  -6   35.60    1.90
   0  -6  -6   37.80    2.30
   0  -6  -6   33.80    1.50
   0  -6  -6   36.00    1.90
   0  -6  -6   36.70    1.50
   0   6   6   33.50    2.40
   0   6   6   35.10    1.50
   0   6   6   34.20    1.90
   0   6   6   34.10    2.20
  -1  -6  -6   90.79    3.60
  -1  -6  -6   87.29    3.80
   1   6   6   90.29    4.30
   1   6   6   87.99    3.70
  -2  -6  -6  170.48    6.00
  -2  -6  -6  169.18    6.20
   2   6   6  180.88    6.50
   2   6   6  166.48    6.10
  -3  -6  -6   69.69    3.40
  -3  -6  -6   67.69    3.30
   3   6   6   67.79    3.30
   3   6   6   73.19    3.80
  -4  -6  -6    5.50    1.80
  -4  -6  -6    2.60    1.20
   4   6   6    4.70    2.20
   4   6   6    6.00    1.40
  -5  -6  -6    1.30    1.70
  -5  -6  -6    1.00    1.30
   5   6   6    2.20    1.90
  -6  -6  -6   24.90    2.70
   6   6   6   26.40    3.30
   5  -8  -7   13.40    2.60
   5  -8  -7   16.60    2.80
  -5   8   7   16.60    3.00
   4  -8  -7    9.90    2.20
   4  -8  -7    5.40    1.40
   4  -8  -7    9.50    1.80
   4  -8  -7    7.00    1.90
  -4   8   7    8.50    1.90
  -4   8   7   11.20    2.20
   3  -8  -7   14.20    1.90
   3  -8  -7   17.60    2.10
   3  -8  -7   14.60    1.90
  -3   8   7   16.60    2.10
  -3   8   7   13.80    2.00
   2  -8  -7  132.79    5.00
   2  -8  -7  137.49    5.40
   2  -8  -7  130.49    5.10
  -2   8   7  126.69    5.00
   1  -8  -7   15.30    1.60
   1  -8  -7   10.60    1.40
   1  -8  -7   12.90    2.00
  -1   8   7   12.20    2.20
  -1   8   7   13.10    1.50
   0  -8  -7   38.40    2.30
   0  -8  -7   36.00    2.00
   0   8   7   30.70    4.40
   0   8   7   28.40    2.80
  -1  -8  -7    6.50    1.50
  -1  -8  -7    3.20    1.40
   1   8   7    2.30    1.50
   1   8   7    3.00    1.90
  -2  -8  -7   81.09    3.90
  -2  -8  -7   79.99    3.70
   2   8   7   76.09    3.90
  -3  -8  -7   34.70    2.70
   3   8   7   38.50    3.30
   3   8   7   32.30    2.70
  -4  -8  -7   32.50    2.70
  -4  -8  -7   33.90    2.70
   4   8   7   25.30    2.70
   4   8   7   30.50    3.30
  -5  -8  -7   15.90    2.60
  -5  -8  -7   13.80    2.50
   5   8   7   13.70    2.20
   5   8   7   18.50    3.10
   4 -10  -8   16.80    3.30
  -4  10   8   12.40    2.40
   3 -10  -8    1.00    1.80
   2 -10  -8   11.00    2.00
  -2  10   8   15.80    2.70
   1 -10  -8   26.80    2.80
   1 -10  -8   24.60    2.60
  -1  10   8   33.40    3.10
   0 -10  -8   51.39    3.40
   0  10   8   51.49    3.70
  -1 -10  -8    1.70    1.80
  -1 -10  -8    4.90    1.80
   1  10   8   -1.70    2.10
   1  10   8   -1.90    1.70
  -2 -10  -8    1.60    1.90
  -2 -10  -8   -3.40    1.80
   2  10   8   -1.00    2.60
   2  10   8   -1.50    1.70
  -3 -10  -8    6.20    2.20
  -3 -10  -8    7.70    2.20
   3  10   8    7.60    2.10
   3  10   8   14.90    3.40
  -4 -10  -8   26.10    3.00
   4  10   8   25.00    4.60
  -1 -11  -2   72.59    4.40
   0  11   2    7.80    2.30
   0 -11  -2   11.10    2.70
   0 -11  -2    8.10    2.10
  -1  11   2    2.40    1.90
   1 -11  -2   -0.30    2.50
   1 -11  -2    3.80    2.10
  -2  11   2   -3.00    2.20
   2 -11  -2    0.30    2.70
   2 -11  -2    1.90    2.10
   4   9   1   10.70    2.20
  -4  -9  -1   15.00    2.80
   3   9   1   13.80    2.50
   3   9   1   18.50    2.30
  -3  -9  -1   17.10    2.90
   2   9   1    5.10    1.70
   2   9   1    8.90    1.90
  -2  -9  -1    6.40    2.10
   1   9   1   30.20    2.10
   1   9   1   31.70    2.70
  -1  -9  -1   23.80    2.90
   0   9   1   47.00    2.60
   0   9   1   50.29    3.20
   0  -9  -1   49.20    2.90
   0  -9  -1   57.19    3.50
  -1   9   1   93.49    4.50
   1  -9  -1   95.59    4.40
   1  -9  -1   98.09    4.30
   1  -9  -1   93.99    4.90
  -2   9   1   13.20    2.10
   2  -9  -1   13.40    1.90
   2  -9  -1   16.40    2.70
   2  -9  -1   10.50    2.00
  -3   9   1   -1.20    2.30
  -3   9   1    4.30    1.60
   3  -9  -1    2.50    1.50
   3  -9  -1   -1.80    2.10
   3  -9  -1   -1.70    1.60
  -4   9   1    6.40    2.70
   4  -9  -1   11.40    2.30
   4  -9  -1   13.40    2.80
   5  -9  -1    8.60    4.90
   6   7   0   12.60    2.50
   6   7   0   13.30    2.40
  -6  -7   0   19.10    4.50
   5   7   0  101.89    4.60
   5   7   0   96.99    4.70
  -5  -7   0   98.79    5.10
   4   7   0   50.49    3.20
   4   7   0   51.19    3.10
  -4  -7   0   49.00    3.40
   3   7   0   62.79    3.40
   3   7   0   63.49    3.30
  -3  -7   0   61.89    3.70
  -3  -7   0   65.29    2.60
   2   7   0    0.20    1.20
   2   7   0    1.10    1.30
  -2  -7   0    1.60    1.60
  -2  -7   0    1.80    1.00
   1   7   0    9.40    1.60
   1   7   0   10.60    1.70
  -1  -7   0    9.20    1.70
  -1  -7   0   11.30    2.10
   0   7   0  170.88    5.70
   0   7   0  165.08    6.20
   0  -7   0  171.78    6.50
   0  -7   0  167.88    5.90
   0  -7   0  161.28    5.50
  -1   7   0   57.59    2.50
  -1   7   0   58.69    3.10
   1  -7   0   57.29    3.30
   1  -7   0   59.49    3.00
  -2   7   0   49.00    2.70
  -2   7   0   46.30    3.30
   2  -7   0   48.30    3.40
   2  -7   0   52.09    2.90
  -3   7   0  371.16   11.50
  -3   7   0  323.17   14.90
   3  -7   0  378.46   11.60
   3  -7   0  381.06   11.50
   3  -7   0  312.27   14.70
   3  -7   0  392.46   12.20
  -4   7   0   11.10    3.00
   4  -7   0   10.80    2.00
   4  -7   0   12.90    2.00
   4  -7   0   13.90    2.60
   4  -7   0    7.90    1.20
  -5   7   0   37.50    3.80
   5  -7   0   34.10    2.90
   5  -7   0   24.40    2.50
  -6   7   0   11.30    3.40
   6  -7   0    4.90    2.50
   7   5  -1   24.30    3.30
   6   5  -1    1.60    1.90
  -6  -5   1    4.00    2.20
   5   5  -1   38.40    2.50
   5   5  -1   39.60    2.90
  -5  -5   1   36.20    3.00
  -5  -5   1   37.40    2.10
   4   5  -1   52.49    2.90
   4   5  -1   49.99    2.70
  -4  -5   1   47.10    3.20
  -4  -5   1   44.30    2.20
   3   5  -1  257.77    8.90
   3   5  -1  288.57    9.20
   3   5  -1  291.87    9.30
  -3  -5   1  288.27    9.60
  -3  -5   1  273.37    8.70
   2   5  -1  111.29    4.40
   2   5  -1  112.69    3.90
   2   5  -1  113.29    4.10
  -2  -5   1  106.99    3.90
  -2  -5   1  110.59    4.50
  -2  -5   1  113.79    4.10
   1   5  -1   84.89    3.50
   1   5  -1   82.79    3.00
   1   5  -1   77.39    3.10
  -1  -5   1   84.29    3.60
  -1  -5   1   84.89    3.50
  -1  -5   1   83.29    2.90
   0   5  -1  123.29    4.00
   0   5  -1  116.69    4.10
   0   5  -1  124.19    4.50
   0  -5   1  115.39    4.10
   0  -5   1  123.39    4.40
   0  -5   1  120.89    3.90
   0  -5   1  121.09    4.70
  -1   5  -1  291.37    8.80
  -1   5  -1  275.27    9.60
  -1   5  -1  296.47    9.20
   1  -5   1  303.67    8.90
   1  -5   1  305.57    9.30
   1  -5   1  273.27    9.60
  -2   5  -1  109.69    4.70
  -2   5  -1  117.49    4.10
   2  -5   1  104.99    3.90
   2  -5   1  112.59    4.40
   2  -5   1  107.39    4.60
   2  -5   1  111.99    4.00
  -3   5  -1  175.98    5.70
  -3   5  -1  170.48    6.80
   3  -5   1  177.58    6.40
   3  -5   1  174.98    5.90
   3  -5   1  171.08    5.60
  -4   5  -1   13.40    2.50
  -4   5  -1   13.60    1.00
  -4   5  -1   14.60    3.70
   4  -5   1   14.40    1.70
   4  -5   1   15.90    3.50
   4  -5   1   13.80    0.90
  -5   5  -1   85.79    4.80
  -5   5  -1   93.89    4.50
   5  -5   1   91.59    4.40
   5  -5   1   88.19    4.10
  -6   5  -1   18.20    2.80
   6  -5   1   14.40    2.40
   6  -5   1   13.30    2.40
  -7   5  -1   15.20    3.20
   7  -5   1    7.70    2.60
   7   3  -2   15.90    2.90
  -7  -3   2   15.90    2.20
  -7  -3   2   19.90    3.20
   6   3  -2   14.30    1.60
   6   3  -2   15.80    2.40
  -6  -3   2   17.50    2.60
  -6  -3   2   14.50    1.90
   5   3  -2   37.10    2.70
   5   3  -2   37.10    2.20
  -5  -3   2   38.00    2.90
  -5  -3   2   39.00    2.20
   4   3  -2   26.90    1.80
   4   3  -2   24.60    2.10
  -4  -3   2   24.70    1.70
  -4  -3   2   23.70    2.10
   3   3  -2  306.97    9.50
   3   3  -2  309.87    9.60
   3   3  -2  302.77    9.50
  -3  -3   2  294.97    9.40
  -3  -3   2  303.87    9.90
   2   3  -2  283.87    8.90
   2   3  -2  279.87    8.60
   2   3  -2  274.17    8.70
  -2  -3   2  283.77    9.00
  -2  -3   2  278.27    8.50
  -2  -3   2  266.07    8.70
  -2  -3   2  279.17    8.90
   1   3  -2   93.99    3.10
   1   3  -2   97.59    3.50
   1   3  -2   94.39    3.40
  -1  -3   2   95.89    3.60
  -1  -3   2   88.19    3.30
  -1  -3   2   95.99    3.10
  -1  -3   2   90.79    3.60
   0   3  -2    0.70    0.50
   0   3  -2    1.10    0.40
   0   3  -2    0.10    0.60
   0   3  -2   -0.50    0.60
   0  -3   2    0.50    0.50
   0  -3   2    1.80    0.70
   0  -3   2    1.40    0.70
  -1   3  -2  175.68    6.00
  -1   3  -2  170.38    5.40
  -1   3  -2  174.68    5.60
   1  -3   2  171.28    5.40
   1  -3   2  159.18    5.20
   1  -3   2  174.88    5.50
   1  -3   2  171.88    5.90
   1  -3   2  175.58    5.60
   1  -3   2  169.48    5.20
   1  -3   2  158.98    5.70
  -2   3  -2  503.05   14.90
  -2   3  -2  474.15   15.20
  -2   3  -2  524.85   15.60
   2  -3   2  501.65   15.30
   2  -3   2  515.85   15.00
   2  -3   2  511.55   15.40
   2  -3   2  509.95   14.90
   2  -3   2  504.65   15.00
  -3   3  -2  403.36   12.10
  -3   3  -2  407.96   12.80
  -3   3  -2  418.16   13.00
   3  -3   2  413.16   12.90
   3  -3   2  407.46   12.10
   3  -3   2  419.16   12.60
  -4   3  -2   61.99    3.10
  -4   3  -2   60.69    3.30
   4  -3   2   60.89    3.00
   4  -3   2   61.29    3.10
  -5   3  -2  117.79    5.30
   5  -3   2  119.69    7.00
   5  -3   2  118.99    4.90
  -6   3  -2   10.50    2.10
  -6   3  -2   13.70    2.50
   6  -3   2    7.90    2.20
   6  -3   2   15.00    2.30
  -7   3  -2    7.50    2.10
  -7   3  -2    4.80    2.60
   7  -3   2    6.20    2.00
   7  -3   2    8.20    2.20
  -8  -1   3    0.40    3.50
  -8  -1   3   -1.00    2.10
   7   1  -3   54.39    3.90
  -7  -1   3   58.19    4.10
  -7  -1   3   56.89    3.20
   6   1  -3   30.50    1.70
   6   1  -3   30.70    2.90
  -6  -1   3   31.00    2.70
  -6  -1   3   30.30    2.80
   5   1  -3    8.80    1.90
   5   1  -3    8.40    1.20
  -5  -1   3    8.80    1.60
  -5  -1   3    6.40    1.00
  -5  -1   3   10.00    1.90
   4   1  -3   47.30    2.10
   4   1  -3   48.50    2.60
  -4  -1   3   49.20    2.50
  -4  -1   3   49.40    2.70
  -4  -1   3   50.99    2.10
   3   1  -3  166.38    5.70
   3   1  -3  175.18    6.10
   3   1  -3  179.38    5.60
   3   1  -3  177.58    5.80
  -3  -1   3  170.88    6.00
  -3  -1   3  169.98    5.80
  -3  -1   3  180.88    5.90
  -3  -1   3  171.98    5.60
   2   1  -3  100.59    3.40
   2   1  -3   97.39    3.40
   2   1  -3   95.69    3.40
   2   1  -3   95.29    3.40
  -2  -1   3   97.69    3.30
  -2  -1   3   93.89    3.30
  -2  -1   3   98.29    3.50
   1   1  -3 4493.05  129.89
   1   1  -3 4531.85  130.29
   1   1  -3 4386.26  129.59
   1   1  -3 4580.94  129.79
  -1  -1   3 4453.35  129.29
  -1  -1   3 4435.96  130.19
  -1  -1   3 4485.95  130.09
   0   1  -3   31.40    1.50
   0   1  -3   23.80    1.30
   0   1  -3   26.70    1.30
   0  -1   3   29.60    1.40
   0  -1   3   28.10    1.30
   0  -1   3   30.20    1.50
   0  -1   3   25.00    1.40
  -1   1  -3   85.49    3.00
  -1   1  -3   78.19    2.70
  -1   1  -3   82.89    2.60
  -1   1  -3   80.19    2.90
   1  -1   3   81.79    2.90
   1  -1   3   87.09    2.80
   1  -1   3   80.29    2.90
   1  -1   3   84.09    2.60
  -2   1  -3    5.20    1.10
  -2   1  -3    5.00    0.60
  -2   1  -3    4.10    0.70
  -2   1  -3    5.80    0.80
   2  -1   3    3.60    0.60
   2  -1   3    4.50    1.00
   2  -1   3    4.20    0.80
   2  -1   3    5.00    0.70
   2  -1   3    4.30    0.80
  -3   1  -3 1000.30   29.20
  -3   1  -3  964.60   29.10
  -3   1  -3  979.80   29.40
   3  -1   3 1026.20   29.20
   3  -1   3 1004.50   29.30
  -4   1  -3  340.27   11.00
  -4   1  -3  336.57   10.80
   4  -1   3  343.37   10.90
   4  -1   3  352.26   10.90
  -5   1  -3  351.26   11.40
  -5   1  -3  343.07   11.60
   5  -1   3  356.06   11.50
   5  -1   3  363.06   11.50
  -6   1  -3    2.80    1.80
  -6   1  -3    0.20    1.40
   6  -1   3   -0.60    1.50
   6  -1   3    0.50    1.30
  -7   1  -3    4.30    1.90
  -7   1  -3    3.00    2.20
   7  -1   3    4.10    2.00
   7  -1   3    4.80    1.80
  -8   1  -3    8.20    2.40
   8  -1   3   -1.60    2.20
  -8   1   4    9.20    2.80
   7  -1  -4    8.70    2.50
  -7   1   4   12.70    2.30
  -7   1   4    9.00    2.50
   6  -1  -4   28.50    2.90
  -6   1   4   32.40    2.80
  -6   1   4   28.10    2.60
   5  -1  -4   60.39    2.20
   5  -1  -4   60.19    3.40
  -5   1   4   63.69    3.20
  -5   1   4   59.89    3.30
  -5   1   4   62.69    2.30
   4  -1  -4   74.59    3.40
   4  -1  -4   76.89    2.70
  -4   1   4   72.99    2.70
  -4   1   4   76.99    3.30
  -4   1   4   73.29    3.30
   3  -1  -4  148.59    4.80
   3  -1  -4  149.79    4.90
   3  -1  -4  149.49    5.20
  -3   1   4  146.79    5.10
  -3   1   4  152.58    4.80
  -3   1   4  142.59    5.20
   2  -1  -4  183.38    6.30
   2  -1  -4  183.28    6.00
   2  -1  -4  185.78    5.90
   2  -1  -4  182.18    5.90
   2  -1  -4  190.78    5.80
  -2   1   4  193.98    5.90
  -2   1   4  185.48    6.00
  -2   1   4  186.28    5.80
   1  -1  -4  296.47    9.10
   1  -1  -4  289.47    9.00
   1  -1  -4  319.57    9.10
   1  -1  -4  272.87    8.80
  -1   1   4  297.17    9.00
  -1   1   4  287.77    8.70
  -1   1   4  310.67    9.10
  -1   1   4  307.67    9.00
   0  -1  -4  189.18    5.40
   0  -1  -4  169.58    5.50
   0  -1  -4  172.68    5.40
   0   1   4  166.58    5.40
   0   1   4  166.68    5.50
   0   1   4  181.78    5.40
  -1  -1  -4  376.86   11.40
  -1  -1  -4  405.76   11.50
  -1  -1  -4  394.06   11.40
  -1  -1  -4  390.46   11.30
   1   1   4  371.46   11.50
   1   1   4  358.26   11.70
   1   1   4  397.96   11.40
   1   1   4  388.86   11.40
  -2  -1  -4   49.99    1.90
  -2  -1  -4   49.99    2.10
  -2  -1  -4   51.69    2.10
  -2  -1  -4   50.89    1.90
   2   1   4   49.80    1.90
   2   1   4   54.79    1.90
   2   1   4   51.89    1.90
   2   1   4   49.99    2.10
   2   1   4   51.59    2.10
  -3  -1  -4  102.39    3.80
  -3  -1  -4   98.09    4.30
  -3  -1  -4  102.69    3.30
  -3  -1  -4   97.49    3.30
   3   1   4  100.79    3.40
   3   1   4  103.39    3.80
  -4  -1  -4  146.39    4.50
  -4  -1  -4  139.49    4.50
  -4  -1  -4  146.59    5.00
  -4  -1  -4  142.59    5.30
   4   1   4  144.89    4.80
   4   1   4  144.39    5.00
   4   1   4  144.89    5.30
  -5  -1  -4  423.26   13.70
  -5  -1  -4  426.46   13.20
   5   1   4  426.86   13.70
   5   1   4  431.46   13.30
  -6  -1  -4   36.70    2.40
  -6  -1  -4   35.60    2.90
   6   1   4   37.00    2.90
   6   1   4   35.30    2.40
  -7  -1  -4   -0.60    1.60
  -7  -1  -4    1.90    1.90
   7   1   4    0.00    1.50
   7   1   4   -0.10    2.00
   7  -3  -5    0.10    2.20
  -7   3   5    0.20    1.90
  -7   3   5    1.00    2.40
   6  -3  -5   28.30    2.90
  -6   3   5   27.40    2.90
  -6   3   5   32.40    2.70
   5  -3  -5   64.09    3.60
   5  -3  -5   66.19    2.50
  -5   3   5   64.09    3.40
  -5   3   5   67.39    3.50
   4  -3  -5    3.70    1.00
   4  -3  -5    2.40    1.40
  -4   3   5    2.10    1.10
  -4   3   5    2.70    1.30
  -4   3   5    3.70    0.60
   3  -3  -5   47.30    1.90
   3  -3  -5   44.70    1.90
   3  -3  -5   47.70    2.30
  -3   3   5   44.20    1.80
  -3   3   5   43.80    2.20
  -3   3   5   42.60    2.30
   2  -3  -5   14.10    1.00
   2  -3  -5   13.30    0.80
   2  -3  -5   11.20    1.20
   2  -3  -5   13.20    1.00
  -2   3   5   14.20    1.30
  -2   3   5   12.80    1.20
  -2   3   5   13.70    0.90
  -2   3   5   12.30    0.90
   1  -3  -5 1158.98   33.40
   1  -3  -5 1133.29   32.70
   1  -3  -5 1134.99   33.00
   1  -3  -5 1108.39   32.80
   1  -3  -5 1080.49   33.30
   1  -3  -5 1135.89   33.00
  -1   3   5 1156.88   33.30
  -1   3   5 1144.79   33.00
  -1   3   5 1130.09   33.10
  -1   3   5 1175.48   32.80
   0  -3  -5  370.86   10.60
   0  -3  -5  379.16   11.00
   0  -3  -5  345.87   10.70
   0  -3  -5  381.06   10.70
   0  -3  -5  338.27   11.10
   0   3   5  368.16   10.70
   0   3   5  347.27   10.70
  -1  -3  -5  510.05   15.20
  -1  -3  -5  499.95   15.30
  -1  -3  -5  515.35   15.40
  -1  -3  -5  514.55   15.50
   1   3   5  525.65   15.50
   1   3   5  544.05   15.20
   1   3   5  487.65   15.30
  -2  -3  -5    5.90    1.00
  -2  -3  -5    6.20    0.80
  -2  -3  -5    8.10    1.40
   2   3   5    7.40    1.30
   2   3   5    6.00    0.90
  -3  -3  -5   27.20    1.40
  -3  -3  -5   29.10    1.90
  -3  -3  -5   28.80    1.60
   3   3   5   26.60    1.90
   3   3   5   26.70    1.10
   3   3   5   28.10    1.20
  -4  -3  -5   47.20    2.70
  -4  -3  -5   48.10    2.20
  -4  -3  -5   49.60    2.20
   4   3   5   49.40    1.90
   4   3   5   45.70    2.80
   4   3   5   46.20    1.90
  -5  -3  -5  319.27    9.80
  -5  -3  -5  305.57   10.60
  -5  -3  -5  321.67    9.90
   5   3   5  318.17   10.60
   5   3   5  316.37    9.90
  -6  -3  -5   26.80    2.80
  -6  -3  -5   31.00    1.90
   6   3   5   27.80    2.80
   6   3   5   27.60    1.80
  -7  -3  -5   43.00    3.50
   7   3   5   39.00    3.50
  -7   5   6    6.00    2.70
   6  -5  -6    0.90    2.10
  -6   5   6    5.60    2.20
  -6   5   6    3.60    1.80
   5  -5  -6   42.70    2.90
   5  -5  -6   46.30    3.30
  -5   5   6   39.60    2.90
  -5   5   6   46.80    3.10
   4  -5  -6  105.49    4.70
   4  -5  -6  102.49    4.00
  -4   5   6  104.09    4.50
  -4   5   6  102.59    4.40
   3  -5  -6   16.40    1.50
  -3   5   6   14.30    1.70
  -3   5   6   14.30    1.70
   2  -5  -6   19.10    1.10
   2  -5  -6   20.60    1.60
  -2   5   6   20.20    1.60
  -2   5   6   23.00    2.00
   1  -5  -6    2.50    0.60
   1  -5  -6    1.20    0.60
   1  -5  -6    2.10    0.90
   1  -5  -6    1.20    0.60
  -1   5   6   -0.40    1.00
  -1   5   6    0.50    0.70
   0  -5  -6  235.88    7.30
   0  -5  -6  235.98    7.70
   0  -5  -6  230.18    7.40
   0  -5  -6  243.48    7.10
   0   5   6  232.38    8.00
   0   5   6  226.28    7.40
   0   5   6  229.48    7.10
  -1  -5  -6  430.06   13.50
  -1  -5  -6  446.26   13.20
   1   5   6  428.96   13.30
   1   5   6  448.16   13.80
   1   5   6  427.26   13.50
  -2  -5  -6  255.77    8.50
  -2  -5  -6  270.47    8.50
   2   5   6  264.27    8.80
   2   5   6  256.97    8.50
  -3  -5  -6   77.09    3.40
  -3  -5  -6   75.79    3.30
   3   5   6   73.29    3.50
   3   5   6   74.29    3.30
  -4  -5  -6   18.20    2.10
  -4  -5  -6   17.70    1.80
   4   5   6   16.20    1.70
   4   5   6   19.10    2.20
  -5  -5  -6   90.69    4.40
  -5  -5  -6   90.19    3.80
   5   5   6   93.79    4.40
  -6  -5  -6   24.70    2.80
   6   5   6   24.10    2.80
  -7  -5  -6   46.80    3.50
   7   5   6   38.70    4.90
   6  -7  -7   -2.10    2.40
   5  -7  -7    5.80    1.90
   5  -7  -7    8.10    2.30
  -5   7   7    6.10    2.10
   4  -7  -7   14.70    2.10
   4  -7  -7   10.60    2.00
   4  -7  -7    9.80    1.70
  -4   7   7   17.50    2.20
  -4   7   7   14.60    2.20
   3  -7  -7   22.90    2.00
   3  -7  -7   19.10    2.10
   3  -7  -7   23.30    1.90
  -3   7   7   22.20    2.20
  -3   7   7   23.80    2.00
   2  -7  -7   76.69    3.50
   2  -7  -7   77.59    3.30
   2  -7  -7   73.29    3.20
  -2   7   7   70.39    3.30
  -2   7   7   78.09    3.90
   1  -7  -7    6.70    1.50
   1  -7  -7    6.40    1.20
   1  -7  -7    5.80    1.10
  -1   7   7    7.30    1.80
  -1   7   7    9.40    1.30
   0  -7  -7   20.60    1.60
   0  -7  -7   18.20    2.00
   0  -7  -7   20.10    1.10
   0   7   7   16.90    2.20
  -1  -7  -7   89.39    4.10
  -1  -7  -7   92.09    3.70
   1   7   7   93.09    4.70
   1   7   7   88.89    4.10
  -2  -7  -7  114.49    4.50
  -2  -7  -7  110.79    4.70
   2   7   7  115.69    5.10
   2   7   7  107.09    4.70
  -3  -7  -7   44.80    3.20
  -3  -7  -7   43.40    2.80
  -4  -7  -7   11.40    2.20
  -4  -7  -7   15.20    2.10
   4   7   7   16.10    2.40
   4   7   7   13.80    2.00
  -5  -7  -7    8.20    1.70
  -5  -7  -7    7.70    2.10
   5   7   7   10.60    2.30
  -6  -7  -7   24.20    3.00
   6   7   7   28.90    3.40
   4  -9  -8    4.00    2.10
  -4   9   8    1.20    2.20
   3  -9  -8   39.20    2.80
   3  -9  -8   32.20    2.60
  -3   9   8   34.10    2.80
   2  -9  -8   17.70    1.90
   2  -9  -8   18.10    2.20
   2  -9  -8   18.90    1.90
  -2   9   8   18.20    2.70
  -2   9   8   19.00    2.00
   1  -9  -8   24.30    2.00
   1  -9  -8   25.80    2.50
  -1   9   8   20.70    2.70
   0  -9  -8    0.70    1.30
   0   9   8    0.30    2.00
  -1  -9  -8   35.60    2.90
  -1  -9  -8   32.90    2.50
   1   9   8   33.70    3.10
   1   9   8   30.60    2.60
  -2  -9  -8   21.00    2.60
  -2  -9  -8   25.40    3.70
   2   9   8   27.40    3.40
   2   9   8   27.00    2.60
  -3  -9  -8   58.29    3.40
  -3  -9  -8   64.69    3.80
   3   9   8   64.79    4.40
   3   9   8   53.29    3.70
  -4  -9  -8   30.20    2.80
  -4  -9  -8   22.00    2.80
   4   9   8   25.80    3.50
  -5  -9  -8    3.10    2.40
   3 -11  -9    3.90    2.40
   2 -11  -9   18.50    2.70
  -2  11   9   25.30    3.50
   1 -11  -9   35.20    3.60
  -1  11   9   38.40    3.60
   0  11   9    7.30    2.80
   1  11   9   -0.30    2.80
   2  11   9    4.90    3.00
   3  10   1   20.20    3.50
  -3 -10  -1   17.30    3.10
   2  10   1    6.70    2.10
   1  10   1   23.50    2.70
  -1 -10  -1   20.10    2.90
   0  10   1   17.20    2.70
   0 -10  -1   20.80    2.90
  -1  10   1    1.60    1.80
   1 -10  -1    4.00    2.30
   1 -10  -1   -2.30    1.60
  -2  10   1    8.70    1.90
   2 -10  -1    3.10    2.40
   2 -10  -1    4.00    1.90
   2 -10  -1   14.10    2.40
   3 -10  -1   25.50    2.60
   3 -10  -1   20.90    3.40
   3 -10  -1   27.20    2.90
   6   8   0   18.50    2.50
   6   8   0   19.20    3.70
   5   8   0   23.60    2.90
   5   8   0   26.90    2.70
   4   8   0    9.30    2.00
  -4  -8   0   10.00    2.60
   3   8   0   13.50    2.10
   3   8   0   11.70    2.10
  -3  -8   0   13.10    2.60
   2   8   0   15.80    2.30
   2   8   0   19.90    2.10
  -2  -8   0   20.70    1.70
  -2  -8   0   15.40    2.40
   1   8   0   37.30    2.70
   1   8   0   39.50    2.30
  -1  -8   0   38.10    3.00
  -1  -8   0   40.60    2.60
   0   8   0   10.20    1.30
   0  -8   0    8.10    1.50
  -1   8   0   63.89    3.50
  -1   8   0   65.59    2.80
   1  -8   0   68.19    3.20
   1  -8   0   66.29    4.50
  -2   8   0   -1.70    1.30
  -2   8   0   -0.10    1.80
   2  -8   0    1.40    2.30
   2  -8   0    1.00    1.80
  -3   8   0    4.30    2.40
  -3   8   0    3.40    1.30
   3  -8   0    1.80    1.50
   3  -8   0    1.90    1.20
   3  -8   0    1.30    2.00
   3  -8   0    1.40    1.40
  -4   8   0   37.50    3.90
   4  -8   0   47.10    3.40
   4  -8   0   39.30    3.80
   4  -8   0   45.20    2.80
  -5   8   0   37.20    4.20
   5  -8   0   29.40    3.30
   5  -8   0   40.80    3.90
   7   6  -1   26.50    4.20
   6   6  -1    0.30    1.60
   6   6  -1    3.40    2.10
  -6  -6   1   -0.60    2.00
   5   6  -1   40.80    3.10
   5   6  -1   34.60    2.60
  -5  -6   1   38.60    3.20
   4   6  -1  123.09    5.00
   4   6  -1  120.99    5.10
  -4  -6   1  117.39    4.30
  -4  -6   1  118.69    5.40
   3   6  -1    6.80    1.10
   3   6  -1   10.10    1.60
   3   6  -1    7.40    1.50
  -3  -6   1    6.10    1.20
  -3  -6   1   10.50    2.20
   2   6  -1    5.00    1.40
   2   6  -1    5.20    1.30
   2   6  -1    7.50    1.00
  -2  -6   1    8.10    1.40
  -2  -6   1    8.70    1.80
   1   6  -1   74.69    3.00
   1   6  -1   76.39    3.50
   1   6  -1   78.59    3.60
  -1  -6   1   76.99    2.90
  -1  -6   1   82.29    3.80
  -1  -6   1   83.39    3.60
   0   6  -1    4.80    0.80
   0   6  -1    3.40    1.20
   0  -6   1    3.60    1.10
   0  -6   1    4.40    0.70
   0  -6   1    4.60    1.40
  -1   6  -1   96.69    3.40
  -1   6  -1   98.49    3.90
  -1   6  -1   92.89    4.30
   1  -6   1   98.99    3.40
   1  -6   1   91.79    4.40
   1  -6   1   97.69    3.90
  -2   6  -1  315.97    9.80
  -2   6  -1  300.17   10.60
   2  -6   1  312.17   10.10
   2  -6   1  312.37    9.50
   2  -6   1  301.57    9.70
   2  -6   1  298.27   10.60
  -3   6  -1   11.20    1.50
  -3   6  -1   16.10    2.70
   3  -6   1   13.50    1.50
   3  -6   1   14.80    2.20
   3  -6   1   12.20    1.90
  -4   6  -1  136.19    4.80
  -4   6  -1  139.39    6.40
   4  -6   1  142.99    5.30
   4  -6   1  139.49    4.80
   4  -6   1  146.89    5.90
  -5   6  -1   24.90    3.60
   5  -6   1   21.90    2.30
   5  -6   1   18.50    2.30
  -6   6  -1   20.40    3.80
   6  -6   1   21.80    2.60
   6  -6   1   20.60    2.90
   7  -6   1   12.40    3.00
   7   4  -2    1.50    2.20
  -7  -4   2    5.20    2.60
   6   4  -2    1.60    1.30
   6   4  -2   -1.10    1.80
  -6  -4   2   -1.10    1.30
  -6  -4   2    0.00    1.90
   5   4  -2   45.20    2.60
   5   4  -2   48.90    3.10
  -5  -4   2   49.00    3.30
  -5  -4   2   48.60    2.50
   4   4  -2  130.89    4.90
   4   4  -2  132.99    5.10
  -4  -4   2  133.39    5.50
  -4  -4   2  124.69    4.70
   3   4  -2  169.48    6.00
   3   4  -2  173.38    5.90
   3   4  -2  173.38    6.00
  -3  -4   2  179.78    6.40
  -3  -4   2  164.18    5.70
   2   4  -2  138.09    5.10
   2   4  -2  149.39    5.30
   2   4  -2  149.39    5.30
  -2  -4   2  153.78    5.50
  -2  -4   2  157.08    5.20
  -2  -4   2  144.59    4.80
   1   4  -2    5.70    0.80
   1   4  -2    4.30    0.70
   1   4  -2    5.30    1.10
  -1  -4   2    4.30    0.60
  -1  -4   2    6.20    1.30
  -1  -4   2    7.30    1.40
   0   4  -2  346.87   10.70
   0   4  -2  346.57   10.30
   0   4  -2  354.56   10.80
   0  -4   2  345.27   11.10
   0  -4   2  354.36   10.80
   0  -4   2  353.16   10.30
  -1   4  -2  327.37   10.60
  -1   4  -2  307.87   10.20
  -1   4  -2  332.37   10.10
   1  -4   2  322.17   10.10
   1  -4   2  338.77   10.30
   1  -4   2  349.37    9.90
   1  -4   2  322.77   10.00
   1  -4   2  323.37   10.60
  -2   4  -2    4.10    1.50
   2  -4   2    3.50    1.10
   2  -4   2    4.00    0.70
   2  -4   2    2.70    0.70
   2  -4   2    3.90    0.60
  -3   4  -2   84.29    3.00
  -3   4  -2   83.79    3.90
   3  -4   2   85.99    3.30
   3  -4   2   82.89    3.40
   3  -4   2   85.69    3.70
   3  -4   2   85.29    2.90
  -4   4  -2  144.39    5.50
  -4   4  -2  143.09    5.90
   4  -4   2  139.99    4.40
   4  -4   2  134.29    4.40
   4  -4   2  142.29    5.20
   4  -4   2  140.89    5.50
  -5   4  -2   15.30    2.50
  -5   4  -2   21.70    2.30
   5  -4   2   20.30    2.10
   5  -4   2   20.60    2.30
  -6   4  -2  205.68    7.80
  -6   4  -2  198.58    8.10
   6  -4   2  205.58    7.70
   6  -4   2  204.78    7.80
  -7   4  -2   19.90    3.30
  -7   4  -2   20.30    2.90
   7  -4   2   17.30    2.80
   7  -4   2   22.00    3.00
  -8  -2   3   24.80    3.10
   7   2  -3   10.90    2.60
  -7  -2   3   13.30    2.80
  -7  -2   3   11.70    2.20
   6   2  -3    4.70    2.00
   6   2  -3    4.20    1.10
  -6  -2   3    3.50    1.90
   5   2  -3   13.40    2.10
   5   2  -3   13.10    1.40
  -5  -2   3   15.40    1.70
  -5  -2   3   10.90    2.10
   4   2  -3    2.50    0.90
   4   2  -3    1.00    1.20
  -4  -2   3    1.90    1.40
  -4  -2   3    1.00    0.90
   3   2  -3  267.77    8.80
   3   2  -3  284.27    8.80
   3   2  -3  296.87    9.00
  -3  -2   3  271.97    8.80
  -3  -2   3  279.27    8.90
  -3  -2   3  297.77    9.20
   2   2  -3  246.08    7.80
   2   2  -3  256.87    7.90
   2   2  -3  248.98    7.70
   2   2  -3  240.58    7.80
  -2  -2   3  234.78    8.20
  -2  -2   3  265.77    8.00
  -2  -2   3  249.97    7.70
  -2  -2   3  249.48    7.80
   1   2  -3    1.60    0.80
   1   2  -3    1.40    0.70
   1   2  -3    1.80    0.50
   1   2  -3    1.90    0.60
  -1  -2   3    1.50    0.60
  -1  -2   3    2.10    0.50
  -1  -2   3    2.30    0.90
  -1  -2   3    2.90    0.80
   0   2  -3  486.65   14.40
   0   2  -3  450.25   14.50
   0   2  -3  484.95   14.60
   0   2  -3  522.95   14.60
   0  -2   3  444.96   14.60
   0  -2   3  489.85   14.60
   0  -2   3  495.55   14.40
   0  -2   3  513.95   14.60
  -1   2  -3  209.28    6.50
  -1   2  -3  189.98    6.20
   1  -2   3  199.98    6.00
   1  -2   3  186.98    6.30
   1  -2   3  187.68    5.80
  -2   2  -3 1136.09   32.00
  -2   2  -3 1035.80   31.80
  -2   2  -3 1157.28   32.40
  -2   2  -3 1080.19   32.20
   2  -2   3 1091.79   32.20
   2  -2   3 1071.19   32.30
   2  -2   3 1098.09   31.90
   2  -2   3 1120.39   31.90
   2  -2   3 1127.09   32.30
  -3   2  -3   50.99    2.10
  -3   2  -3   48.50    2.40
  -3   2  -3   49.10    1.70
  -3   2  -3   44.40    2.40
   3  -2   3   45.40    1.70
   3  -2   3   49.70    2.40
   3  -2   3   50.19    2.20
  -4   2  -3    3.30    1.20
  -4   2  -3    4.30    1.40
   4  -2   3    4.40    1.30
   4  -2   3    3.90    1.20
  -5   2  -3    2.30    1.70
  -5   2  -3    2.10    1.40
   5  -2   3    4.20    1.60
   5  -2   3    3.00    1.30
  -6   2  -3   12.30    2.30
  -6   2  -3   12.20    2.10
   6  -2   3    8.30    2.20
   6  -2   3   11.90    2.00
  -7   2  -3   26.60    3.30
  -7   2  -3   26.10    2.80
   7  -2   3   23.70    2.80
   7  -2   3   21.90    2.70
  -8   0   4   17.00    3.40
   7   0  -4    7.90    2.60
  -7   0   4   14.30    2.60
  -7   0   4   12.30    2.20
   6   0  -4   22.70    2.80
  -6   0   4   20.20    2.20
   5   0  -4    0.60    1.70
   5   0  -4    0.90    0.70
  -5   0   4   -0.10    1.40
  -5   0   4   -0.70    1.20
   4   0  -4   32.20    2.20
  -4   0   4   29.50    1.60
  -4   0   4   30.60    2.00
  -4   0   4   30.00    2.00
   3   0  -4  304.37    9.90
   3   0  -4  305.17    9.60
   3   0  -4  291.07    9.40
   3   0  -4  318.27    9.40
  -3   0   4  317.07    9.60
  -3   0   4  309.37    9.50
  -3   0   4  297.77    9.60
   2   0  -4  283.27    8.70
   2   0  -4  284.07    8.60
   2   0  -4  292.37    8.70
   2   0  -4  273.27    8.70
  -2   0   4  273.07    8.70
  -2   0   4  282.97    8.80
  -2   0   4  287.87    8.60
   1   0  -4  275.27    8.20
   1   0  -4  270.87    8.30
   1   0  -4  256.67    8.30
   1   0  -4  272.67    8.10
  -1   0   4  281.17    8.40
  -1   0   4  272.67    8.40
  -1   0   4  281.07    8.30
   0   0  -4    0.80    0.50
   0   0  -4    0.10    0.70
   0   0  -4    1.90    0.80
   0   0  -4    0.60    0.50
   0   0   4    2.10    0.70
   0   0   4    1.20    0.50
   0   0   4    1.70    0.50
   0   0   4    1.50    0.90
   0   0   4    1.90    0.60
  -1   0  -4  160.78    5.10
  -1   0  -4  158.98    5.00
  -1   0  -4  155.48    4.90
  -1   0  -4  144.39    4.90
   1   0   4  154.78    4.80
   1   0   4  155.58    5.00
   1   0   4  162.18    4.90
   1   0   4  162.48    4.90
  -2   0  -4   33.20    1.50
  -2   0  -4   29.60    1.40
  -2   0  -4   33.40    1.50
  -2   0  -4   34.20    1.70
   2   0   4   30.20    1.40
   2   0   4   35.60    1.60
   2   0   4   32.70    1.30
   2   0   4   31.70    1.60
   2   0   4   32.00    1.60
  -3   0  -4  598.34   17.20
  -3   0  -4  569.54   17.60
  -3   0  -4  572.04   17.10
  -3   0  -4  587.94   17.70
  -3   0  -4  598.64   17.60
   3   0   4  600.14   17.60
   3   0   4  601.84   17.10
   3   0   4  580.24   17.50
   3   0   4  585.24   17.60
  -4   0  -4  790.02   23.50
  -4   0  -4  779.22   23.70
   4   0   4  785.12   23.50
   4   0   4  804.92   23.70
  -5   0  -4    3.70    1.70
  -5   0  -4    3.90    1.30
   5   0   4    3.80    1.20
   5   0   4    5.20    1.60
  -6   0  -4   32.10    2.50
  -6   0  -4   35.70    2.90
   6   0   4   34.00    2.40
   6   0   4   34.30    2.80
  -7   0  -4   38.80    2.80
  -7   0  -4   38.60    3.30
   7   0   4   30.70    2.70
   7   0   4   27.20    3.10
  -8   0  -4    5.00    2.30
   8   0   4    6.80    2.20
  -8   2   5    4.30    3.10
   7  -2  -5   11.10    2.80
  -7   2   5   18.90    3.00
  -7   2   5   12.70    2.40
   6  -2  -5   36.50    3.20
  -6   2   5   40.90    3.00
  -6   2   5   40.80    2.90
   5  -2  -5   68.19    3.60
   5  -2  -5   72.49    2.50
  -5   2   5   66.29    3.40
  -5   2   5   68.89    3.50
   4  -2  -5   -1.50    1.10
   4  -2  -5    0.50    0.60
  -4   2   5    0.20    1.00
  -4   2   5   -0.50    1.10
   3  -2  -5   30.80    1.50
   3  -2  -5   31.30    2.00
   3  -2  -5   32.50    1.80
  -3   2   5   33.70    1.50
  -3   2   5   31.50    2.00
  -3   2   5   31.00    1.90
   2  -2  -5  263.77    7.90
   2  -2  -5  252.67    7.90
   2  -2  -5  252.57    7.60
   2  -2  -5  246.38    7.90
  -2   2   5  247.58    7.90
  -2   2   5  252.37    7.70
  -2   2   5  242.78    7.60
   1  -2  -5  670.13   19.90
   1  -2  -5  675.13   19.90
   1  -2  -5  689.03   19.50
  -1   2   5  668.03   19.90
  -1   2   5  697.83   20.10
  -1   2   5  667.03   19.50
  -1   2   5  677.53   19.90
   0  -2  -5  288.27    8.70
   0  -2  -5  295.17    8.60
   0  -2  -5  278.27    8.80
   0   2   5  270.87    8.50
   0   2   5  295.67    9.00
  -1  -2  -5  310.87    9.20
  -1  -2  -5  311.27    9.40
  -1  -2  -5  291.57    9.00
  -1  -2  -5  308.67    9.10
  -1  -2  -5  314.07    9.20
   1   2   5  317.17    9.40
   1   2   5  262.87    9.00
   1   2   5  314.17    9.10
  -2  -2  -5   58.09    2.20
  -2  -2  -5   58.69    2.50
  -2  -2  -5   59.39    2.40
  -2  -2  -5   60.09    2.30
   2   2   5   55.39    2.00
   2   2   5   58.09    2.00
   2   2   5   57.79    2.20
   2   2   5   63.09    2.40
   2   2   5   58.49    2.50
  -3  -2  -5  169.68    5.40
  -3  -2  -5  170.08    5.80
  -3  -2  -5  170.98    5.50
   3   2   5  170.38    5.90
   3   2   5  171.28    5.40
   3   2   5  173.08    5.40
  -4  -2  -5  452.65   14.40
  -4  -2  -5  474.65   13.90
  -4  -2  -5  462.85   13.80
  -4  -2  -5  476.95   13.80
   4   2   5  461.95   13.90
   4   2   5  453.95   13.90
   4   2   5  453.15   14.40
  -5  -2  -5  206.58    7.50
  -5  -2  -5  206.38    6.40
  -5  -2  -5  208.08    6.80
   5   2   5  202.08    7.40
   5   2   5  201.88    6.80
  -6  -2  -5    2.30    1.80
  -6  -2  -5    4.90    1.20
   6   2   5    5.50    1.30
   6   2   5    4.40    2.00
  -7  -2  -5    8.90    2.20
  -7  -2  -5    5.50    1.60
   7   2   5    5.10    2.20
   7  -4  -6    7.60    2.70
  -7   4   6   12.40    3.00
   6  -4  -6   12.10    2.40
  -6   4   6    7.70    4.00
  -6   4   6   14.40    2.30
   5  -4  -6    7.20    1.70
   5  -4  -6    3.20    1.70
  -5   4   6    0.10    1.50
   4  -4  -6  132.59    4.50
   4  -4  -6  125.79    5.20
   4  -4  -6  129.89    4.70
  -4   4   6  125.59    5.00
  -4   4   6  115.69    4.80
   3  -4  -6    2.50    0.70
   3  -4  -6    2.30    0.90
  -3   4   6    1.10    1.00
  -3   4   6    3.10    1.00
   2  -4  -6  233.68    7.40
   2  -4  -6  226.88    7.10
  -2   4   6  231.28    7.50
  -2   4   6  228.48    7.30
  -2   4   6  235.68    7.80
   1  -4  -6   51.39    1.80
   1  -4  -6   49.40    1.90
   1  -4  -6   53.19    2.10
   1  -4  -6   51.39    2.30
  -1   4   6   47.60    2.50
  -1   4   6   50.39    2.10
   0  -4  -6  300.97    8.80
   0  -4  -6  286.47    8.70
   0  -4  -6  296.17    9.20
   0  -4  -6  292.87    8.90
   0   4   6  280.37    8.70
   0   4   6  298.27    9.50
   0   4   6  286.97    8.90
  -1  -4  -6  115.89    3.90
  -1  -4  -6  114.49    4.20
   1   4   6  114.09    4.50
   1   4   6  124.79    4.10
  -2  -4  -6    4.10    1.00
  -2  -4  -6    2.10    0.90
   2   4   6    2.50    1.10
  -3  -4  -6   49.10    2.40
  -3  -4  -6   50.79    2.60
   3   4   6   50.79    2.70
  -4  -4  -6  189.48    6.80
  -4  -4  -6  195.38    6.50
   4   4   6  187.98    6.90
   4   4   6  189.48    5.80
   4   4   6  182.98    5.70
  -5  -4  -6   48.00    3.60
  -5  -4  -6   43.00    2.40
   5   4   6   46.20    2.40
   5   4   6   44.80    3.10
  -6  -4  -6  103.79    5.00
   6   4   6   99.09    5.00
  -7  -4  -6    1.30    2.20
   7   4   6    1.10    2.30
   6  -6  -7    6.30    2.40
  -6   6   7    5.40    2.20
   5  -6  -7   51.09    3.60
  -5   6   7   49.50    3.40
  -5   6   7   45.90    3.30
   4  -6  -7    4.60    1.30
   4  -6  -7    7.00    1.90
  -4   6   7    8.20    1.80
  -4   6   7    6.70    1.70
   3  -6  -7    1.60    1.00
   3  -6  -7    4.30    1.20
  -3   6   7    3.70    1.30
  -3   6   7    3.60    1.60
  -3   6   7    4.80    1.40
   2  -6  -7    6.70    1.30
   2  -6  -7    6.80    0.90
   2  -6  -7    6.70    1.10
  -2   6   7    6.80    1.20
  -2   6   7    8.00    1.40
  -2   6   7    9.10    1.80
   1  -6  -7   37.10    2.30
   1  -6  -7   33.70    1.60
   1  -6  -7   33.90    1.60
   1  -6  -7   36.30    1.80
  -1   6   7   34.60    1.90
  -1   6   7   32.60    2.50
   0  -6  -7  352.96   10.50
   0  -6  -7  350.36   10.70
   0  -6  -7  364.86   10.60
   0  -6  -7  351.16   10.90
   0  -6  -7  354.16   11.20
   0   6   7  337.97   10.90
   0   6   7  346.27   10.50
   0   6   7  340.67   11.50
  -1  -6  -7  302.47    9.60
  -1  -6  -7  296.17    9.90
   1   6   7  314.77   10.60
  -2  -6  -7   63.69    3.00
  -2  -6  -7   59.19    3.00
   2   6   7   67.19    3.50
   2   6   7   56.99    3.10
  -3  -6  -7    1.20    1.10
  -3  -6  -7    2.40    1.30
   3   6   7    0.50    1.20
   3   6   7    0.30    1.50
  -4  -6  -7  188.28    6.80
  -4  -6  -7  189.88    7.00
   4   6   7  186.28    7.30
  -5  -6  -7   72.29    3.60
  -5  -6  -7   74.39    4.00
   5   6   7   73.49    4.20
  -6  -6  -7   50.19    3.70
   6   6   7   49.90    3.80
   5  -8  -8   -0.30    2.00
   5  -8  -8   -1.40    2.30
  -5   8   8    0.20    2.10
   4  -8  -8   24.80    2.30
   4  -8  -8   22.60    2.40
  -4   8   8   20.70    2.60
   3  -8  -8   37.00    2.90
   3  -8  -8   36.10    2.40
   3  -8  -8   38.20    2.50
  -3   8   8   40.40    3.20
  -3   8   8   38.10    2.70
   2  -8  -8   12.60    1.50
   2  -8  -8   14.80    3.50
   2  -8  -8   14.20    1.70
  -2   8   8   16.10    2.50
  -2   8   8   17.20    1.80
   1  -8  -8    8.60    1.30
   1  -8  -8    8.60    1.40
   1  -8  -8   13.00    2.80
  -1   8   8    9.00    1.40
  -1   8   8   14.50    3.10
   0  -8  -8   23.10    1.40
   0  -8  -8   24.00    2.30
   0  -8  -8   25.80    1.80
   0   8   8   20.10    2.50
  -1  -8  -8   56.19    3.30
  -1  -8  -8   56.19    2.90
  -2  -8  -8  108.39    4.80
  -2  -8  -8  109.29    4.50
   2   8   8  107.59    5.40
   2   8   8  106.09    4.80
  -3  -8  -8   21.40    2.40
  -3  -8  -8   22.80    2.50
   3   8   8   26.30    2.50
   3   8   8   26.00    3.00
  -4  -8  -8    5.00    1.70
  -4  -8  -8    4.80    1.80
   4   8   8    4.30    2.20
  -5  -8  -8   14.10    2.30
  -5  -8  -8   15.60    2.60
   5   8   8   14.90    2.80
   4 -10  -9   -1.80    2.30
   3 -10  -9   20.00    2.80
   2 -10  -9    9.90    2.10
  -2  10   9    9.50    2.60
   1 -10  -9    4.90    2.00
  -1  10   9    8.60    2.50
   0 -10  -9   -2.30    1.70
   0  10   9    0.70    2.40
  -1 -10  -9   42.60    2.80
  -1 -10  -9   41.30    3.40
   1  10   9   41.20    3.70
  -2 -10  -9   30.50    2.80
  -2 -10  -9   27.90    3.00
   2  10   9   31.90    3.80
  -3 -10  -9   13.30    2.50
  -3 -10  -9   17.70    2.70
   3  10   9   22.50    3.90
  -4 -10  -9    6.70    2.40
   0 -11  -1    3.80    2.60
  -1  11   1    8.40    2.30
   1 -11  -1    6.00    2.20
   1 -11  -1   13.70    3.00
   2 -11  -1    8.60    2.40
   4   9   0   -0.20    1.80
  -4  -9   0    1.00    2.40
   3   9   0    2.90    1.70
  -3  -9   0    0.80    2.20
   2   9   0   40.10    3.00
  -2  -9   0   35.50    3.30
   1   9   0   96.29    4.70
  -1  -9   0   93.49    5.00
  -1  -9   0   92.29    4.20
   0   9   0   16.30    2.30
   0  -9   0   11.50    1.90
   0  -9   0   12.90    2.50
  -1   9   0   41.50    3.00
   1  -9   0   43.50    3.30
  -2   9   0    5.20    1.70
   2  -9   0    1.90    1.40
   2  -9   0    0.80    2.10
   2  -9   0   -2.10    1.50
  -3   9   0   57.99    3.20
  -3   9   0   54.09    4.30
   3  -9   0   58.49    3.20
   3  -9   0   61.19    3.50
   3  -9   0   55.49    4.10
  -4   9   0   21.20    3.30
   4  -9   0   19.90    2.80
   4  -9   0   29.80    3.60
   6   7  -1   37.30    3.40
   6   7  -1   31.50    2.90
   5   7  -1   33.90    3.00
   5   7  -1   33.20    2.70
  -5  -7   1   29.10    3.30
   4   7  -1   30.00    2.50
   4   7  -1   31.60    2.60
  -4  -7   1   28.20    3.10
   3   7  -1   11.50    1.90
   3   7  -1   12.10    1.70
  -3  -7   1   13.20    2.50
  -3  -7   1   13.70    1.40
   2   7  -1   51.69    3.50
   2   7  -1   49.70    2.60
  -2  -7   1   51.09    3.30
  -2  -7   1   49.50    2.60
   1   7  -1   69.59    3.00
   1   7  -1   61.89    3.40
  -1  -7   1   63.89    2.50
  -1  -7   1   71.19    3.80
  -1  -7   1   68.79    3.40
   0   7  -1  121.09    4.20
   0   7  -1  120.69    4.90
   0  -7   1  114.09    4.00
   0  -7   1  121.99    4.70
   0  -7   1  121.39    5.30
  -1   7  -1  279.27    8.70
  -1   7  -1  277.57    9.30
   1  -7   1  283.97    9.30
   1  -7   1  274.07    8.60
   1  -7   1  273.67    9.90
  -2   7  -1   -2.10    1.60
  -2   7  -1    1.10    1.10
   2  -7   1    0.30    0.90
   2  -7   1   -1.40    1.50
   2  -7   1    0.50    1.30
  -3   7  -1  441.76   14.70
  -3   7  -1  417.56   13.40
   3  -7   1  438.26   13.40
   3  -7   1  429.66   14.10
   3  -7   1  425.86   14.70
   3  -7   1  425.46   13.40
  -4   7  -1   20.70    3.30
   4  -7   1   24.10    2.70
   4  -7   1   28.50    2.20
   4  -7   1   26.10    3.10
  -5   7  -1   22.20    3.70
   5  -7   1   16.90    2.70
   5  -7   1   21.50    2.60
  -6   7  -1    3.20    3.20
   7   5  -2    9.30    2.80
   6   5  -2   28.20    2.40
   6   5  -2   30.30    2.90
  -6  -5   2   30.70    3.30
   5   5  -2   92.49    4.40
   5   5  -2   95.49    4.10
  -5  -5   2   89.39    3.80
  -5  -5   2   95.79    4.80
   4   5  -2   44.10    2.80
   4   5  -2   40.50    2.70
  -4  -5   2   48.40    3.20
  -4  -5   2   44.10    2.20
   3   5  -2   42.80    2.50
   3   5  -2   43.90    2.50
  -3  -5   2   44.60    2.20
  -3  -5   2   44.30    2.90
   2   5  -2    2.70    1.00
   2   5  -2    2.70    1.10
   2   5  -2    3.50    0.80
  -2  -5   2    2.90    0.70
  -2  -5   2    3.40    1.10
  -2  -5   2    3.60    1.40
   1   5  -2    5.10    0.80
   1   5  -2    5.20    1.10
   1   5  -2    4.60    0.80
  -1  -5   2    3.80    0.60
  -1  -5   2    5.70    1.40
  -1  -5   2    4.70    1.40
   0   5  -2  292.37    8.60
   0   5  -2  286.97    9.20
   0  -5   2  289.17    8.60
   0  -5   2  277.07    9.50
   0  -5   2  293.27    9.20
  -1   5  -2   43.10    2.60
  -1   5  -2   43.50    2.30
   1  -5   2   41.00    2.30
   1  -5   2   43.60    1.70
   1  -5   2   42.00    2.60
  -2   5  -2   19.20    2.20
  -2   5  -2   17.80    1.50
   2  -5   2   17.20    1.10
   2  -5   2   15.90    1.20
   2  -5   2   17.80    1.70
   2  -5   2   19.40    2.10
  -3   5  -2   43.50    2.10
  -3   5  -2   44.40    3.20
   3  -5   2   42.60    2.70
   3  -5   2   48.60    1.90
   3  -5   2   42.80    2.20
  -4   5  -2   40.00    3.20
  -4   5  -2   36.30    1.70
   4  -5   2   46.70    2.40
   4  -5   2   37.20    1.70
   4  -5   2   38.40    2.80
  -5   5  -2  239.18    9.20
   5  -5   2  233.58    8.60
   5  -5   2  234.18    8.20
  -6   5  -2   13.60    3.00
   6  -5   2   13.50    2.30
   6  -5   2    9.50    2.30
   7  -5   2   -2.70    2.30
   7   3  -3    2.20    2.10
  -7  -3   3    4.10    2.40
  -7  -3   3    3.40    1.70
   6   3  -3    8.60    1.50
   6   3  -3    7.40    2.10
  -6  -3   3    7.90    2.20
   5   3  -3   58.79    2.80
   5   3  -3   57.69    3.30
  -5  -3   3   61.69    3.50
  -5  -3   3   55.89    2.90
   4   3  -3  111.09    4.20
   4   3  -3  109.29    4.40
  -4  -3   3  106.49    4.20
  -4  -3   3  109.59    4.60
   3   3  -3  234.18    8.00
   3   3  -3  246.28    7.90
   3   3  -3  247.48    7.90
  -3  -3   3  255.77    8.40
  -3  -3   3  242.58    7.90
   2   3  -3  167.88    5.50
   2   3  -3  174.98    5.90
   2   3  -3  164.38    5.70
  -2  -3   3  175.68    6.00
  -2  -3   3  165.48    5.40
  -2  -3   3  170.98    5.70
   1   3  -3   35.90    1.80
   1   3  -3   33.00    1.80
   1   3  -3   33.40    1.40
   1   3  -3   35.90    1.80
  -1  -3   3   31.50    1.60
  -1  -3   3   35.10    1.40
  -1  -3   3   36.90    2.10
  -1  -3   3   37.20    2.20
  -1  -3   3   32.30    1.70
   0   3  -3  218.88    6.80
   0   3  -3  202.48    6.90
   0   3  -3  209.68    6.70
   0  -3   3  210.78    6.90
   0  -3   3  199.88    7.00
   0  -3   3  219.78    6.90
   0  -3   3  211.68    6.70
  -1   3  -3   62.39    2.90
  -1   3  -3   61.09    2.40
  -1   3  -3   61.79    2.50
   1  -3   3   57.19    2.00
   1  -3   3   62.79    2.60
   1  -3   3   63.59    2.50
   1  -3   3   63.29    2.40
   1  -3   3   62.39    2.90
   1  -3   3   57.99    2.60
   1  -3   3   60.29    2.00
  -2   3  -3  484.25   14.90
  -2   3  -3  473.35   14.20
   2  -3   3  476.05   14.20
   2  -3   3  478.65   14.70
   2  -3   3  489.75   14.20
   2  -3   3  483.35   14.20
  -3   3  -3  107.39    4.40
  -3   3  -3  105.89    3.50
   3  -3   3  107.09    3.50
   3  -3   3  106.99    4.20
   3  -3   3  106.69    3.80
  -4   3  -3   10.20    1.90
  -4   3  -3    9.80    1.70
   4  -3   3    9.70    1.60
   4  -3   3   10.10    1.60
  -5   3  -3  625.44   19.80
  -5   3  -3  619.54   20.60
   5  -3   3  637.04   20.30
   5  -3   3  656.33   19.60
  -6   3  -3   23.00    2.80
  -6   3  -3   22.60    2.60
   6  -3   3   18.40    2.40
   6  -3   3   20.40    2.40
  -7   3  -3   12.30    2.70
  -7   3  -3    9.90    2.20
   7  -3   3   11.50    2.30
   7  -3   3   11.70    2.30
  -8  -1   4   10.50    2.80
   7   1  -4   37.10    3.40
  -7  -1   4   37.00    2.80
  -7  -1   4   43.40    3.70
   6   1  -4    0.30    0.90
   6   1  -4   -1.00    1.90
  -6  -1   4   -0.70    1.70
  -6  -1   4   -1.00    1.40
   5   1  -4    0.00    1.50
   5   1  -4   -0.10    0.80
  -5  -1   4   -0.70    1.00
  -5  -1   4    0.10    1.50
   4   1  -4  157.28    5.40
   4   1  -4  169.38    5.90
  -4  -1   4  162.78    5.70
  -4  -1   4  157.18    5.40
  -4  -1   4  166.48    5.90
   3   1  -4  268.57    8.30
   3   1  -4  263.47    8.40
  -3  -1   4  263.87    8.30
  -3  -1   4  271.17    8.50
  -3  -1   4  253.27    8.40
   2   1  -4  134.39    4.60
   2   1  -4  132.79    4.60
   2   1  -4  137.89    4.50
   2   1  -4  138.79    4.70
  -2  -1   4  140.39    4.70
  -2  -1   4  135.69    4.60
  -2  -1   4  142.89    5.60
   1   1  -4 2988.30   82.49
   1   1  -4 2826.62   82.69
   1   1  -4 2929.91   82.49
   1   1  -4 2708.33   82.39
   1   1  -4 2882.61   82.29
  -1  -1   4 2889.31   83.49
  -1  -1   4 2774.62   82.49
  -1  -1   4 2883.91   82.29
   0   1  -4   23.30    1.30
   0   1  -4   23.90    1.40
   0   1  -4   19.50    1.20
   0   1  -4   21.70    0.90
   0  -1   4   22.10    1.30
   0  -1   4   23.80    1.30
   0  -1   4   25.20    1.50
   0  -1   4   22.10    0.90
   0  -1   4   23.40    1.20
  -1   1  -4  304.17    9.30
  -1   1  -4  307.97    9.10
  -1   1  -4  315.87    8.90
  -1   1  -4  299.17    9.20
   1  -1   4  313.87    9.20
   1  -1   4  299.77    9.20
   1  -1   4  296.57    8.90
   1  -1   4  285.97    9.20
  -2   1  -4  259.87    8.20
  -2   1  -4  253.07    8.00
  -2   1  -4  258.97    7.80
  -2   1  -4  260.17    7.90
   2  -1   4  255.77    8.10
   2  -1   4  255.37    7.80
   2  -1   4  264.17    8.10
   2  -1   4  258.57    7.90
   2  -1   4  252.67    8.00
  -3   1  -4  299.77    9.50
  -3   1  -4  304.97    9.80
  -3   1  -4  311.47    9.10
   3  -1   4  314.27    9.10
   3  -1   4  301.47    9.60
   3  -1   4  318.07    9.60
   3  -1   4  303.57    9.70
  -4   1  -4   55.59    3.00
  -4   1  -4   54.79    2.70
   4  -1   4   56.79    2.70
   4  -1   4   54.29    2.70
  -5   1  -4  208.68    7.70
  -5   1  -4  211.18    7.40
   5  -1   4  217.78    7.50
   5  -1   4  211.68    7.40
  -6   1  -4   35.70    2.60
  -6   1  -4   33.90    3.10
   6  -1   4   34.20    2.50
   6  -1   4   38.60    2.80
  -7   1  -4   61.49    4.00
  -7   1  -4   66.09    3.70
   7  -1   4   60.69    3.90
   7  -1   4   65.19    3.70
  -8   1  -4    4.30    2.60
   8  -1   4    6.90    2.20
  -8   1   5   10.00    2.90
   7  -1  -5   41.20    3.50
  -7   1   5   42.40    3.00
  -7   1   5   44.20    3.50
   6  -1  -5   15.50    2.60
  -6   1   5   18.90    2.20
  -6   1   5   18.80    2.40
   5  -1  -5    1.00    1.50
   5  -1  -5    0.40    0.80
  -5   1   5   -0.50    0.90
  -5   1   5   -0.60    1.20
  -5   1   5   -2.30    1.30
   4  -1  -5   12.90    1.80
   4  -1  -5   13.40    1.50
  -4   1   5   12.70    1.60
  -4   1   5   12.30    1.50
  -4   1   5   12.40    1.00
   3  -1  -5  141.49    4.70
   3  -1  -5  140.99    4.70
   3  -1  -5  139.99    5.00
  -3   1   5  137.99    4.90
  -3   1   5  140.29    4.70
   2  -1  -5  421.46   12.60
   2  -1  -5  417.86   12.60
   2  -1  -5  416.56   12.60
   2  -1  -5  437.46   12.40
  -2   1   5  405.36   12.60
  -2   1   5  406.26   12.60
  -2   1   5  412.56   12.40
   1  -1  -5   58.29    2.30
   1  -1  -5   49.99    1.90
   1  -1  -5   56.49    2.10
   1  -1  -5   54.19    2.10
  -1   1   5   56.19    2.20
  -1   1   5   52.69    1.80
  -1   1   5   56.59    2.20
  -1   1   5   54.99    2.10
   0  -1  -5   29.30    1.50
   0  -1  -5   32.40    1.60
   0  -1  -5   29.20    1.10
   0  -1  -5   30.40    1.50
   0   1   5   29.90    1.40
   0   1   5   31.20    1.50
   0   1   5   29.70    1.50
   0   1   5   29.70    1.10
  -1  -1  -5 1714.63   49.40
  -1  -1  -5 1784.42   49.30
  -1  -1  -5 1633.84   49.20
  -1  -1  -5 1750.62   49.40
   1   1   5 1715.63   49.40
   1   1   5 1732.93   49.30
   1   1   5 1716.33   49.40
   1   1   5 1646.54   49.40
  -2  -1  -5   69.69    2.50
  -2  -1  -5   75.09    2.80
  -2  -1  -5   72.89    2.60
  -2  -1  -5   74.79    2.80
   2   1   5   74.79    2.60
   2   1   5   72.29    2.60
   2   1   5   69.39    2.50
   2   1   5   73.09    2.70
  -3  -1  -5  652.23   18.90
  -3  -1  -5  625.44   18.90
  -3  -1  -5  654.13   19.30
   3   1   5  667.93   19.10
   3   1   5  647.64   18.90
   3   1   5  633.14   19.00
   3   1   5  629.44   19.30
  -4  -1  -5   84.59    3.70
  -4  -1  -5   84.39    2.90
  -4  -1  -5   85.49    3.30
  -4  -1  -5   81.99    2.80
   4   1   5   86.49    3.30
   4   1   5   81.69    3.10
   4   1   5   82.79    3.60
  -5  -1  -5 1245.58   36.90
  -5  -1  -5 1224.18   37.30
   5   1   5 1254.07   36.90
   5   1   5 1292.17   37.30
  -6  -1  -5    3.50    1.80
  -6  -1  -5    0.40    1.20
   6   1   5   -1.30    1.10
   6   1   5   -1.20    1.60
  -7  -1  -5   14.40    2.00
  -7  -1  -5   15.60    2.60
   7   1   5   18.90    2.60
   7   1   5   14.30    1.90
  -8   3   6   10.60    3.20
   7  -3  -6   16.50    2.90
  -7   3   6   17.00    2.70
  -7   3   6   23.00    3.30
   6  -3  -6   33.80    3.10
  -6   3   6   23.60    2.80
  -6   3   6   31.20    2.70
   5  -3  -6   72.09    2.90
  -5   3   6   65.49    3.50
  -5   3   6   63.59    3.60
   4  -3  -6   13.10    1.90
   4  -3  -6   13.80    1.60
  -4   3   6   10.10    1.70
  -4   3   6   12.10    1.00
  -4   3   6   14.90    1.90
   3  -3  -6   48.20    2.00
   3  -3  -6   54.49    2.40
  -3   3   6   46.00    2.50
  -3   3   6   49.40    2.50
  -3   3   6   50.69    2.00
   2  -3  -6  281.47    9.00
   2  -3  -6  289.87    8.70
   2  -3  -6  302.97    9.10
  -2   3   6  292.17    9.00
  -2   3   6  286.97    9.10
  -2   3   6  277.77    8.80
  -2   3   6  295.67    9.30
   1  -3  -6  954.50   27.20
   1  -3  -6  939.91   27.50
   1  -3  -6  943.11   27.10
   1  -3  -6  945.51   26.70
  -1   3   6  904.71   27.40
  -1   3   6  877.81   27.80
  -1   3   6  916.61   27.10
   0  -3  -6  110.09    3.50
   0  -3  -6  110.69    3.90
   0  -3  -6  107.39    3.40
   0  -3  -6  110.99    3.80
   0  -3  -6  104.49    3.40
   0   3   6  104.09    3.40
   0   3   6  107.19    3.80
   0   3   6  113.69    4.20
   0   3   6  110.29    3.50
  -1  -3  -6   48.10    2.10
  -1  -3  -6   46.70    1.80
  -1  -3  -6   44.50    2.00
  -1  -3  -6   46.50    2.10
   1   3   6   47.50    1.80
   1   3   6   42.40    1.60
   1   3   6   44.00    1.90
   1   3   6   48.30    2.30
  -2  -3  -6  214.18    7.20
  -2  -3  -6  227.18    7.00
  -2  -3  -6  214.88    6.90
   2   3   6  221.18    6.50
   2   3   6  217.88    7.20
   2   3   6  226.38    7.00
   2   3   6  211.28    6.90
   2   3   6  206.58    6.50
  -3  -3  -6   12.10    1.20
  -3  -3  -6   10.40    1.30
   3   3   6    9.00    1.40
   3   3   6   11.70    0.70
   3   3   6   11.40    0.80
  -4  -3  -6  196.58    7.00
  -4  -3  -6  199.48    6.50
   4   3   6  190.08    7.00
   4   3   6  192.58    6.10
   4   3   6  207.48    6.30
  -5  -3  -6    4.70    1.10
  -5  -3  -6    6.80    1.80
   5   3   6    5.70    1.10
   5   3   6    5.90    2.20
  -6  -3  -6    1.70    1.70
   6   3   6   -0.10    1.80
  -7  -3  -6   84.29    4.70
   7   3   6   78.39    4.70
   6  -5  -7   29.60    3.20
  -6   5   7   22.00    2.80
  -6   5   7   35.20    2.90
   5  -5  -7   42.30    2.50
   5  -5  -7   41.40    3.20
  -5   5   7   39.70    2.80
  -5   5   7   37.30    2.90
   4  -5  -7   28.00    2.60
   4  -5  -7   28.40    2.00
  -4   5   7   21.70    3.10
  -4   5   7   25.80    2.20
   3  -5  -7    9.30    1.40
   3  -5  -7    8.20    0.90
  -3   5   7   11.10    1.50
  -3   5   7   11.20    1.70
   2  -5  -7   59.39    2.40
   2  -5  -7   60.39    2.70
   2  -5  -7   58.19    2.20
  -2   5   7   57.39    2.70
  -2   5   7   62.29    2.40
  -2   5   7   60.29    3.10
   1  -5  -7  147.89    4.80
   1  -5  -7  152.88    4.90
   1  -5  -7  153.28    4.80
   1  -5  -7  151.68    5.30
  -1   5   7  149.29    5.00
  -1   5   7  135.89    5.50
   0  -5  -7  225.68    7.10
   0  -5  -7  224.68    7.50
   0  -5  -7  225.38    6.90
   0  -5  -7  225.68    7.00
   0   5   7  221.18    7.10
   0   5   7  225.18    7.80
   0   5   7  222.08    6.90
  -1  -5  -7  376.56   11.80
   1   5   7  388.36   12.20
   1   5   7  357.66   11.50
  -2  -5  -7    0.40    1.00
  -2  -5  -7    2.30    1.10
   2   5   7    1.70    1.30
  -3  -5  -7   25.50    2.00
  -3  -5  -7   28.90    2.10
   3   5   7   27.10    2.40
  -4  -5  -7  116.79    4.60
  -4  -5  -7  119.19    4.90
   4   5   7  115.19    5.10
  -5  -5  -7   16.80    2.30
  -5  -5  -7   14.10    1.80
   5   5   7   17.60    2.40
  -6  -5  -7   12.50    2.40
   6   5   7   13.60    2.40
  -7  -5  -7   11.60    2.70
   5  -7  -8   11.00    2.50
  -5   7   8   12.90    2.40
   4  -7  -8   12.70    1.90
   4  -7  -8   14.50    2.10
  -4   7   8   18.40    2.10
  -4   7   8   13.60    2.20
   3  -7  -8    8.20    1.50
   3  -7  -8    6.20    1.40
  -3   7   8   10.70    2.20
  -3   7   8    8.30    1.50
  -3   7   8    5.60    1.50
   2  -7  -8    5.90    1.20
   2  -7  -8    7.30    1.50
  -2   7   8    5.40    1.30
  -2   7   8    8.00    1.90
   1  -7  -8   85.59    3.30
   1  -7  -8   82.59    3.30
   1  -7  -8   90.59    4.00
  -1   7   8   81.79    3.30
  -1   7   8   80.09    4.20
   0  -7  -8  131.09    5.10
   0  -7  -8  128.29    4.20
   0  -7  -8  129.09    4.60
   0   7   8  124.09    5.50
  -1  -7  -8   76.89    3.80
  -1  -7  -8   78.19    3.40
   1   7   8   83.89    4.40
  -2  -7  -8   58.09    3.00
  -2  -7  -8   55.19    3.10
   2   7   8   59.59    3.70
  -3  -7  -8   21.90    2.60
  -3  -7  -8   28.50    2.20
   3   7   8   27.20    2.80
  -4  -7  -8   78.79    3.90
  -4  -7  -8   80.89    3.90
   4   7   8   78.09    4.40
  -5  -7  -8    3.00    1.80
   5   7   8    5.60    2.30
  -6  -7  -8   26.40    3.00
   4  -9  -9   15.90    2.40
   3  -9  -9   19.80    2.40
   3  -9  -9   21.50    2.50
  -3   9   9   29.60    2.70
  -3   9   9   23.90    3.10
   2  -9  -9    0.60    1.40
   2  -9  -9   -0.10    1.50
  -2   9   9    0.10    2.20
  -2   9   9    1.10    1.40
   1  -9  -9    6.80    1.50
   1  -9  -9    5.90    1.60
  -1   9   9    4.00    2.10
   0  -9  -9   26.90    2.70
   0  -9  -9   25.10    2.10
   0   9   9   23.00    2.90
  -1  -9  -9   73.19    3.50
  -1  -9  -9   75.19    4.10
   1   9   9   72.89    4.50
  -2  -9  -9   21.70    2.40
  -2  -9  -9   22.00    2.20
   2   9   9   24.40    3.50
  -3  -9  -9   43.20    3.20
  -3  -9  -9   37.80    2.90
   3   9   9   43.50    4.00
  -4  -9  -9    0.60    1.90
  -4  -9  -9   -0.70    2.00
   4   9   9    4.20    2.60
  -5  -9  -9   52.09    3.90
  -5  -9  -9   55.79    3.80
   0  11  10    5.10    3.00
   1  11  10   21.00    3.60
   2  10   0  107.79    5.40
  -2 -10   0  108.79    5.60
   1  10   0    6.80    2.00
  -1 -10   0    2.50    2.50
   0  10   0    1.00    1.80
   0 -10   0   -0.90    2.20
  -1  10   0    6.80    2.10
   1 -10   0   14.50    2.70
   1 -10   0   10.30    2.00
  -2  10   0   15.70    2.60
   2 -10   0   14.50    2.50
   2 -10   0   19.10    2.50
   2 -10   0   18.00    2.90
   3 -10   0   21.70    2.80
   5   8  -1   15.10    2.60
  -5  -8   1   16.10    3.10
   4   8  -1   55.99    3.30
   4   8  -1   56.09    3.40
  -4  -8   1   56.79    3.90
   3   8  -1   31.90    2.80
   3   8  -1   30.90    2.30
  -3  -8   1   29.30    3.00
   2   8  -1  117.49    4.70
   2   8  -1  113.19    5.20
  -2  -8   1  120.99    5.50
  -2  -8   1  116.69    4.60
   1   8  -1   17.70    2.20
   1   8  -1   18.60    1.60
  -1  -8   1   18.40    2.40
  -1  -8   1   15.30    2.10
   0   8  -1  161.18    5.60
   0   8  -1  170.78    6.50
   0  -8   1  170.18    6.30
   0  -8   1  173.28    7.00
  -1   8  -1    1.70    1.60
   1  -8   1    3.80    1.40
   1  -8   1    3.30    1.80
  -2   8  -1  167.98    7.20
  -2   8  -1  176.98    6.50
   2  -8   1  168.08    6.70
   2  -8   1  183.28    5.90
   2  -8   1  172.48    7.30
  -3   8  -1   18.70    2.90
  -3   8  -1   15.10    2.00
   3  -8   1   14.00    2.80
   3  -8   1   15.80    1.70
   3  -8   1   12.30    2.20
  -4   8  -1    2.90    2.70
   4  -8   1   -1.00    1.70
  -5   8  -1   20.10    3.50
   5  -8   1   17.40    3.30
   7   6  -2   27.10    4.20
   6   6  -2   16.40    3.00
   6   6  -2   15.10    2.30
  -6  -6   2   16.70    2.80
   5   6  -2   15.10    2.10
   5   6  -2   15.00    2.40
  -5  -6   2   18.20    2.80
  -5  -6   2   17.50    1.70
   4   6  -2   41.80    3.00
   4   6  -2   43.40    2.80
  -4  -6   2   45.90    3.40
  -4  -6   2   43.00    2.20
   3   6  -2   30.50    2.10
   3   6  -2   28.70    2.40
  -3  -6   2   30.90    2.80
  -3  -6   2   32.40    2.00
   2   6  -2   23.20    1.70
   2   6  -2   23.40    2.20
  -2  -6   2   23.20    1.40
  -2  -6   2   26.30    2.50
  -2  -6   2   22.70    1.90
   1   6  -2  166.98    5.40
   1   6  -2  155.68    5.90
  -1  -6   2  158.78    6.20
  -1  -6   2  162.88    6.10
  -1  -6   2  153.68    5.10
   0   6  -2 1518.15   43.60
   0   6  -2 1486.15   42.80
   0  -6   2 1529.75   43.60
   0  -6   2 1434.36   43.90
   0  -6   2 1441.66   42.80
  -1   6  -2    6.30    1.80
  -1   6  -2    5.70    1.30
   1  -6   2    6.00    1.40
   1  -6   2    5.00    0.70
   1  -6   2    5.60    1.70
  -2   6  -2  176.48    6.10
  -2   6  -2  174.98    7.00
   2  -6   2  175.58    6.90
   2  -6   2  171.28    6.00
   2  -6   2  178.78    5.90
   2  -6   2  179.88    6.50
  -3   6  -2   38.50    2.10
  -3   6  -2   34.40    3.20
   3  -6   2   37.60    2.80
   3  -6   2   39.90    3.20
   3  -6   2   41.30    2.20
  -4   6  -2    8.80    1.20
  -4   6  -2    9.80    2.80
   4  -6   2    7.40    1.90
   4  -6   2    9.00    1.10
   4  -6   2    8.50    1.60
  -5   6  -2   41.80    3.80
   5  -6   2   40.10    3.00
   5  -6   2   35.40    2.60
  -6   6  -2    7.60    2.90
   6  -6   2    4.90    2.20
   7   4  -3    1.90    2.40
  -7  -4   3    4.20    2.70
   6   4  -3   22.80    2.00
   6   4  -3   17.20    2.60
  -6  -4   3   23.80    2.90
   5   4  -3   63.09    3.50
   5   4  -3   62.79    3.10
  -5  -4   3   66.69    3.80
  -5  -4   3   63.59    3.00
   4   4  -3   40.50    2.50
   4   4  -3   42.20    2.60
  -4  -4   3   40.10    2.30
  -4  -4   3   42.20    3.10
   3   4  -3   13.10    1.60
   3   4  -3   14.70    1.50
  -3  -4   3   12.90    1.50
  -3  -4   3   15.50    2.00
   2   4  -3  666.33   19.00
   2   4  -3  575.94   19.20
   2   4  -3  632.04   19.30
  -2  -4   3  650.93   18.90
  -2  -4   3  664.43   19.60
  -2  -4   3  654.33   19.30
   1   4  -3   88.49    3.30
   1   4  -3   76.69    2.90
  -1  -4   3   87.99    2.90
  -1  -4   3   91.29    3.80
  -1  -4   3   93.09    3.70
   0   4  -3  206.78    6.90
   0   4  -3  212.28    6.80
   0  -4   3  198.98    7.20
   0  -4   3  221.18    7.00
  -1   4  -3  215.98    7.00
  -1   4  -3  221.68    7.60
   1  -4   3  221.78    6.60
   1  -4   3  214.48    7.20
   1  -4   3  220.78    7.60
   1  -4   3  219.88    7.20
   1  -4   3  212.48    6.50
  -2   4  -3  569.24   18.00
  -2   4  -3  575.94   17.20
   2  -4   3  589.94   17.20
   2  -4   3  588.34   17.70
   2  -4   3  557.74   17.10
   2  -4   3  591.24   17.00
  -3   4  -3   10.70    2.00
  -3   4  -3   10.90    0.90
   3  -4   3   13.00    1.10
   3  -4   3   11.00    1.30
   3  -4   3   11.60    1.00
   3  -4   3   10.70    1.70
  -4   4  -3  190.48    6.00
  -4   4  -3  203.58    7.50
   4  -4   3  196.88    6.60
   4  -4   3  198.08    7.10
   4  -4   3  184.48    6.00
  -5   4  -3   12.80    2.50
   5  -4   3   11.80    1.90
   5  -4   3    9.80    1.90
  -6   4  -3    0.70    2.10
   6  -4   3    4.10    1.80
   6  -4   3    7.10    1.90
  -7   4  -3    6.90    2.80
   7  -4   3    9.40    2.40
   7  -4   3    8.10    2.80
  -8  -2   4    6.80    2.40
   7   2  -4   -0.10    2.20
  -7  -2   4    1.40    2.30
  -7  -2   4    1.00    1.80
   6   2  -4   10.60    2.20
   6   2  -4   11.10    1.50
  -6  -2   4   11.00    1.80
  -6  -2   4   11.80    2.30
   5   2  -4   61.19    2.80
   5   2  -4   66.69    3.50
  -5  -2   4   64.89    3.20
  -5  -2   4   65.89    3.60
   4   2  -4    2.50    1.30
   4   2  -4    2.80    1.00
  -4  -2   4    3.70    1.10
  -4  -2   4    4.30    1.60
   3   2  -4   67.29    2.80
   3   2  -4   71.09    2.90
  -3  -2   4   72.09    3.20
  -3  -2   4   66.09    2.90
   2   2  -4   27.30    1.70
   2   2  -4   28.40    1.50
   2   2  -4   24.60    1.50
   2   2  -4   27.70    1.70
  -2  -2   4   30.40    1.90
  -2  -2   4   26.50    1.30
  -2  -2   4   26.20    1.50
  -2  -2   4   27.90    1.80
   1   2  -4   37.00    1.90
   1   2  -4   39.70    1.80
   1   2  -4   37.70    2.00
   1   2  -4   37.40    1.40
  -1  -2   4   35.20    1.80
  -1  -2   4   33.00    2.10
  -1  -2   4   38.90    1.90
   0   2  -4 3472.95   96.59
   0   2  -4 3236.98   96.49
   0   2  -4 3437.66   96.59
   0  -2   4 3360.46   96.39
   0  -2   4 3219.38   96.59
   0  -2   4 3358.56   96.59
   0  -2   4 3396.46   98.09
  -1   2  -4  407.46   11.90
  -1   2  -4  403.66   12.10
  -1   2  -4  382.96   12.70
  -1   2  -4  409.26   11.70
   1  -2   4  407.56   12.20
   1  -2   4  395.46   11.60
   1  -2   4  396.06   11.90
   1  -2   4  385.76   12.20
  -2   2  -4    7.00    0.80
  -2   2  -4    7.00    1.30
  -2   2  -4    7.20    0.80
  -2   2  -4    7.60    0.80
   2  -2   4    7.20    1.10
   2  -2   4    8.20    0.90
   2  -2   4    6.10    0.90
  -3   2  -4    1.10    0.40
  -3   2  -4    0.70    1.10
  -3   2  -4    0.90    0.70
   3  -2   4    0.40    0.90
   3  -2   4    0.00    0.40
   3  -2   4    0.60    0.90
  -4   2  -4    5.40    1.60
   4  -2   4    4.30    1.40
   4  -2   4    5.40    1.30
  -5   2  -4   37.00    2.70
  -5   2  -4   39.90    2.90
   5  -2   4   39.70    2.60
   5  -2   4   39.50    2.70
  -6   2  -4   42.30    3.10
  -6   2  -4   33.50    2.70
   6  -2   4   38.50    2.90
   6  -2   4   36.00    2.80
  -7   2  -4    9.90    2.80
  -7   2  -4   12.90    2.30
   7  -2   4    9.70    2.00
   7  -2   4    9.90    2.30
  -8   0   5   19.60    3.40
   7   0  -5    5.00    2.30
  -7   0   5    4.80    1.90
  -7   0   5    4.10    2.30
   6   0  -5   19.30    2.70
   6   0  -5   12.30    1.50
  -6   0   5   12.50    2.00
   5   0  -5   36.50    2.80
   5   0  -5   31.60    1.80
  -5   0   5   33.50    2.40
  -5   0   5   36.60    2.60
   4   0  -5   63.09    3.10
   4   0  -5   63.29    2.60
  -4   0   5   59.69    2.60
  -4   0   5   62.39    3.00
  -4   0   5   59.59    2.90
   3   0  -5  535.45   15.60
   3   0  -5  517.15   15.80
   3   0  -5  503.25   15.60
  -3   0   5  505.35   15.80
  -3   0   5  526.85   15.70
  -3   0   5  526.25   15.70
   2   0  -5    6.90    1.10
   2   0  -5    5.90    0.80
   2   0  -5    4.40    0.80
   2   0  -5    6.50    0.90
   2   0  -5    8.10    1.30
  -2   0   5    7.30    1.00
  -2   0   5    5.60    1.10
  -2   0   5    7.20    1.10
   1   0  -5    0.90    0.50
   1   0  -5    1.10    0.40
   1   0  -5    0.60    0.70
   1   0  -5    0.80    0.80
  -1   0   5    1.30    0.70
  -1   0   5    0.80    0.50
  -1   0   5    0.70    0.90
  -1   0   5    0.80    0.60
   0   0  -5  274.77    8.20
   0   0  -5  274.77    8.50
   0   0  -5  275.17    8.20
   0   0   5  278.47    8.60
   0   0   5  282.87    8.20
   0   0   5  262.17    8.40
   0   0   5  266.87    8.20
   0   0   5  269.27    8.20
  -1   0  -5  853.61   24.50
  -1   0  -5  864.51   24.60
  -1   0  -5  868.81   24.70
  -1   0  -5  855.61   24.40
   1   0   5  858.61   24.60
   1   0   5  789.62   24.50
   1   0   5  838.72   24.50
   1   0   5  796.62   24.40
  -2   0  -5 1411.96   40.50
  -2   0  -5 1328.77   41.40
  -2   0  -5 1387.16   40.40
  -2   0  -5 1373.36   40.50
   2   0   5 1381.56   40.50
   2   0   5 1411.36   40.40
   2   0   5 1415.36   41.70
   2   0   5 1454.65   40.30
  -3   0  -5  185.08    5.90
  -3   0  -5  184.48    6.40
   3   0   5  191.98    6.30
   3   0   5  192.98    5.80
   3   0   5  195.58    6.30
   3   0   5  187.68    6.10
  -4   0  -5   82.79    3.60
  -4   0  -5   79.89    2.60
  -4   0  -5   74.29    2.70
   4   0   5   80.09    3.30
   4   0   5   86.09    3.60
  -5   0  -5   32.30    2.20
  -5   0  -5   31.10    2.50
   5   0   5   32.80    2.60
   5   0   5   30.70    2.10
  -6   0  -5    7.50    1.90
  -6   0  -5   12.20    2.30
   6   0   5    9.60    1.70
   6   0   5   11.60    2.20
  -7   0  -5   35.70    3.40
  -7   0  -5   23.90    2.70
   7   0   5   27.50    2.90
   7   0   5   36.80    2.60
   8   0   5   27.40    2.90
  -8   2   6   25.70    4.00
   7  -2  -6    3.90    2.60
  -7   2   6    7.70    2.00
  -7   2   6   11.00    2.50
   6  -2  -6    1.90    2.00
  -6   2   6    3.60    1.60
  -6   2   6    7.60    1.90
   5  -2  -6   23.60    2.50
   5  -2  -6   23.80    1.60
  -5   2   6   18.90    2.80
  -5   2   6   22.50    2.10
   4  -2  -6  161.38    5.90
   4  -2  -6  151.48    5.30
  -4   2   6  153.88    5.80
  -4   2   6  154.98    5.10
  -4   2   6  160.28    5.60
   3  -2  -6  191.18    6.60
   3  -2  -6  186.18    6.00
   3  -2  -6  192.38    6.30
  -3   2   6  182.18    6.40
  -3   2   6  190.98    6.10
  -3   2   6  188.98    6.10
   2  -2  -6    3.20    0.80
   2  -2  -6    4.00    1.10
   2  -2  -6    3.60    0.60
  -2   2   6    3.40    0.60
  -2   2   6    2.90    0.90
  -2   2   6    3.30    1.00
  -2   2   6    3.40    0.60
   1  -2  -6  362.46   10.90
   1  -2  -6  368.26   11.10
  -1   2   6  342.47   11.50
  -1   2   6  370.36   11.00
   0  -2  -6  144.99    5.10
   0  -2  -6  152.48    5.10
   0  -2  -6  160.28    4.90
   0   2   6  150.08    4.90
   0   2   6  161.88    5.30
   0   2   6  148.19    5.00
  -1  -2  -6   13.40    1.10
  -1  -2  -6   11.70    0.80
  -1  -2  -6   14.60    0.90
  -1  -2  -6   15.50    1.20
   1   2   6    9.70    1.00
   1   2   6   13.00    0.90
   1   2   6   11.10    0.90
  -2  -2  -6 2183.68   64.99
  -2  -2  -6 2256.87   64.49
  -2  -2  -6 2236.38   64.69
  -2  -2  -6 2131.19   64.99
  -2  -2  -6 2215.18   64.89
   2   2   6 2261.67   64.89
   2   2   6 2249.77   64.49
   2   2   6 2360.96   64.79
   2   2   6 2287.77   64.79
   2   2   6 2264.17   64.59
  -3  -2  -6  227.68    7.30
  -3  -2  -6  221.48    7.00
   3   2   6  220.98    7.00
   3   2   6  219.28    7.40
   3   2   6  221.58    6.90
   3   2   6  231.38    7.00
  -4  -2  -6  351.16   10.90
  -4  -2  -6  323.57   11.00
  -4  -2  -6  331.17   10.20
   4   2   6  345.77   10.40
   4   2   6  338.27   10.90
   4   2   6  335.57   10.30
  -5  -2  -6   68.49    3.70
   5   2   6   69.79    3.00
   5   2   6   74.79    3.70
  -6  -2  -6    5.10    1.80
   6   2   6    4.20    2.00
   6   2   6    8.20    1.50
  -7  -2  -6   46.20    3.60
   7   2   6   45.60    3.60
   7  -4  -7   12.60    2.70
  -7   4   7   17.20    3.20
   6  -4  -7   19.50    2.90
  -6   4   7   16.60    2.40
  -6   4   7   18.80    2.60
   5  -4  -7    2.20    1.70
   5  -4  -7    0.80    1.20
  -5   4   7    2.60    1.40
  -5   4   7    0.30    1.50
   4  -4  -7    1.20    1.20
   4  -4  -7    1.70    1.60
  -4   4   7    3.30    1.40
  -4   4   7    3.00    1.20
   3  -4  -7   72.79    3.10
   3  -4  -7   68.89    2.60
  -3   4   7   69.99    3.20
   2  -4  -7  492.55   14.70
   2  -4  -7  508.85   15.20
  -2   4   7  504.15   14.90
  -2   4   7  505.45   15.60
  -2   4   7  491.75   15.20
   1  -4  -7  123.99    4.10
   1  -4  -7  126.99    3.80
   1  -4  -7  114.69    3.80
   1  -4  -7  127.29    4.40
  -1   4   7  109.99    4.60
  -1   4   7  122.79    4.20
   0  -4  -7   37.30    1.50
   0  -4  -7   34.50    1.40
   0  -4  -7   37.70    2.00
   0  -4  -7   37.90    1.50
   0   4   7   37.10    1.50
   0   4   7   35.00    1.50
   0   4   7   38.60    2.30
  -1  -4  -7   34.10    1.90
  -1  -4  -7   33.60    1.60
   1   4   7   32.90    1.50
   1   4   7   32.40    1.20
   1   4   7   34.60    2.20
  -2  -4  -7    9.50    1.30
  -2  -4  -7   10.60    1.20
   2   4   7    7.60    1.40
   2   4   7    7.90    0.90
  -3  -4  -7  152.78    5.40
  -3  -4  -7  153.48    5.40
   3   4   7  148.49    5.60
  -4  -4  -7   81.39    3.70
  -4  -4  -7   82.39    3.40
   4   4   7   79.89    2.70
   4   4   7   78.39    3.80
   4   4   7   80.29    2.70
  -5  -4  -7   16.00    4.00
  -5  -4  -7    9.90    1.50
   5   4   7   12.80    2.20
  -6  -4  -7   51.99    3.60
   6   4   7   55.79    3.70
  -7  -4  -7   17.20    2.90
   7   4   7   15.20    2.80
   6  -6  -8   -2.80    2.30
  -6   6   8    1.40    2.00
   5  -6  -8   36.10    3.20
  -5   6   8   38.10    2.70
  -5   6   8   39.10    3.00
   4  -6  -8    6.40    1.50
  -4   6   8    9.50    1.90
  -4   6   8   11.80    1.80
   3  -6  -8   33.20    2.30
   3  -6  -8   32.00    2.10
  -3   6   8   34.90    2.40
  -3   6   8   33.90    2.10
  -3   6   8   37.50    2.80
   2  -6  -8   31.50    1.80
   2  -6  -8   34.10    2.20
   2  -6  -8   32.10    1.50
  -2   6   8   30.00    2.00
  -2   6   8   29.30    2.50
   1  -6  -8   86.39    3.00
   1  -6  -8   80.19    2.90
   1  -6  -8   85.49    3.60
   1  -6  -8   79.79    2.90
  -1   6   8   81.89    3.20
  -1   6   8   71.39    3.90
   0  -6  -8  802.82   23.80
   0  -6  -8  809.82   24.30
   0  -6  -8  793.22   23.50
   0   6   8  802.32   24.70
   0   6   8  816.02   23.50
  -1  -6  -8  130.69    5.00
  -1  -6  -8  136.69    4.70
   1   6   8  134.59    5.70
   1   6   8  125.59    5.10
  -2  -6  -8  622.14   18.50
  -2  -6  -8  587.04   18.70
   2   6   8  621.14   19.20
  -3  -6  -8   72.69    3.50
  -3  -6  -8   74.99    3.50
   3   6   8   73.39    3.80
  -4  -6  -8   57.19    3.20
  -4  -6  -8   55.89    3.10
   4   6   8   58.69    3.50
  -5  -6  -8   70.99    3.80
  -5  -6  -8   68.59    4.00
   5   6   8   70.79    4.00
  -6  -6  -8    6.00    2.30
   6   6   8    4.40    2.30
   5  -8  -9   16.90    2.50
   5  -8  -9   18.70    3.00
  -5   8   9   13.00    2.40
   4  -8  -9    8.40    1.80
   4  -8  -9    9.20    1.80
  -4   8   9    8.40    2.10
   3  -8  -9    3.00    1.50
   3  -8  -9    5.60    1.50
  -3   8   9    7.70    2.20
  -3   8   9    5.10    1.70
   2  -8  -9    5.00    1.20
   2  -8  -9    5.90    1.60
   2  -8  -9    6.90    1.30
  -2   8   9    5.50    1.40
  -2   8   9    9.50    2.10
   1  -8  -9   64.19    2.90
   1  -8  -9   67.39    2.90
   1  -8  -9   70.99    3.60
  -1   8   9   67.39    2.90
  -1   8   9   57.89    3.80
   0  -8  -9   53.79    2.70
   0  -8  -9   60.69    2.80
   0  -8  -9   57.89    3.40
   0   8   9   53.79    3.70
  -1  -8  -9   46.10    2.60
  -1  -8  -9   44.90    3.00
   1   8   9   42.50    3.50
  -2  -8  -9   27.60    2.30
  -2  -8  -9   30.50    2.60
   2   8   9   28.30    3.20
  -3  -8  -9   13.10    2.00
  -3  -8  -9   13.50    2.30
   3   8   9   14.20    2.60
  -4  -8  -9   34.50    2.90
  -4  -8  -9   32.60    2.70
   4   8   9   31.70    3.30
  -5  -8  -9   20.10    2.80
  -5  -8  -9   24.10    2.80
   5   8   9   26.80    3.30
   3 -10 -10   13.20    2.50
  -3  10  10   13.00    3.00
   2 -10 -10   -0.60    1.80
  -2  10  10   -3.70    2.50
   1 -10 -10    6.40    2.00
  -1  10  10    9.70    2.50
   0 -10 -10   30.00    3.00
   0  10  10   19.30    3.40
  -1 -10 -10   55.39    3.80
   1  10  10   57.79    4.30
  -2 -10 -10   13.50    2.30
   2  10  10   10.70    3.00
  -3 -10 -10    0.00    2.60
   3  10  10    1.60    3.10
  -1  11   0   85.99    6.60
   1 -11   0   95.89    5.50
  -2  11   0    5.60    2.10
   2 -11   0    3.70    2.30
   4   9  -1   18.70    2.80
  -4  -9   1   25.10    3.70
   3   9  -1  165.18    6.80
  -3  -9   1  163.68    7.20
   2   9  -1   21.60    2.50
  -2  -9   1   16.10    2.80
   1   9  -1    1.70    1.60
  -1  -9   1    1.80    1.70
  -1  -9   1    3.80    2.10
   0   9  -1   16.00    2.50
   0  -9   1   14.30    2.90
   0  -9   1   14.60    2.00
  -1   9  -1   16.60    2.30
   1  -9   1   18.50    2.20
   1  -9   1   15.60    2.70
  -2   9  -1   22.00    2.50
   2  -9   1   20.30    2.90
   2  -9   1   23.50    2.50
  -3   9  -1   23.60    3.50
  -3   9  -1   23.50    2.40
   3  -9   1   27.70    2.30
   3  -9   1   23.40    2.60
   3  -9   1   24.80    3.20
  -4   9  -1    5.30    2.80
   4  -9   1   10.70    3.00
   4  -9   1    0.70    2.20
   6   7  -2   13.40    2.50
   6   7  -2   17.40    2.50
   5   7  -2   49.30    3.30
   5   7  -2   44.40    3.20
  -5  -7   2   42.80    3.70
   4   7  -2   19.20    2.30
   4   7  -2   12.90    2.20
  -4  -7   2   21.00    2.90
   3   7  -2    4.20    1.40
   3   7  -2    2.40    1.40
  -3  -7   2    5.60    2.10
  -3  -7   2    4.60    1.20
   2   7  -2   55.59    3.30
   2   7  -2   56.59    2.80
  -2  -7   2   55.59    3.90
  -2  -7   2   55.09    3.00
   1   7  -2  913.41   28.60
   1   7  -2  964.20   29.10
  -1  -7   2  969.70   29.50
  -1  -7   2 1004.20   29.20
   0   7  -2    1.20    1.30
   0   7  -2    0.20    0.60
   0  -7   2    0.30    1.20
   0  -7   2    0.40    1.50
  -1   7  -2  341.47   11.00
   1  -7   2  323.57   11.60
   1  -7   2  339.77   11.10
  -2   7  -2   17.40    1.90
   2  -7   2   10.40    1.90
   2  -7   2   15.20    2.00
  -3   7  -2   -2.30    2.20
  -3   7  -2    1.70    1.20
   3  -7   2   -0.50    1.60
   3  -7   2    4.60    1.20
   3  -7   2    4.50    2.10
  -4   7  -2   27.90    3.50
   4  -7   2   27.80    2.10
   4  -7   2   32.20    2.80
   4  -7   2   35.00    3.20
  -5   7  -2   -0.20    2.80
   5  -7   2    0.20    2.00
   7   5  -3    3.80    2.50
   6   5  -3   11.00    2.10
   6   5  -3    5.50    2.10
  -6  -5   3    8.00    1.50
  -6  -5   3    8.70    2.60
   5   5  -3    1.90    1.60
  -5  -5   3   -0.20    1.10
  -5  -5   3    2.90    2.00
   4   5  -3    3.40    1.40
   4   5  -3    2.10    1.30
  -4  -5   3    2.60    1.10
   3   5  -3  188.78    6.50
   3   5  -3  184.58    6.70
  -3  -5   3  188.48    6.50
  -3  -5   3  192.48    7.20
   2   5  -3  150.28    5.50
  -2  -5   3  137.49    5.30
  -2  -5   3  143.19    4.80
  -2  -5   3  152.48    5.80
   1   5  -3  540.55   16.70
   1   5  -3  552.14   16.10
  -1  -5   3  532.65   17.00
  -1  -5   3  555.84   17.00
  -1  -5   3  547.95   16.00
   0   5  -3   76.19    3.30
   0  -5   3   80.19    3.30
   0  -5   3   67.79    3.40
  -1   5  -3   16.00    1.90
  -1   5  -3   17.70    1.50
   1  -5   3   14.70    0.80
   1  -5   3   15.60    1.90
   1  -5   3   14.80    0.80
   1  -5   3   17.00    1.60
  -2   5  -3   78.49    3.30
  -2   5  -3   84.09    4.10
   2  -5   3   81.89    2.90
   2  -5   3   78.99    2.90
   2  -5   3   80.49    4.00
   2  -5   3   80.79    3.60
  -3   5  -3   34.20    1.90
  -3   5  -3   35.80    3.00
   3  -5   3   34.00    1.90
   3  -5   3   30.70    1.80
   3  -5   3   37.40    2.50
  -4   5  -3   97.89    6.80
  -4   5  -3  108.49    4.60
   4  -5   3  118.99    5.00
   4  -5   3  117.09    4.40
  -5   5  -3    8.10    2.50
   5  -5   3   -0.10    1.60
   5  -5   3    2.10    1.60
  -6   5  -3    2.70    2.70
   6  -5   3    1.60    1.80
   6  -5   3    1.50    1.90
   7  -5   3   -4.40    2.30
   7   3  -4   13.60    2.70
  -7  -3   4   15.80    2.90
  -7  -3   4   11.70    2.10
   6   3  -4   34.90    2.20
   6   3  -4   28.00    2.90
  -6  -3   4   29.50    3.10
  -6  -3   4   30.20    2.30
   5   3  -4   18.10    2.30
   5   3  -4   15.70    1.70
  -5  -3   4   16.60    2.40
  -5  -3   4   14.60    1.80
   4   3  -4    3.90    1.20
   4   3  -4    5.40    1.40
  -4  -3   4    2.80    1.10
  -4  -3   4    4.00    1.80
   3   3  -4  178.38    6.00
   3   3  -4  174.28    6.10
  -3  -3   4  178.48    6.10
  -3  -3   4  186.88    6.60
   2   3  -4    4.60    1.00
   2   3  -4    5.60    1.10
   2   3  -4    4.60    0.80
  -2  -3   4    2.70    0.60
  -2  -3   4    3.20    1.20
  -2  -3   4    4.20    1.20
   1   3  -4 3442.56  100.89
   1   3  -4 3185.28  101.09
   1   3  -4 3517.25  100.99
  -1  -3   4 3651.53  100.69
  -1  -3   4 3540.35  101.29
  -1  -3   4 3711.53  101.29
   0   3  -4  327.47    9.80
   0   3  -4  305.07    9.60
   0  -3   4  300.57    9.90
   0  -3   4  316.97    9.80
   0  -3   4  311.87    9.60
   0  -3   4  294.87    9.80
  -1   3  -4  512.45   15.30
  -1   3  -4  482.35   15.40
  -1   3  -4  527.95   15.80
   1  -3   4  506.45   15.20
   1  -3   4  517.25   15.80
   1  -3   4  520.45   15.50
  -2   3  -4   36.10    1.60
  -2   3  -4   34.30    2.40
   2  -3   4   33.60    1.60
   2  -3   4   35.10    1.50
   2  -3   4   36.50    2.10
  -3   3  -4   40.90    1.70
  -3   3  -4   41.30    2.70
   3  -3   4   41.10    2.40
   3  -3   4   40.50    1.70
   3  -3   4   41.10    2.00
  -4   3  -4   96.79    4.40
   4  -3   4   96.49    4.20
   4  -3   4   96.59    3.90
  -5   3  -4   29.10    2.80
   5  -3   4   33.30    2.70
   5  -3   4   33.20    2.40
  -6   3  -4   20.30    2.70
   6  -3   4   23.20    2.50
   6  -3   4   20.30    2.30
  -7   3  -4   10.60    2.60
   7  -3   4    5.70    2.10
   7   1  -5    0.40    2.30
  -7  -1   5    3.80    2.20
  -7  -1   5    4.10    1.80
   6   1  -5   13.20    1.40
   6   1  -5   16.90    2.60
  -6  -1   5   17.40    2.10
  -6  -1   5   15.40    2.50
   5   1  -5   20.60    2.40
   5   1  -5   20.40    1.50
  -5  -1   5   15.10    2.00
  -5  -1   5   21.40    2.30
   4   1  -5   42.70    2.20
   4   1  -5   44.70    2.60
  -4  -1   5   45.30    2.60
  -4  -1   5   45.70    2.50
   3   1  -5  129.19    4.60
   3   1  -5  130.69    4.60
  -3  -1   5  132.89    4.70
  -3  -1   5  123.59    4.70
   2   1  -5   14.60    1.20
   2   1  -5   12.00    1.40
   2   1  -5   12.30    1.00
   2   1  -5   13.00    1.10
  -2  -1   5   12.90    1.40
  -2  -1   5   12.90    1.20
  -2  -1   5   11.60    1.40
   1   1  -5 6077.29  169.38
   1   1  -5 5903.81  170.18
   1   1  -5 6081.49  169.88
   1   1  -5 5751.02  169.98
  -1  -1   5 5527.35  171.38
  -1  -1   5 5978.20  169.78
  -1  -1   5 5949.40  170.98
   0   1  -5  183.18    5.80
   0   1  -5  173.98    5.70
   0   1  -5  171.98    5.30
   0   1  -5  163.78    5.80
   0  -1   5  189.48    5.70
   0  -1   5  157.48    5.30
   0  -1   5  187.08    5.70
   0  -1   5  182.58    5.90
  -1   1  -5  493.75   14.40
  -1   1  -5  494.45   14.00
  -1   1  -5  480.95   15.10
   1  -1   5  499.95   14.30
   1  -1   5  468.75   13.90
   1  -1   5  428.46   14.40
  -2   1  -5   65.39    2.60
  -2   1  -5   68.19    2.50
  -2   1  -5   65.89    2.80
  -2   1  -5   66.99    2.40
   2  -1   5   65.79    2.60
   2  -1   5   65.49    2.50
   2  -1   5   64.69    2.40
   2  -1   5   64.09    2.70
   2  -1   5   67.09    2.80
  -3   1  -5  359.36   10.80
  -3   1  -5  355.96   11.10
  -3   1  -5  354.66   11.40
   3  -1   5  368.36   10.80
   3  -1   5  370.76   11.20
   3  -1   5  364.86   11.40
  -4   1  -5   71.09    3.40
   4  -1   5   73.79    3.30
   4  -1   5   72.39    3.20
  -5   1  -5    5.50    1.90
   5  -1   5    3.70    1.60
   5  -1   5    2.10    1.30
  -6   1  -5   20.00    2.60
   6  -1   5   22.10    2.20
   6  -1   5   22.90    2.50
  -7   1  -5    2.40    2.20
   7  -1   5    3.00    2.20
   7  -1   5    6.90    1.80
   8  -1   5   -0.70    2.90
  -8   1   6    4.70    3.00
   7  -1  -6    1.00    2.20
  -7   1   6    3.50    2.20
  -7   1   6   -2.80    1.70
   6  -1  -6    5.30    2.10
  -6   1   6    2.20    1.40
  -6   1   6    0.80    1.80
   5  -1  -6   34.70    1.90
   5  -1  -6   32.60    2.80
  -5   1   6   30.00    2.50
  -5   1   6   30.10    2.70
   4  -1  -6   82.89    3.20
   4  -1  -6   85.29    3.80
  -4   1   6   81.89    3.60
  -4   1   6   72.29    3.00
  -4   1   6   82.59    3.40
   3  -1  -6  229.48    7.60
   3  -1  -6  247.68    7.80
   3  -1  -6  241.18    7.40
  -3   1   6  236.58    7.80
  -3   1   6  223.38    7.50
   2  -1  -6    5.70    0.70
   2  -1  -6    5.50    0.90
   2  -1  -6    6.40    1.20
   2  -1  -6    5.20    0.90
  -2   1   6    5.50    0.80
  -2   1   6    5.40    1.00
  -2   1   6    4.70    0.90
   1  -1  -6  172.98    5.80
   1  -1  -6  174.38    5.60
   1  -1  -6  178.08    6.00
   1  -1  -6  185.08    6.10
  -1   1   6  172.48    5.90
  -1   1   6  191.08    5.90
  -1   1   6  182.28    5.90
  -1   1   6  185.38    5.40
   0  -1  -6  444.76   12.70
   0  -1  -6  467.45   13.30
   0  -1  -6  457.95   13.20
   0   1   6  431.06   12.70
   0   1   6  451.15   13.20
   0   1   6  442.86   13.20
   0   1   6  413.56   13.10
   0   1   6  392.76   13.00
  -1  -1  -6 9642.04  278.87
  -1  -1  -6 9586.64  277.87
  -1  -1  -6 9544.84  278.37
  -1  -1  -6 9999.00  278.47
   1   1   6 9667.23  277.97
   1   1   6 9537.85  278.77
   1   1   6 9517.05  278.57
   1   1   6 9730.63  278.47
  -2  -1  -6   37.90    1.70
  -2  -1  -6   37.50    1.80
  -2  -1  -6   35.60    1.80
  -2  -1  -6   36.70    1.60
   2   1   6   37.70    1.60
   2   1   6   38.80    1.80
   2   1   6   37.60    1.90
   2   1   6   38.60    1.60
   2   1   6   37.50    1.70
  -3  -1  -6    0.40    0.50
  -3  -1  -6   -1.00    0.90
  -3  -1  -6    0.20    0.60
   3   1   6    1.50    1.00
   3   1   6    1.20    0.50
   3   1   6    1.20    0.40
   3   1   6    1.40    0.80
  -4  -1  -6    1.90    1.30
  -4  -1  -6    0.80    0.60
  -4  -1  -6    2.20    0.60
   4   1   6    3.60    1.00
   4   1   6    1.80    1.30
  -5  -1  -6    3.00    0.80
  -5  -1  -6    2.40    1.60
   5   1   6    1.50    1.10
   5   1   6    1.70    1.60
  -6  -1  -6   51.29    3.30
   6   1   6   47.80    3.50
   6   1   6   51.89    2.80
  -7  -1  -6   11.30    2.40
   7   1   6   12.20    1.90
   7   1   6   14.30    2.70
   7  -3  -7   13.30    2.90
  -7   3   7    9.30    2.90
  -7   3   7    8.10    2.40
   6  -3  -7   10.10    2.30
  -6   3   7    7.90    2.00
  -6   3   7    5.80    1.90
   5  -3  -7   10.40    1.60
   5  -3  -7    8.60    2.10
  -5   3   7    9.40    1.90
  -5   3   7   10.80    1.90
   4  -3  -7   55.99    3.10
   4  -3  -7   54.19    2.70
  -4   3   7   52.69    3.00
  -4   3   7   49.10    2.60
   3  -3  -7   52.59    2.60
   3  -3  -7   46.90    1.90
  -3   3   7   46.30    2.10
  -3   3   7   51.09    2.60
   2  -3  -7  373.66   11.30
   2  -3  -7  365.56   10.80
  -2   3   7  359.96   11.30
  -2   3   7  366.46   11.60
  -2   3   7  358.46   10.80
   1  -3  -7  708.03   20.70
   1  -3  -7  702.73   20.50
  -1   3   7  656.63   20.90
  -1   3   7  713.53   20.60
   0  -3  -7   76.59    2.70
   0  -3  -7   72.09    3.20
   0  -3  -7   76.29    3.00
   0   3   7   78.29    3.30
   0   3   7   74.89    2.70
  -1  -3  -7 1362.86   41.30
  -1  -3  -7 1452.55   41.70
  -1  -3  -7 1334.27   41.30
   1   3   7 1540.15   41.40
   1   3   7 1497.35   41.90
   1   3   7 1399.16   41.20
  -2  -3  -7  307.37    9.10
  -2  -3  -7  307.27    9.60
  -2  -3  -7  295.27    9.70
   2   3   7  303.07    9.10
   2   3   7  309.57    9.20
   2   3   7  322.67    9.60
   2   3   7  309.77    9.80
  -3  -3  -7  893.81   26.40
  -3  -3  -7  892.81   26.20
   3   3   7  887.41   25.80
   3   3   7  889.81   25.80
   3   3   7  879.01   26.50
  -4  -3  -7   36.90    2.00
  -4  -3  -7   35.00    2.40
   4   3   7   36.40    2.50
   4   3   7   35.20    1.50
  -5  -3  -7   25.80    2.40
  -5  -3  -7   19.70    1.60
   5   3   7   18.00    1.50
   5   3   7   21.00    3.20
  -6  -3  -7   28.80    2.90
   6   3   7   31.20    3.00
  -7  -3  -7    9.90    2.60
   7   3   7    8.30    2.40
   6  -5  -8    9.30    2.60
  -6   5   8   14.60    2.60
   5  -5  -8    6.40    1.50
   5  -5  -8    6.10    2.20
  -5   5   8    5.10    1.90
  -5   5   8    7.50    1.80
   4  -5  -8   19.00    2.80
   4  -5  -8   16.80    1.90
  -4   5   8   15.10    1.90
  -4   5   8   17.80    2.20
   3  -5  -8   11.90    1.60
  -3   5   8    9.30    1.30
  -3   5   8    9.90    1.60
  -3   5   8    7.70    1.90
   2  -5  -8  126.89    4.70
   2  -5  -8  126.19    4.10
   2  -5  -8  125.29    4.20
  -2   5   8  127.29    4.70
  -2   5   8  121.89    5.10
  -2   5   8  129.49    4.20
   1  -5  -8    2.60    0.70
   1  -5  -8    3.20    0.50
   1  -5  -8    2.50    0.50
   1  -5  -8    3.50    1.00
  -1   5   8    3.60    0.90
  -1   5   8    1.30    1.30
   0  -5  -8   12.30    1.60
   0  -5  -8   10.90    0.90
   0  -5  -8   13.20    0.90
   0   5   8   13.10    0.90
   0   5   8   12.90    1.70
   0   5   8   10.30    0.80
  -1  -5  -8  861.01   25.80
  -1  -5  -8  916.11   25.40
   1   5   8  898.11   26.40
   1   5   8  788.62   25.50
  -2  -5  -8  146.09    5.10
  -2  -5  -8  143.59    5.30
   2   5   8  141.39    5.50
  -3  -5  -8  205.68    7.00
  -3  -5  -8  198.48    6.90
   3   5   8  195.58    7.20
  -4  -5  -8   50.19    2.90
  -4  -5  -8   46.40    2.70
  -5  -5  -8   69.89    3.80
  -5  -5  -8   69.09    3.30
   5   5   8   73.79    4.10
  -6  -5  -8   12.90    2.50
   6   5   8   10.70    2.30
   5  -7  -9    2.00    2.30
  -5   7   9   -0.60    1.90
   4  -7  -9    2.00    1.50
  -4   7   9    1.50    1.60
   3  -7  -9    3.00    1.20
   3  -7  -9    3.40    1.30
  -3   7   9    1.20    1.10
  -3   7   9    5.40    2.00
  -3   7   9    1.80    1.40
   2  -7  -9   18.70    1.50
   2  -7  -9   20.50    2.10
  -2   7   9   17.30    1.70
   1  -7  -9  308.27   10.00
   1  -7  -9  301.17    9.30
  -1   7   9  295.87    9.40
  -1   7   9  280.87   10.40
   0  -7  -9  125.39    4.60
   0  -7  -9  118.39    4.70
   0  -7  -9  132.89    4.80
   0  -7  -9  134.69    5.20
   0  -7  -9  137.39    4.60
   0   7   9  127.89    5.60
  -1  -7  -9  990.30   30.70
  -1  -7  -9 1014.50   30.10
   1   7   9 1062.99   31.50
  -2  -7  -9    7.80    1.50
  -2  -7  -9    9.30    3.00
  -3  -7  -9   22.50    2.30
  -3  -7  -9   25.20    2.10
   3   7   9   25.90    2.80
  -4  -7  -9  124.19    5.30
  -4  -7  -9  128.39    5.30
   4   7   9  124.79    5.70
  -5  -7  -9   99.29    4.60
  -5  -7  -9   87.89    4.30
   5   7   9   87.89    4.90
  -6  -7  -9    4.00    2.40
   4  -9 -10    0.80    2.10
  -4   9  10    4.20    2.10
   3  -9 -10   -0.60    1.80
  -3   9  10    4.00    1.80
  -3   9  10    0.00    2.30
   2  -9 -10   24.10    2.10
   2  -9 -10   26.50    2.70
  -2   9  10   21.00    3.10
   1  -9 -10   10.40    2.10
  -1   9  10   14.80    2.90
   0  -9 -10   26.60    2.70
   0   9  10   26.40    3.10
  -1  -9 -10   29.70    2.90
  -1  -9 -10   34.90    2.30
   1   9  10   30.80    3.30
  -2  -9 -10    1.90    1.60
  -2  -9 -10    2.40    1.80
   2   9  10   -2.50    2.30
  -3  -9 -10  173.38    7.30
  -3  -9 -10  189.98    6.80
   3   9  10  182.98    8.10
  -4  -9 -10   42.60    3.10
  -4  -9 -10   40.10    3.30
   4   9  10   39.40    3.80
  -5  -9 -10    1.40    2.50
   0  11  11   35.00    4.50
   2  10  -1    7.80    2.00
  -2 -10   1   11.10    2.90
   1  10  -1    5.70    2.00
  -1 -10   1    3.30    2.50
   0  10  -1   55.29    3.90
   0 -10   1   54.99    4.10
  -1  10  -1   16.00    2.70
   1 -10   1   15.10    2.40
  -2  10  -1    1.20    1.90
   2 -10   1    6.50    1.90
   2 -10   1    3.80    2.10
   2 -10   1    4.20    2.60
   5   8  -2   -2.30    1.80
   4   8  -2   32.00    2.90
  -4  -8   2   33.00    3.40
   3   8  -2   28.30    2.80
  -3  -8   2   32.50    3.20
   2   8  -2    3.50    1.60
  -2  -8   2    3.70    1.40
  -2  -8   2    4.30    1.90
   1   8  -2   12.20    2.10
  -1  -8   2   13.30    2.50
  -1  -8   2   11.00    2.00
   0   8  -2  102.49    4.70
   0  -8   2  100.39    5.00
   0  -8   2   99.79    4.50
  -1   8  -2   13.00    2.00
   1  -8   2   15.90    2.60
   1  -8   2   13.70    2.40
  -2   8  -2  145.39    5.80
  -2   8  -2  142.69    6.50
   2  -8   2  145.89    6.00
   2  -8   2  147.99    6.50
  -3   8  -2    0.50    2.10
   3  -8   2    2.40    2.30
  -4   8  -2    5.10    2.90
   4  -8   2    7.20    2.10
   4  -8   2    8.30    2.70
  -5   8  -2    9.10    3.30
   5  -8   2    4.50    2.90
   7   6  -3   12.80    3.60
   6   6  -3   16.80    2.20
   6   6  -3   21.20    3.10
  -6  -6   3   16.30    3.10
   5   6  -3    8.20    1.60
   5   6  -3   13.40    2.50
  -5  -6   3    8.20    2.60
  -5  -6   3    9.30    1.50
   4   6  -3  113.29    4.70
   4   6  -3  114.89    4.90
  -4  -6   3  112.89    4.40
  -4  -6   3  115.19    5.50
   3   6  -3   71.99    3.60
   3   6  -3   64.09    3.10
  -3  -6   3   75.59    3.20
   2   6  -3  431.56   13.60
   2   6  -3  419.46   13.00
  -2  -6   3  429.66   12.80
  -2  -6   3  451.55   14.10
  -2  -6   3  394.26   13.40
   1   6  -3   30.50    1.50
   1   6  -3   28.30    2.20
  -1  -6   3   30.40    2.50
  -1  -6   3   29.30    1.30
  -1  -6   3   28.80    2.50
   0   6  -3  509.15   15.70
   0  -6   3  484.45   16.10
   0  -6   3  519.25   15.80
  -1   6  -3   39.70    2.90
  -1   6  -3   41.00    2.40
   1  -6   3   38.00    1.50
   1  -6   3   37.80    1.50
   1  -6   3   40.80    2.90
   1  -6   3   37.10    2.50
  -2   6  -3   75.29    3.30
  -2   6  -3   74.89    4.10
   2  -6   3   73.09    2.70
   2  -6   3   71.79    3.60
   2  -6   3   77.89    2.80
   2  -6   3   76.29    4.10
  -3   6  -3   44.70    2.30
   3  -6   3   47.10    2.20
   3  -6   3   44.30    3.00
   4  -6   3   11.50    1.70
  -5   6  -3    1.00    2.50
   5  -6   3    2.80    1.70
   5  -6   3   -1.90    1.70
  -6   6  -3   13.50    3.40
   6  -6   3   10.80    2.60
   7   4  -4   14.40    2.80
  -7  -4   4    8.90    2.30
  -7  -4   4   11.90    2.80
   6   4  -4  133.79    5.90
   6   4  -4  135.19    5.90
  -6  -4   4  144.49    6.40
  -6  -4   4  135.49    5.40
   5   4  -4    1.80    1.10
   5   4  -4    2.40    1.60
  -5  -4   4    3.90    1.20
  -5  -4   4    5.10    2.00
   4   4  -4   26.10    2.20
   4   4  -4   25.30    2.10
  -4  -4   4   26.10    2.70
  -4  -4   4   23.90    1.90
   3   4  -4  110.79    4.20
   3   4  -4  107.09    4.40
  -3  -4   4  111.89    4.40
  -3  -4   4  113.09    4.80
   2   4  -4   37.10    1.70
   2   4  -4   36.20    2.20
  -2  -4   4   37.30    1.60
  -2  -4   4   33.50    2.20
  -2  -4   4   39.20    2.50
   1   4  -4   69.59    3.00
   1   4  -4   62.99    2.30
  -1  -4   4   75.09    3.40
  -1  -4   4   67.69    3.30
  -1  -4   4   70.89    2.30
   0   4  -4   29.30    1.80
   0  -4   4   25.40    2.00
   0  -4   4   31.50    2.00
  -1   4  -4    8.30    1.60
  -1   4  -4    6.80    1.20
   1  -4   4    6.30    1.20
   1  -4   4    8.40    1.50
  -2   4  -4  485.15   14.70
  -2   4  -4  501.55   15.60
   2  -4   4  465.85   14.40
   2  -4   4  476.85   14.30
   2  -4   4  515.55   15.20
   2  -4   4  479.45   14.70
  -3   4  -4   78.49    3.00
  -3   4  -4   81.69    4.10
   3  -4   4   76.79    2.90
   3  -4   4   76.29    2.90
   3  -4   4   81.89    3.10
   3  -4   4   80.49    3.70
  -4   4  -4   33.00    2.90
  -4   4  -4   38.50    1.60
   4  -4   4   38.30    3.00
   4  -4   4   39.70    2.30
  -5   4  -4   -2.80    1.90
   5  -4   4   -0.20    1.40
   5  -4   4   -0.50    1.30
  -6   4  -4    8.20    2.40
   6  -4   4    7.30    2.00
   6  -4   4    3.60    1.90
  -7   4  -4    1.40    4.40
   7  -4   4    9.20    2.30
   7   2  -5   21.90    2.80
  -7  -2   5   20.20    2.40
  -7  -2   5   17.80    3.10
   6   2  -5   53.29    2.70
   6   2  -5   56.89    3.60
  -6  -2   5   53.09    3.60
  -6  -2   5   54.39    3.10
   5   2  -5    0.90    1.00
   5   2  -5    1.00    1.60
  -5  -2   5    2.60    1.60
  -5  -2   5    1.30    1.20
   4   2  -5  845.22   25.90
   4   2  -5  876.81   26.10
  -4  -2   5  904.61   26.40
  -4  -2   5  859.51   26.10
   3   2  -5   18.40    1.60
   3   2  -5   19.70    1.50
  -3  -2   5   18.70    1.70
  -3  -2   5   18.00    1.80
   2   2  -5 1264.87   39.60
   2   2  -5 1360.26   39.30
   2   2  -5 1354.96   39.00
   2   2  -5 1249.28   39.20
  -2  -2   5 1417.76   39.50
  -2  -2   5 1416.76   39.40
   1   2  -5  254.67    8.10
   1   2  -5  248.78    7.40
   1   2  -5  243.38    7.80
   1   2  -5  252.97    7.90
   1   2  -5  248.18    7.30
  -1  -2   5  240.88    7.70
  -1  -2   5  239.88    8.30
  -1  -2   5  238.68    8.10
   0   2  -5  734.03   24.90
   0   2  -5  843.12   23.80
   0  -2   5  823.12   23.80
   0  -2   5  859.81   24.10
   0  -2   5  777.92   24.40
  -1   2  -5   38.10    1.90
  -1   2  -5   36.90    1.80
  -1   2  -5   38.60    2.20
   1  -2   5   38.70    1.80
   1  -2   5   37.20    1.80
   1  -2   5   39.40    2.10
  -2   2  -5   63.89    2.40
  -2   2  -5   64.99    2.30
  -2   2  -5   67.09    3.00
   2  -2   5   64.49    2.80
   2  -2   5   60.69    2.40
   2  -2   5   62.69    2.30
  -3   2  -5  209.58    6.50
  -3   2  -5  211.98    6.80
  -3   2  -5  212.78    7.30
   3  -2   5  211.98    6.60
   3  -2   5  219.08    6.90
   3  -2   5  211.18    7.20
  -4   2  -5  245.08    8.70
   4  -2   5  258.87    8.30
   4  -2   5  253.27    8.60
  -5   2  -5   28.20    4.10
   5  -2   5   25.90    2.30
   5  -2   5   28.80    2.40
  -6   2  -5    6.30    2.20
   6  -2   5    6.70    1.70
   6  -2   5    5.00    1.80
  -7   2  -5    8.50    2.60
   7  -2   5    3.20    2.00
   7  -2   5    5.60    2.00
  -8   0   6    8.30    3.10
  -7   0   6    1.60    1.80
  -7   0   6    2.60    2.20
   6   0  -6   61.79    2.60
   6   0  -6   63.89    3.90
  -6   0   6   62.69    5.70
  -6   0   6   58.79    3.50
   5   0  -6   57.39    2.60
   5   0  -6   56.89    3.30
  -5   0   6   56.39    3.20
  -5   0   6   53.69    3.10
   4   0  -6  571.24   16.90
   4   0  -6  564.44   17.30
  -4   0   6  538.45   17.20
  -4   0   6  564.94   17.20
   3   0  -6    5.70    1.20
   3   0  -6    4.20    0.80
   3   0  -6    5.90    1.10
  -3   0   6    5.90    1.20
  -3   0   6    4.60    1.10
   2   0  -6    3.10    0.60
   2   0  -6    2.30    0.70
   2   0  -6    3.40    1.10
   2   0  -6    3.70    1.20
   2   0  -6    4.20    0.80
  -2   0   6    3.90    0.90
  -2   0   6    3.40    0.80
  -2   0   6    2.60    1.00
   1   0  -6  357.96   10.90
   1   0  -6  365.46   11.20
   1   0  -6  340.37   11.50
   1   0  -6  368.06   10.80
  -1   0   6  360.66   10.90
  -1   0   6  371.06   11.30
  -1   0   6  375.36   11.30
  -1   0   6  366.96   10.80
  -1   0   6  368.06   11.00
   0   0  -6   53.69    2.30
   0   0  -6   52.59    2.00
   0   0  -6   54.79    2.00
   0   0  -6   53.09    2.40
   0   0   6   50.29    2.20
   0   0   6   51.19    2.00
   0   0   6   51.89    2.00
   0   0   6   53.89    2.00
  -1   0  -6  694.03   20.10
  -1   0  -6  705.93   19.90
  -1   0  -6  694.93   20.10
  -1   0  -6  699.43   20.00
   1   0   6  642.94   20.00
   1   0   6  653.63   19.80
   1   0   6  658.03   19.90
  -2   0  -6  138.09    4.60
  -2   0  -6  136.49    4.50
  -2   0  -6  137.09    4.70
  -2   0  -6  131.09    4.60
   2   0   6  137.79    4.50
   2   0   6  135.19    4.50
   2   0   6  138.29    4.60
   2   0   6  134.79    4.70
   2   0   6  137.89    4.70
  -3   0  -6   60.79    2.50
  -3   0  -6   64.19    2.50
  -3   0  -6   61.09    2.80
   3   0   6   63.59    2.70
   3   0   6   62.39    2.50
   3   0   6   64.79    2.30
   3   0   6   64.39    2.70
  -4   0  -6   22.40    1.20
  -4   0  -6   24.50    2.10
  -4   0  -6   24.30    1.10
   4   0   6   21.40    1.80
   4   0   6   22.00    1.00
   4   0   6   23.40    1.90
  -5   0  -6  115.69    5.00
   5   0   6  118.29    4.60
   5   0   6  116.49    4.80
  -6   0  -6   46.40    3.40
   6   0   6   48.80    3.20
  -7   0  -6   -1.00    2.20
   7   0   6    0.00    1.70
   7   0   6   -1.50    2.00
  -8   2   7    7.70    4.00
   7  -2  -7    0.10    2.40
  -7   2   7    0.70    2.30
  -7   2   7    4.20    1.90
   6  -2  -7   69.09    4.00
  -6   2   7   64.19    3.70
  -6   2   7   67.59    3.70
   5  -2  -7   15.60    3.60
   5  -2  -7   14.00    1.60
  -5   2   7   15.50    2.10
  -5   2   7   16.10    1.90
   4  -2  -7  350.36   11.20
   4  -2  -7  316.97   10.60
  -4   2   7  339.97   10.70
  -4   2   7  338.87   11.00
   3  -2  -7   26.00    1.90
   3  -2  -7   22.70    1.90
   3  -2  -7   22.30    1.20
  -3   2   7   23.60    1.40
  -3   2   7   22.80    1.80
   2  -2  -7  115.99    3.60
   2  -2  -7  116.89    4.30
  -2   2   7  112.09    4.20
  -2   2   7  109.09    4.10
  -2   2   7  113.79    4.00
  -2   2   7  105.89    3.60
   1  -2  -7   19.90    1.30
   1  -2  -7   21.30    1.60
   1  -2  -7   21.00    1.40
  -1   2   7   19.40    1.20
  -1   2   7   19.60    1.40
  -1   2   7   18.50    1.50
   0  -2  -7 1235.18   36.00
   0  -2  -7 1200.78   36.00
   0  -2  -7 1226.78   35.90
   0   2   7 1249.88   35.80
   0   2   7 1208.48   35.90
   0   2   7 1275.27   36.20
  -1  -2  -7   40.70    1.70
  -1  -2  -7   38.70    2.00
  -1  -2  -7   44.80    2.10
  -1  -2  -7   41.90    1.80
   1   2   7   46.40    1.70
   1   2   7   42.80    2.00
   1   2   7   44.00    2.20
   1   2   7   43.10    1.90
  -2  -2  -7   85.59    3.50
  -2  -2  -7   87.49    3.30
  -2  -2  -7   84.89    3.00
  -2  -2  -7   88.29    3.20
   2   2   7   90.19    3.20
   2   2   7   89.79    3.00
   2   2   7   87.79    3.20
   2   2   7   89.09    3.10
   2   2   7   84.69    3.40
  -3  -2  -7   10.60    0.90
  -3  -2  -7   10.80    1.10
  -3  -2  -7    9.50    1.40
   3   2   7    9.80    1.50
   3   2   7   11.20    0.80
   3   2   7    9.10    0.90
  -4  -2  -7   84.79    3.20
  -4  -2  -7   87.79    3.80
  -4  -2  -7   82.09    3.00
   4   2   7   79.49    3.00
   4   2   7   86.39    3.80
   4   2   7   86.19    3.30
  -5  -2  -7   28.60    1.80
  -5  -2  -7   32.70    2.60
   5   2   7   32.50    2.70
   5   2   7   28.60    1.90
  -6  -2  -7   33.00    2.90
   6   2   7   35.80    2.30
   6   2   7   40.30    3.00
  -7  -2  -7   22.50    2.80
   7   2   7   19.00    2.90
   6  -4  -8   -1.70    2.10
  -6   4   8    1.60    1.70
  -6   4   8    2.60    2.10
   5  -4  -8   10.30    1.60
   5  -4  -8   12.90    2.40
  -5   4   8   11.70    1.90
  -5   4   8   10.40    1.90
   4  -4  -8  406.56   13.20
   4  -4  -8  405.76   12.80
  -4   4   8  396.46   12.90
  -4   4   8  387.46   12.50
   3  -4  -8   51.69    2.70
   3  -4  -8   46.80    2.00
  -3   4   8   49.50    2.60
  -3   4   8   52.79    2.20
   2  -4  -8    5.80    0.60
   2  -4  -8    4.70    0.60
   2  -4  -8    5.00    1.20
  -2   4   8    6.20    0.70
  -2   4   8    6.50    1.20
  -2   4   8    7.90    1.60
   1  -4  -8   41.30    1.90
   1  -4  -8   43.20    2.20
  -1   4   8   37.30    2.40
  -1   4   8   41.90    2.00
   0  -4  -8    6.40    1.20
   0  -4  -8    6.00    0.60
   0  -4  -8    6.00    0.60
   0  -4  -8    5.10    0.80
   0   4   8    4.50    0.50
   0   4   8    4.50    0.70
   0   4   8    6.50    1.40
  -1  -4  -8  391.96   11.40
  -1  -4  -8  364.56   11.30
  -1  -4  -8  376.86   11.90
   1   4   8  390.16   12.20
   1   4   8  382.66   11.50
   1   4   8  381.46   11.20
  -2  -4  -8  486.95   14.90
  -2  -4  -8  499.05   14.70
   2   4   8  488.65   14.70
   2   4   8  473.15   15.10
  -3  -4  -8   17.80    1.70
  -3  -4  -8   18.10    1.70
   3   4   8   15.20    1.90
  -4  -4  -8    3.80    1.50
  -4  -4  -8    2.00    1.10
   4   4   8    5.40    1.70
  -5  -4  -8   32.20    2.00
  -5  -4  -8   32.10    4.40
   5   4   8   30.00    2.70
  -6  -4  -8   69.29    4.10
   6   4   8   67.39    4.00
  -7  -4  -8   38.60    3.60
   7   4   8   38.30    3.70
   6  -6  -9    2.30    2.60
   5  -6  -9    3.30    2.10
  -5   6   9    1.90    1.80
   4  -6  -9    6.10    1.50
  -4   6   9    5.60    1.70
  -4   6   9    6.40    1.50
   3  -6  -9   29.30    1.90
   3  -6  -9   26.70    2.20
  -3   6   9   29.40    2.20
  -3   6   9   26.30    1.70
   2  -6  -9  608.44   17.90
   2  -6  -9  625.24   18.70
   2  -6  -9  596.64   17.80
  -2   6   9  608.84   18.40
  -2   6   9  584.94   19.00
   1  -6  -9   12.60    1.70
   1  -6  -9   12.00    0.90
   1  -6  -9   14.10    0.90
  -1   6   9   11.50    1.30
  -1   6   9   11.50    2.00
   0  -6  -9  503.05   15.50
   0  -6  -9  508.55   15.60
   0  -6  -9  521.65   16.30
   0  -6  -9  539.95   15.50
   0   6   9  538.15   16.70
  -1  -6  -9   36.00    2.40
  -1  -6  -9   38.00    2.00
   1   6   9   33.90    1.80
   1   6   9   39.50    3.10
  -2  -6  -9    4.90    1.20
  -2  -6  -9    4.40    1.50
   2   6   9    5.10    1.70
  -3  -6  -9   81.39    3.60
  -3  -6  -9   78.49    3.70
  -4  -6  -9  137.79    5.40
  -4  -6  -9  141.99    5.60
   4   6   9  137.89    5.90
  -5  -6  -9    1.00    1.80
  -5  -6  -9   -0.70    1.60
   5   6   9   -1.20    1.80
  -6  -6  -9   25.20    2.80
   6   6   9   16.60    2.90
   5  -8 -10   25.20    4.80
   4  -8 -10    2.00    1.70
  -4   8  10    5.70    1.90
   3  -8 -10   14.90    2.10
  -3   8  10   12.60    2.60
  -3   8  10   15.30    2.00
   2  -8 -10   63.79    3.20
   2  -8 -10   71.59    3.70
  -2   8  10   66.09    4.00
  -2   8  10   66.89    3.20
   1  -8 -10   20.20    1.60
   1  -8 -10   20.40    1.50
   1  -8 -10   24.40    2.40
  -1   8  10   19.10    1.60
  -1   8  10   21.40    2.70
   0  -8 -10    6.50    1.20
   0  -8 -10    3.80    1.50
   0   8  10    8.10    2.20
  -1  -8 -10   10.50    1.50
  -1  -8 -10    7.20    1.80
   1   8  10   12.60    2.50
  -2  -8 -10   70.79    3.30
  -2  -8 -10   67.29    3.80
   2   8  10   73.39    4.60
  -3  -8 -10   61.49    3.30
  -3  -8 -10   59.39    3.60
   3   8  10   63.39    4.20
  -4  -8 -10   29.90    2.70
  -4  -8 -10   31.00    2.90
   4   8  10   29.50    3.40
  -5  -8 -10    5.40    2.20
  -5  -8 -10    2.00    1.90
   5   8  10    2.40    2.60
   3 -10 -11    2.10    2.20
   2 -10 -11   42.30    3.30
  -2  10  11   29.90    3.80
   1 -10 -11   27.30    3.00
  -1  10  11   22.20    3.20
   0 -10 -11   -2.60    1.80
   0  10  11    1.30    2.50
  -1 -10 -11    0.40    2.00
   1  10  11    6.70    2.60
  -2 -10 -11   19.70    2.70
   2  10  11   21.40    3.40
   3   9  -2    0.30    1.70
  -3  -9   2    5.50    2.50
   2   9  -2    8.40    1.90
  -2  -9   2    5.50    2.30
   1   9  -2   15.40    2.40
  -1  -9   2   18.20    2.80
  -1  -9   2   11.70    2.20
   0   9  -2   53.29    3.40
   0  -9   2   49.10    3.30
   0  -9   2   56.09    4.00
  -1   9  -2   28.30    2.80
   1  -9   2   23.50    2.90
   1  -9   2   24.90    2.60
  -2   9  -2    4.30    1.60
   2  -9   2    2.80    1.70
   2  -9   2    6.00    2.50
  -3   9  -2    3.30    2.00
  -3   9  -2    4.50    2.80
   3  -9   2    0.40    1.80
   3  -9   2    0.30    1.60
   3  -9   2    1.80    2.50
  -4   9  -2   18.40    4.00
   4  -9   2   18.50    4.00
   5   7  -3   20.80    2.60
  -5  -7   3   21.10    3.20
   4   7  -3   19.30    2.10
   4   7  -3   22.30    2.40
  -4  -7   3   24.90    3.00
  -4  -7   3   21.90    1.80
   3   7  -3  144.39    5.50
   3   7  -3  154.78    6.20
  -3  -7   3  157.48    6.70
  -3  -7   3  156.28    5.70
   2   7  -3    2.00    1.10
   2   7  -3    0.30    1.40
  -2  -7   3    1.10    1.40
  -2  -7   3    1.60    1.80
   1   7  -3   54.99    2.10
  -1  -7   3   55.59    3.20
   0   7  -3   72.39    3.60
   0  -7   3   63.69    3.90
   0  -7   3   72.19    3.60
  -1   7  -3  119.79    4.90
   1  -7   3  119.69    5.00
  -2   7  -3    4.90    2.20
  -2   7  -3    4.90    1.40
   2  -7   3    6.60    1.70
   2  -7   3    4.50    2.00
   2  -7   3    4.90    0.90
  -3   7  -3    4.30    1.30
   3  -7   3    6.40    1.80
   3  -7   3    0.00    2.00
  -4   7  -3    0.40    2.40
   4  -7   3    0.10    1.70
   4  -7   3    2.60    2.30
  -5   7  -3   10.10    3.20
   5  -7   3   11.70    2.30
   7   5  -4    9.10    2.70
   6   5  -4    3.20    1.50
   6   5  -4    1.50    2.10
  -6  -5   4   -2.20    2.10
  -6  -5   4   -0.40    1.50
   5   5  -4    2.00    1.40
   5   5  -4   -0.50    1.70
  -5  -5   4   -1.60    1.90
  -5  -5   4    4.60    1.20
   4   5  -4   29.20    2.20
   4   5  -4   29.80    2.40
  -4  -5   4   28.00    2.90
  -4  -5   4   24.40    2.00
   3   5  -4  192.28    6.70
   3   5  -4  201.38    7.10
  -3  -5   4  199.58    7.00
  -3  -5   4  201.18    7.50
   2   5  -4  141.69    5.30
   2   5  -4  131.09    4.60
  -2  -5   4  146.09    5.70
  -2  -5   4  142.79    4.50
  -2  -5   4  127.39    5.30
   1   5  -4   95.69    3.10
   1   5  -4   90.69    3.90
  -1  -5   4   98.49    4.30
  -1  -5   4   91.49    4.30
  -1  -5   4   92.99    3.00
   0   5  -4   48.30    2.60
   0  -5   4   48.90    2.80
   0  -5   4   51.79    2.70
  -1   5  -4  130.59    5.40
  -1   5  -4  131.89    4.90
   1  -5   4  133.89    5.50
   1  -5   4  134.09    5.10
  -2   5  -4  224.28    8.10
  -2   5  -4  213.08    7.10
   2  -5   4  206.18    6.60
   2  -5   4  223.78    6.80
   2  -5   4  216.28    7.60
   2  -5   4  217.18    8.10
  -3   5  -4   48.90    2.30
  -3   5  -4   52.69    3.40
   3  -5   4   44.80    2.10
   3  -5   4   52.79    2.20
   3  -5   4   48.40    3.00
  -4   5  -4    7.50    1.10
  -4   5  -4    7.40    2.50
   4  -5   4    8.00    1.90
   4  -5   4    9.50    1.50
  -5   5  -4   18.80    2.90
   5  -5   4   13.30    2.30
   5  -5   4   16.20    2.00
   6  -5   4   21.40    2.80
   6  -5   4   24.70    2.50
   7  -5   4    5.70    2.70
   7   3  -5   48.20    3.90
  -7  -3   5   50.39    3.30
  -7  -3   5   61.79    4.20
   6   3  -5   16.80    1.90
   6   3  -5   18.00    2.60
  -6  -3   5   20.20    2.90
   5   3  -5   76.19    3.80
   5   3  -5   73.19    3.40
  -5  -3   5   72.79    3.50
   4   3  -5   58.29    2.90
   4   3  -5   57.19    3.00
  -4  -3   5   55.29    3.30
  -4  -3   5   55.89    2.90
   3   3  -5   79.29    3.50
   3   3  -5   84.99    3.40
  -3  -3   5   88.29    3.90
  -3  -3   5   86.79    3.70
   2   3  -5    7.00    0.90
   2   3  -5    7.90    1.30
  -2  -3   5    8.60    1.50
  -2  -3   5    7.60    0.70
  -2  -3   5    8.30    1.50
   1   3  -5  319.07    9.30
   1   3  -5  314.67   10.00
  -1  -3   5  326.97   10.30
  -1  -3   5  306.67   10.20
   0   3  -5   22.20    2.00
   0   3  -5   18.20    1.50
   0  -3   5   19.50    1.70
   0  -3   5   20.10    1.70
  -1   3  -5  471.45   14.20
  -1   3  -5  440.56   13.70
   1  -3   5  464.55   14.20
   1  -3   5  450.45   13.90
   1  -3   5  432.96   13.60
  -2   3  -5   42.60    2.00
  -2   3  -5   41.90    2.50
   2  -3   5   42.20    1.70
   2  -3   5   40.40    1.80
   2  -3   5   41.30    2.30
  -3   3  -5  214.38    6.80
  -3   3  -5  212.48    7.70
   3  -3   5  220.08    6.90
   3  -3   5  211.58    6.80
   3  -3   5  222.88    7.50
  -4   3  -5   46.00    1.70
  -4   3  -5   47.00    3.10
   4  -3   5   44.80    1.80
   4  -3   5   46.80    2.90
   4  -3   5   51.19    2.50
  -5   3  -5   -1.20    1.80
   5  -3   5    1.80    1.30
   5  -3   5    1.80    1.60
  -6   3  -5    3.40    2.00
   6  -3   5    2.40    1.70
   6  -3   5    1.80    1.80
  -7   3  -5   13.00    2.90
   7  -3   5   14.60    2.50
   7  -3   5   17.60    2.70
   7   1  -6    2.10    2.50
  -7  -1   6    2.50    1.80
  -7  -1   6    7.40    2.60
   6   1  -6   16.30    2.70
   6   1  -6   15.00    1.60
  -6  -1   6   15.00    2.50
  -6  -1   6   13.10    2.10
   5   1  -6  563.24   17.70
   5   1  -6  582.64   18.30
  -5  -1   6  586.84   18.20
  -5  -1   6  602.74   18.40
   4   1  -6    6.60    1.60
   4   1  -6    5.20    1.20
  -4  -1   6    4.40    1.40
  -4  -1   6    4.90    1.50
   3   1  -6  363.26   11.40
   3   1  -6  358.26   11.30
  -3  -1   6  379.36   11.50
  -3  -1   6  356.16   11.50
   2   1  -6  270.97    8.60
   2   1  -6  272.67    8.50
   2   1  -6  291.87    8.90
   2   1  -6  288.67    8.70
  -2  -1   6  279.37    9.00
  -2  -1   6  269.37    9.80
   1   1  -6  533.55   15.70
   1   1  -6  536.85   15.90
   1   1  -6  548.05   15.50
   1   1  -6  537.65   15.50
   1   1  -6  550.04   16.20
  -1  -1   6  515.15   15.80
  -1  -1   6  530.35   15.60
  -1  -1   6  475.85   16.00
  -1  -1   6  510.55   15.70
   0   1  -6    3.60    1.10
   0   1  -6    3.80    0.60
   0   1  -6    3.90    0.90
   0   1  -6    5.00    0.90
   0  -1   6    4.40    0.90
   0  -1   6    4.50    0.80
   0  -1   6    4.80    0.90
   0  -1   6    4.40    0.60
   0  -1   6    5.10    1.30
  -1   1  -6    4.70    0.80
  -1   1  -6    3.80    1.10
  -1   1  -6    4.40    0.70
  -1   1  -6    6.80    1.20
   1  -1   6    5.20    0.90
   1  -1   6    5.00    1.10
   1  -1   6    4.80    1.00
   1  -1   6    3.70    0.60
  -2   1  -6  115.29    4.10
  -2   1  -6  112.59    3.70
  -2   1  -6  109.89    3.80
  -2   1  -6  105.89    3.90
   2  -1   6  108.39    4.10
   2  -1   6  112.99    3.80
   2  -1   6  113.29    3.70
   2  -1   6  105.59    3.90
   2  -1   6  107.49    4.20
  -3   1  -6  319.87   10.50
  -3   1  -6  330.17    9.90
  -3   1  -6  325.77   10.20
   3  -1   6  329.67   10.40
   3  -1   6  328.57   10.10
   3  -1   6  329.27    9.90
  -4   1  -6  116.59    3.70
  -4   1  -6  110.79    4.70
   4  -1   6  117.49    4.60
   4  -1   6  116.99    3.70
   4  -1   6  117.39    4.50
  -5   1  -6   10.10    2.00
   5  -1   6   14.40    2.10
   5  -1   6   10.20    1.80
  -6   1  -6    7.80    2.10
   6  -1   6    3.00    1.80
   6  -1   6    5.70    1.70
  -7   1  -6   14.30    3.00
   7  -1   6   14.20    2.20
   7  -1   6   12.50    2.30
  -8   1   7    8.60    3.00
   7  -1  -7   29.80    3.40
  -7   1   7   22.00    2.80
  -7   1   7   28.70    3.10
   6  -1  -7   48.60    3.50
  -6   1   7   40.20    3.10
  -6   1   7   43.20    3.20
   5  -1  -7  264.37    8.50
   5  -1  -7  271.67    9.30
  -5   1   7  259.97    9.00
  -5   1   7  254.67    9.10
   4  -1  -7   12.00    1.60
   4  -1  -7   13.70    2.00
  -4   1   7   12.60    1.90
  -4   1   7   11.60    1.60
   3  -1  -7  335.37   10.50
   3  -1  -7  307.17   10.30
   3  -1  -7  329.97   10.00
  -3   1   7  329.07   10.50
   2  -1  -7  138.19    4.90
   2  -1  -7  136.49    4.30
   2  -1  -7  138.29    4.90
  -2   1   7  136.99    4.80
  -2   1   7  129.59    4.30
  -2   1   7  121.89    4.60
   1  -1  -7  438.66   13.20
   1  -1  -7  462.65   13.60
   1  -1  -7  443.76   12.80
   1  -1  -7  435.06   13.30
  -1   1   7  452.95   12.80
  -1   1   7  454.25   13.40
  -1   1   7  406.26   13.50
  -1   1   7  394.96   13.30
  -1   1   7  450.45   12.80
   0  -1  -7  525.95   15.70
   0  -1  -7  517.65   15.30
   0  -1  -7  543.35   15.90
   0  -1  -7  559.64   16.00
   0   1   7  479.55   15.70
   0   1   7  496.95   15.30
   0   1   7  547.45   15.80
   0   1   7  541.45   15.40
  -1  -1  -7  289.37    8.70
  -1  -1  -7  279.17    8.90
  -1  -1  -7  286.47    9.00
  -1  -1  -7  278.17    8.90
   1   1   7  288.57    8.90
   1   1   7  293.17    9.00
   1   1   7  290.97    9.10
   1   1   7  293.67    8.70
  -2  -1  -7   81.09    3.00
  -2  -1  -7   82.89    3.20
  -2  -1  -7   83.09    3.40
   2   1   7   84.89    3.10
   2   1   7   86.19    3.20
   2   1   7   84.89    3.20
   2   1   7   89.59    3.10
  -3  -1  -7   64.99    3.00
  -3  -1  -7   68.79    2.60
  -3  -1  -7   72.89    2.60
  -3  -1  -7   71.59    3.00
   3   1   7   69.09    2.80
   3   1   7   68.79    2.60
   3   1   7   68.79    2.60
   3   1   7   67.99    3.00
  -4  -1  -7  167.18    6.10
  -4  -1  -7  168.18    5.40
  -4  -1  -7  160.08    5.20
   4   1   7  159.28    5.20
   4   1   7  168.28    5.70
   4   1   7  167.78    6.10
  -5  -1  -7  115.59    4.90
  -5  -1  -7  114.19    3.90
   5   1   7  117.09    4.90
   5   1   7  116.29    4.50
  -6  -1  -7   20.30    2.50
   6   1   7   14.20    2.40
   6   1   7   17.50    2.00
  -7  -1  -7    6.90    2.40
   7   1   7    0.40    2.00
   7   1   7   -1.20    1.60
   7  -3  -8   -1.20    2.40
   6  -3  -8   -1.10    1.90
  -6   3   8   -0.90    1.80
  -6   3   8   -0.60    1.60
   5  -3  -8  536.05   17.00
   5  -3  -8  587.44   18.00
  -5   3   8  539.45   17.30
  -5   3   8  563.64   17.70
   4  -3  -8   89.39    4.20
   4  -3  -8   90.49    3.80
  -4   3   8   83.49    3.90
  -4   3   8   85.19    3.60
   3  -3  -8   35.30    2.50
   3  -3  -8   39.90    1.60
  -3   3   8   37.40    1.70
  -3   3   8   36.20    2.30
   2  -3  -8    9.20    1.40
   2  -3  -8    7.40    0.60
  -2   3   8    7.60    0.60
  -2   3   8    8.40    1.20
  -2   3   8    8.60    1.40
   1  -3  -8  153.68    5.10
   1  -3  -8  153.78    5.30
  -1   3   8  145.09    5.40
  -1   3   8  152.78    5.10
   0  -3  -8  313.07    9.70
   0  -3  -8  310.87    9.90
   0   3   8  324.27   10.20
   0   3   8  315.47    9.60
  -1  -3  -8   14.20    0.90
  -1  -3  -8   14.70    1.30
  -1  -3  -8   14.20    1.00
   1   3   8   15.40    1.00
   1   3   8   15.90    0.90
   1   3   8   14.30    1.50
  -2  -3  -8   25.40    1.60
  -2  -3  -8   24.90    1.70
  -2  -3  -8   25.00    1.10
   2   3   8   25.10    1.10
   2   3   8   25.10    1.30
   2   3   8   23.00    1.80
   2   3   8   23.20    1.40
  -3  -3  -8   30.80    2.00
  -3  -3  -8   28.50    1.80
   3   3   8   29.30    2.20
   3   3   8   28.10    1.30
   3   3   8   29.00    1.40
  -4  -3  -8   74.39    3.10
  -4  -3  -8   77.69    3.60
   4   3   8   70.69    3.60
   4   3   8   74.59    2.90
   4   3   8   74.79    2.70
  -5  -3  -8   68.39    3.00
  -5  -3  -8   72.19    3.80
   5   3   8   67.59    2.90
   5   3   8   69.79    3.80
  -6  -3  -8   23.20    2.70
   6   3   8   22.70    2.80
  -7  -3  -8    0.00    2.20
   7   3   8   -2.40    2.30
   6  -5  -9    3.30    2.50
  -6   5   9    6.20    2.20
   5  -5  -9  138.39    6.10
   5  -5  -9  133.89    5.40
  -5   5   9  133.29    5.80
   4  -5  -9   33.30    2.50
  -4   5   9   32.70    2.10
  -4   5   9   29.60    2.50
   3  -5  -9  169.38    6.10
   3  -5  -9  161.48    5.30
  -3   5   9  162.38    6.40
  -3   5   9  159.58    6.00
  -3   5   9  167.58    5.40
   2  -5  -9   24.20    2.00
   2  -5  -9   22.60    1.00
   2  -5  -9   23.40    1.10
  -2   5   9   24.00    1.80
  -2   5   9   21.30    2.20
   1  -5  -9    1.80    1.00
   1  -5  -9    2.10    0.80
  -1   5   9    1.20    1.40
  -1   5   9    2.50    0.90
   0  -5  -9  181.18    5.90
   0  -5  -9  188.68    5.70
   0  -5  -9  185.98    6.50
   0  -5  -9  179.88    5.70
   0   5   9  191.58    6.90
  -1  -5  -9   20.60    1.90
  -1  -5  -9   22.90    1.30
  -1  -5  -9   23.10    1.10
   1   5   9   23.90    1.00
   1   5   9   19.30    1.30
   1   5   9   21.10    2.30
  -2  -5  -9   77.99    3.50
  -2  -5  -9   79.49    3.20
   2   5   9   76.09    3.80
  -3  -5  -9   -0.30    1.10
  -3  -5  -9   -0.70    1.10
   3   5   9   -0.50    1.40
  -4  -5  -9   22.10    2.10
  -4  -5  -9   27.70    2.40
   4   5   9   24.10    2.50
  -5  -5  -9   73.09    3.80
  -5  -5  -9   72.59    3.40
   5   5   9   68.19    4.10
  -6  -5  -9   75.89    4.20
   6   5   9   72.09    4.40
   5  -7 -10   22.10    3.00
  -5   7  10   20.60    2.90
   4  -7 -10   12.70    2.00
  -4   7  10   10.80    2.20
   3  -7 -10  511.35   15.80
  -3   7  10  502.55   16.40
  -3   7  10  473.75   17.00
   2  -7 -10   19.00    2.30
  -2   7  10   19.30    1.80
  -2   7  10   15.80    2.50
   1  -7 -10   29.60    2.40
   1  -7 -10   27.80    1.40
  -1   7  10   29.80    1.80
   0  -7 -10    5.70    1.50
   0  -7 -10    5.10    1.10
   0   7  10    2.30    1.90
   0   7  10    4.70    0.90
  -1  -7 -10   12.40    1.40
   1   7  10    8.50    3.90
  -2  -7 -10   64.19    3.50
  -2  -7 -10   64.89    3.00
   2   7  10   67.49    4.10
  -3  -7 -10   69.99    3.40
  -3  -7 -10   65.09    3.50
   3   7  10   66.19    4.00
  -4  -7 -10   -1.00    1.50
  -4  -7 -10    0.40    1.70
   4   7  10    7.00    2.10
  -5  -7 -10   24.40    2.80
   5   7  10   22.00    2.90
  -6  -7 -10   26.00    3.30
   4  -9 -11    4.50    2.20
   4  -9 -11    3.50    2.70
   3  -9 -11   14.80    2.70
   3  -9 -11   14.60    2.20
  -3   9  11   13.00    2.10
  -3   9  11   15.80    3.00
   2  -9 -11   25.70    2.90
  -2   9  11   28.70    3.20
   1  -9 -11  124.49    5.40
  -1   9  11  111.79    5.80
   0  -9 -11    0.00    1.60
   0   9  11    3.90    2.20
  -1  -9 -11    7.00    1.90
   1   9  11   10.80    2.60
  -2  -9 -11   18.30    2.70
  -3  -9 -11    1.20    1.80
  -3  -9 -11   -3.10    2.20
   3   9  11    6.40    2.80
  -4  -9 -11   20.50    2.90
  -4  -9 -11   12.30    2.40
   4   9  11   17.30    4.10
   1  10  -2   27.90    3.10
  -1 -10   2   26.80    3.80
   0  10  -2   17.80    2.90
   0 -10   2   22.30    3.20
  -1  10  -2   13.10    2.30
   1 -10   2   10.80    2.10
   1 -10   2   10.30    2.90
  -2  10  -2   17.20    2.90
   2 -10   2   25.70    3.50
   2 -10   2   20.20    2.70
   5   8  -3   14.40    2.70
   4   8  -3   23.70    2.80
  -4  -8   3   23.00    3.60
  -3  -8   3    2.10    2.10
   2   8  -3    9.80    1.90
  -2  -8   3    8.60    1.80
  -2  -8   3   10.20    2.50
   1   8  -3   91.89    4.40
  -1  -8   3   91.79    4.80
  -1  -8   3   89.39    4.40
   0   8  -3   80.59    4.00
   0  -8   3   70.59    4.20
   0  -8   3   78.79    4.00
  -1   8  -3   13.10    2.20
   1  -8   3   18.50    2.20
   1  -8   3   18.50    2.60
  -2   8  -3   26.30    3.10
  -2   8  -3   23.50    2.60
   2  -8   3   20.90    2.50
   2  -8   3   15.80    2.80
  -3   8  -3   14.90    3.00
  -3   8  -3   11.50    2.00
   3  -8   3   14.10    2.40
  -4   8  -3   27.50    4.00
   4  -8   3   22.60    3.00
   4  -8   3   30.20    3.60
   6   6  -4   32.00    2.90
   6   6  -4   38.40    3.30
  -6  -6   4   32.60    3.50
   5   6  -4   14.10    2.30
  -5  -6   4   16.80    3.10
   4   6  -4  291.47   10.00
   4   6  -4  275.77    9.70
  -4  -6   4  291.67    9.70
  -4  -6   4  306.77   10.80
   3   6  -4   26.70    2.30
   3   6  -4   23.10    1.90
  -3  -6   4   28.20    2.10
  -3  -6   4   26.90    2.70
   2   6  -4    3.50    1.40
  -2  -6   4    4.10    1.50
  -2  -6   4    3.30    1.90
   1   6  -4   87.99    4.00
  -1  -6   4   91.49    4.30
  -1  -6   4   87.19    2.90
  -1  -6   4   83.39    4.20
   0   6  -4  108.99    4.50
   0  -6   4  113.39    4.60
   0  -6   4   95.79    4.80
  -1   6  -4  115.19    5.20
  -1   6  -4  110.79    4.60
   1  -6   4  118.59    4.80
   1  -6   4  116.89    5.20
  -2   6  -4   28.40    2.50
  -2   6  -4   27.20    2.10
   2  -6   4   27.80    2.30
   2  -6   4   31.80    2.80
  -3   6  -4    1.40    2.10
  -3   6  -4    0.60    1.00
   3  -6   4   -0.80    1.40
   3  -6   4    0.20    1.90
  -4   6  -4    2.80    2.20
   4  -6   4    1.60    1.60
   4  -6   4    2.10    1.20
  -5   6  -4   17.00    3.20
   5  -6   4   20.10    2.70
  -6   6  -4   15.10    4.20
   7   4  -5   -1.60    2.40
  -7  -4   5    6.60    2.00
  -7  -4   5    4.10    2.70
   6   4  -5   83.29    3.90
   6   4  -5   84.09    4.40
  -6  -4   5   90.79    4.90
  -6  -4   5   86.49    4.00
   5   4  -5   19.90    2.30
   5   4  -5   19.30    2.00
  -5  -4   5   20.30    2.70
  -5  -4   5   18.90    1.90
   4   4  -5  203.88    7.30
   4   4  -5  208.28    7.20
  -4  -4   5  201.58    7.20
  -4  -4   5  210.28    7.80
   3   4  -5  121.29    4.50
   3   4  -5  117.89    4.80
  -3  -4   5  122.99    5.20
  -3  -4   5  124.59    4.80
   2   4  -5   74.09    2.80
   2   4  -5   75.59    3.40
  -2  -4   5   80.09    3.70
  -2  -4   5   66.89    3.40
  -2  -4   5   78.79    2.70
   1   4  -5   28.40    1.90
  -1  -4   5   31.10    2.30
  -1  -4   5   29.90    2.30
   0   4  -5   46.90    2.40
   0  -4   5   46.50    2.70
   0  -4   5   45.60    2.60
  -1   4  -5  351.26   11.20
  -1   4  -5  361.66   11.70
   1  -4   5  357.76   11.50
   1  -4   5  364.06   11.70
  -2   4  -5  238.08    8.40
  -2   4  -5  226.18    7.50
   2  -4   5  225.38    8.30
   2  -4   5  224.68    7.00
   2  -4   5  244.48    8.00
   2  -4   5  230.08    7.00
  -3   4  -5   16.80    2.50
  -3   4  -5   17.20    1.40
   3  -4   5   16.10    1.20
   3  -4   5   21.90    2.20
   3  -4   5   17.90    1.20
   3  -4   5   20.20    1.40
  -4   4  -5    3.20    0.60
  -4   4  -5    3.00    2.30
   4  -4   5    4.90    1.60
   4  -4   5    4.00    1.30
  -5   4  -5   22.40    2.90
   5  -4   5   26.50    2.20
   5  -4   5   24.30    2.50
  -6   4  -5    4.70    2.50
   6  -4   5    3.30    2.00
   6  -4   5    7.70    1.90
   7  -4   5   23.00    2.90
   7   2  -6    5.90    2.30
  -7  -2   6    8.40    2.00
  -7  -2   6    9.20    2.60
   6   2  -6    1.50    1.20
   6   2  -6   -1.20    1.90
  -6  -2   6    3.50    2.10
  -6  -2   6   -1.80    1.40
   5   2  -6   14.60    1.70
   5   2  -6   18.40    2.50
  -5  -2   6   19.20    2.20
  -5  -2   6   15.70    2.30
   4   2  -6  779.42   23.60
   4   2  -6  796.02   23.70
  -4  -2   6  764.32   23.80
  -4  -2   6  806.72   24.00
   3   2  -6  136.29    5.00
   3   2  -6  134.09    4.80
  -3  -2   6  138.59    5.20
  -3  -2   6  137.99    5.10
   2   2  -6  457.65   14.00
   2   2  -6  466.45   13.60
   2   2  -6  447.56   13.50
  -2  -2   6  442.76   14.20
  -2  -2   6  458.85   14.10
   1   2  -6   16.60    0.80
   1   2  -6   16.30    0.90
   1   2  -6   15.90    1.40
   1   2  -6   16.00    1.10
   1   2  -6   17.30    1.60
  -1  -2   6   16.50    1.70
  -1  -2   6   14.70    1.50
  -1  -2   6   14.90    1.10
   0   2  -6    1.40    0.70
   0   2  -6    3.60    1.10
   0   2  -6    1.10    0.90
   0  -2   6    2.80    1.30
   0  -2   6    3.10    0.80
   0  -2   6    2.80    1.10
   0  -2   6    1.50    0.70
  -1   2  -6  219.18    7.10
  -1   2  -6  217.38    6.80
   1  -2   6  208.78    7.00
   1  -2   6  207.68    7.10
   1  -2   6  204.18    6.90
   1  -2   6  203.18    6.70
  -2   2  -6  305.57    9.90
  -2   2  -6  315.97    9.30
   2  -2   6  297.57    9.80
   2  -2   6  305.07    9.20
   2  -2   6  307.57    9.50
  -3   2  -6  311.27    9.60
  -3   2  -6  309.77    9.40
  -3   2  -6  303.17   10.20
   3  -2   6  306.17    9.50
   3  -2   6  316.37    9.60
   3  -2   6  313.07   10.10
  -4   2  -6   99.69    4.40
  -4   2  -6   96.79    3.20
   4  -2   6  100.89    4.00
   4  -2   6  102.19    4.30
   4  -2   6  101.69    3.30
  -5   2  -6   10.20    2.00
   5  -2   6    8.70    1.70
   5  -2   6    6.80    1.90
  -6   2  -6    0.70    1.90
   6  -2   6    2.60    1.70
   6  -2   6    2.40    1.60
  -7   2  -6   25.90    3.40
   7  -2   6   24.10    3.10
   7  -2   6   22.10    2.80
  -8   0   7   23.20    4.40
   7   0  -7    6.30    2.70
  -7   0   7   12.20    2.40
  -7   0   7   11.30    2.60
   6   0  -7    3.90    1.10
   6   0  -7    5.30    2.30
  -6   0   7    1.30    1.60
  -6   0   7    2.20    2.20
   5   0  -7   64.29    3.60
   5   0  -7   61.79    2.90
  -5   0   7   63.79    3.50
  -5   0   7   64.49    3.40
   4   0  -7  566.84   17.30
   4   0  -7  563.14   17.00
  -4   0   7  555.94   17.10
  -4   0   7  542.95   17.30
   3   0  -7  175.78    6.10
   3   0  -7  172.38    5.80
   3   0  -7  174.08    6.00
  -3   0   7  178.08    5.90
  -3   0   7  174.48    6.20
   2   0  -7  259.27    8.10
   2   0  -7  261.07    8.30
   2   0  -7  247.98    8.50
   2   0  -7  284.37    8.50
  -2   0   7  272.87    8.30
  -2   0   7  270.27    8.70
   1   0  -7  130.59    4.70
   1   0  -7  130.89    4.70
   1   0  -7  128.19    4.10
   1   0  -7  127.69    4.20
  -1   0   7  128.39    4.30
  -1   0   7  125.99    4.60
  -1   0   7  127.39    4.70
  -1   0   7  129.99    4.20
  -1   0   7  130.49    4.10
   0   0  -7  134.49    4.50
   0   0  -7  139.19    4.50
   0   0  -7  139.79    4.90
   0   0  -7  144.69    5.00
   0   0   7  135.09    4.80
   0   0   7  143.99    4.50
   0   0   7  137.29    4.50
   0   0   7  141.89    4.60
  -1   0  -7   26.80    1.90
  -1   0  -7   26.80    1.50
  -1   0  -7   26.30    1.40
  -1   0  -7   25.40    1.40
   1   0   7   24.50    1.80
   1   0   7   24.30    1.50
   1   0   7   22.90    1.30
   1   0   7   22.00    1.30
  -2   0  -7  259.97    8.00
  -2   0  -7  257.57    8.50
  -2   0  -7  256.97    8.10
  -2   0  -7  243.68    8.00
   2   0   7  252.57    8.10
   2   0   7  256.07    8.00
   2   0   7  260.87    8.20
  -3   0  -7  303.17    9.40
  -3   0  -7  296.97    9.70
   3   0   7  310.37    9.60
   3   0   7  307.57    9.70
   3   0   7  298.57    9.20
  -4   0  -7   16.00    1.00
  -4   0  -7   14.50    1.90
  -4   0  -7   14.90    1.20
   4   0   7   17.10    1.70
   4   0   7   17.60    0.90
   4   0   7   18.90    1.80
  -5   0  -7   57.19    3.40
   5   0   7   64.19    3.20
   5   0   7   62.09    3.40
  -6   0  -7    1.40    1.90
   6   0   7    1.80    1.80
   6   0   7    0.70    1.40
  -7   0  -7   28.20    3.30
   7   0   7   31.80    3.20
   7   0   7   26.40    2.80
   7  -2  -8   18.80    3.30
  -7   2   8   14.50    2.70
  -7   2   8   20.50    3.00
   6  -2  -8   12.80    2.60
  -6   2   8   14.70    2.40
  -6   2   8   13.90    2.20
   5  -2  -8    1.40    1.20
   5  -2  -8    2.00    1.90
  -5   2   8    2.00    1.30
  -5   2   8   -0.40    1.40
   4  -2  -8   19.80    2.30
   4  -2  -8   25.80    2.10
  -4   2   8   20.20    1.70
  -4   2   8   21.20    2.10
   3  -2  -8    9.90    1.70
   3  -2  -8    4.80    0.80
  -3   2   8    8.40    1.40
  -3   2   8    7.40    0.90
   2  -2  -8 1402.56   40.10
   2  -2  -8 1447.66   41.00
  -2   2   8 1327.47   40.10
  -2   2   8 1375.96   40.80
  -2   2   8 1404.36   40.70
   1  -2  -8  199.18    6.60
   1  -2  -8  207.58    6.90
  -1   2   8  205.78    6.70
  -1   2   8  200.88    6.80
   0  -2  -8  112.69    4.20
   0  -2  -8  111.79    4.10
   0  -2  -8  110.59    4.00
   0   2   8  114.69    4.10
   0   2   8  115.99    4.20
  -1  -2  -8   15.40    0.90
  -1  -2  -8   15.50    1.50
  -1  -2  -8   11.70    1.10
  -1  -2  -8   13.70    1.10
   1   2   8   15.90    1.40
   1   2   8   16.80    1.30
   1   2   8   15.30    0.90
  -2  -2  -8   52.49    2.40
  -2  -2  -8   50.69    2.50
  -2  -2  -8   51.39    2.00
   2   2   8   53.69    2.30
   2   2   8   51.59    2.50
   2   2   8   54.19    2.20
  -3  -2  -8  139.99    4.80
  -3  -2  -8  137.09    4.90
  -3  -2  -8  135.59    4.50
   3   2   8  137.19    5.10
   3   2   8  136.69    4.70
   3   2   8  134.29    4.50
  -4  -2  -8  184.38    6.50
  -4  -2  -8  186.08    6.10
   4   2   8  174.68    5.90
   4   2   8  187.18    6.20
   4   2   8  182.28    6.60
  -5  -2  -8   50.79    3.10
  -5  -2  -8   50.09    2.30
   5   2   8   47.00    3.60
   5   2   8   50.79    2.60
  -6  -2  -8   14.20    2.40
   6   2   8   11.40    1.70
   6   2   8   16.10    2.60
  -7  -2  -8   10.40    2.40
   7   2   8    4.80    2.40
   6  -4  -9   33.20    3.30
  -6   4   9   34.00    3.10
   5  -4  -9   82.49    3.80
   5  -4  -9   82.09    4.40
  -5   4   9   78.09    3.70
  -5   4   9   83.99    4.30
   4  -4  -9   54.39    4.90
   4  -4  -9   64.09    3.40
  -4   4   9   58.59    4.00
  -4   4   9   63.69    2.80
   3  -4  -9    4.30    0.80
   3  -4  -9    3.80    1.40
  -3   4   9    3.60    0.80
  -3   4   9    2.80    1.30
   2  -4  -9    6.10    1.30
  -2   4   9    5.60    1.20
  -2   4   9    5.70    1.60
   1  -4  -9  175.08    5.70
   1  -4  -9  174.18    6.00
  -1   4   9  173.68    6.40
  -1   4   9  171.48    5.80
   0  -4  -9  652.93   19.70
   0  -4  -9  650.13   19.30
   0   4   9  674.93   20.10
   0   4   9  636.44   19.50
  -1  -4  -9  204.88    6.40
  -1  -4  -9  209.88    7.00
  -1  -4  -9  210.18    6.50
   1   4   9  202.28    6.50
   1   4   9  213.08    7.40
   1   4   9  207.98    6.40
  -2  -4  -9   10.70    1.20
  -2  -4  -9   10.70    0.70
  -2  -4  -9   10.60    1.50
   2   4   9   11.00    1.70
   2   4   9   10.30    1.10
   2   4   9   11.00    0.70
   2   4   9   10.30    0.60
  -3  -4  -9   66.29    3.10
  -3  -4  -9   63.79    3.00
   3   4   9   66.19    3.40
  -4  -4  -9  101.09    4.10
  -4  -4  -9  104.89    4.40
   4   4   9  100.39    3.50
   4   4   9  103.19    4.60
  -5  -4  -9   69.49    3.20
  -5  -4  -9   70.49    3.80
   5   4   9   68.79    3.90
  -6  -4  -9   31.30    3.10
   6   4   9   34.70    3.10
  -7  -4  -9   12.10    2.60
  -5   6  10   15.00    2.60
   4  -6 -10   50.69    3.10
  -4   6  10   46.40    3.00
   3  -6 -10   47.60    2.40
   3  -6 -10   53.09    3.10
  -3   6  10   50.69    3.50
  -3   6  10   48.00    2.90
   2  -6 -10  156.38    5.80
   2  -6 -10  150.68    4.80
  -2   6  10  136.19    6.10
  -2   6  10  156.98    5.50
   1  -6 -10   73.29    2.50
   1  -6 -10   76.89    3.70
  -1   6  10   76.99    3.10
  -1   6  10   74.39    3.90
   0  -6 -10    5.20    1.40
   0  -6 -10    5.10    0.90
   0   6  10    5.40    0.90
   0   6  10    7.10    1.80
  -1  -6 -10  109.19    3.80
  -1  -6 -10  100.59    3.80
  -1  -6 -10  105.49    4.50
   1   6  10  102.19    3.80
   1   6  10  115.59    5.10
  -2  -6 -10  126.89    4.60
  -2  -6 -10  126.39    5.10
   2   6  10  124.39    5.40
  -3  -6 -10   -0.80    1.30
  -3  -6 -10   -1.00    1.20
   3   6  10    1.30    1.60
  -4  -6 -10   16.90    2.10
   4   6  10   20.10    2.50
  -5  -6 -10   57.79    3.50
  -5  -6 -10   53.89    3.20
   5   6  10   59.09    3.70
  -6  -6 -10   25.70    3.10
   6   6  10   16.60    3.00
   4  -8 -11   13.00    2.50
  -4   8  11   17.60    2.60
   3  -8 -11   37.70    2.80
  -3   8  11   32.20    3.40
  -3   8  11   28.50    2.60
   2  -8 -11    0.60    1.60
  -2   8  11    2.30    2.10
  -2   8  11    2.50    1.40
   1  -8 -11   10.00    1.90
   1  -8 -11    7.10    1.30
  -1   8  11    9.00    1.70
  -1   8  11   11.70    2.50
   0  -8 -11   15.40    2.20
   0   8  11   19.70    2.80
  -1  -8 -11   84.79    3.40
  -1  -8 -11   79.69    4.20
   1   8  11   87.49    4.60
  -2  -8 -11   61.09    2.90
  -2  -8 -11   55.09    3.40
   2   8  11   62.59    4.30
  -3  -8 -11   12.00    2.00
  -3  -8 -11    7.20    1.90
   3   8  11   13.90    2.80
  -4  -8 -11    2.00    1.90
   4   8  11    1.70    2.40
  -5  -8 -11   15.90    2.40
  -5  -8 -11   16.50    2.90
   3 -10 -12   33.10    3.50
  -2  10  12   -0.70    2.80
   1 -10 -12    4.60    2.10
  -1  10  12    8.70    2.80
   0 -10 -12    0.00    2.00
   0  10  12   -3.70    2.70
  -1 -10 -12   21.40    3.10
   1  10  12   23.00    3.50
   2  10  12   24.10    3.40
   3   9  -3   13.40    2.30
  -3  -9   3   14.20    3.10
   2   9  -3   24.40    2.80
  -2  -9   3   28.00    3.30
   1   9  -3   18.50    2.70
  -1  -9   3   19.10    2.60
  -1  -9   3   23.80    2.90
   0   9  -3   29.10    2.80
   0  -9   3   21.30    3.10
   0  -9   3   28.00    2.80
  -1   9  -3   14.30    2.30
   1  -9   3   18.10    3.20
   1  -9   3   13.60    2.20
  -2   9  -3    2.80    1.70
   2  -9   3    2.40    2.30
   2  -9   3    0.00    1.80
  -3   9  -3   13.70    3.20
   3  -9   3   17.40    2.60
   3  -9   3   17.80    3.10
   6   7  -4   16.70    2.40
   5   7  -4   24.50    2.70
  -5  -7   4   26.00    3.50
   4   7  -4    1.20    1.50
  -4  -7   4    1.70    1.40
  -4  -7   4   -0.20    2.20
   3   7  -4   11.40    2.10
  -3  -7   4   10.40    2.60
  -3  -7   4   11.80    1.90
   2   7  -4   52.89    3.30
  -2  -7   4   50.89    3.50
  -2  -7   4   48.40    3.00
   1   7  -4   66.69    3.60
  -1  -7   4   73.89    3.80
  -1  -7   4   66.09    4.00
   0   7  -4   83.99    4.50
   0  -7   4   86.49    4.20
   0  -7   4   80.49    4.40
  -1   7  -4   -1.10    1.20
   1  -7   4   -2.30    1.70
   1  -7   4    0.50    1.50
  -2   7  -4   10.70    1.80
  -2   7  -4   10.20    2.60
   2  -7   4   10.60    2.10
   2  -7   4   12.20    2.40
  -3   7  -4   21.80    2.90
  -3   7  -4   19.10    1.90
   3  -7   4   21.90    2.90
   3  -7   4   13.30    2.40
  -4   7  -4   36.20    3.70
   4  -7   4   29.40    3.40
   4  -7   4   28.30    2.90
  -5   7  -4   11.10    3.40
   5  -7   4   16.20    3.10
   5  -7   4   19.90    3.60
   7   5  -5    5.00    2.60
   6   5  -5   12.00    2.10
   6   5  -5   14.40    2.80
  -6  -5   5   15.70    2.80
  -6  -5   5   11.90    2.20
   5   5  -5   81.59    3.80
   5   5  -5   72.69    3.90
  -5  -5   5   77.99    4.60
  -5  -5   5   78.19    3.80
   4   5  -5   43.70    2.60
   4   5  -5   42.30    3.20
  -4  -5   5   49.30    3.50
  -4  -5   5   45.60    2.70
   3   5  -5    1.40    1.10
   3   5  -5    0.30    1.20
  -3  -5   5    1.10    1.20
  -3  -5   5    1.10    1.80
   2   5  -5    4.20    1.30
   2   5  -5    3.00    0.70
  -2  -5   5    0.30    1.40
  -2  -5   5    3.80    1.70
  -2  -5   5    2.20    0.70
   1   5  -5  227.88    7.90
  -1  -5   5  244.48    8.30
  -1  -5   5  216.78    8.20
   0   5  -5  268.07    8.90
   0  -5   5  265.47    9.30
   0  -5   5  275.47    9.20
  -1   5  -5   13.00    2.10
  -1   5  -5    8.60    1.50
   1  -5   5    9.20    1.70
   1  -5   5   10.00    1.90
  -2   5  -5   63.59    3.70
  -2   5  -5   61.39    2.90
   2  -5   5   62.19    3.70
   2  -5   5   66.29    3.40
  -3   5  -5    2.20    1.90
  -3   5  -5    2.50    0.90
   3  -5   5    1.70    0.90
  -4   5  -5   17.40    2.70
  -4   5  -5   17.60    1.60
   4  -5   5   19.70    2.30
   4  -5   5   18.20    1.70
  -5   5  -5   85.89    4.90
   5  -5   5   88.89    4.40
   5  -5   5   83.09    3.70
  -6   5  -5   22.30    3.40
   6  -5   5   26.30    2.70
   6  -5   5   20.10    3.00
  -7  -3   6    6.10    2.00
  -7  -3   6    4.20    2.60
   6   3  -6   14.70    2.00
   6   3  -6   17.00    2.50
  -6  -3   6   16.10    2.70
  -6  -3   6   14.90    2.20
   5   3  -6   27.00    2.10
   5   3  -6   30.20    2.60
  -5  -3   6   29.30    2.80
  -5  -3   6   27.60    2.70
   4   3  -6   82.89    3.70
   4   3  -6   86.89    3.80
  -4  -3   6   84.39    3.90
  -4  -3   6   86.69    4.20
   3   3  -6   95.79    3.70
   3   3  -6   95.29    4.00
  -3  -3   6   98.09    4.20
  -3  -3   6   95.89    4.20
   2   3  -6    0.80    0.70
   2   3  -6    0.10    1.00
  -2  -3   6    0.00    1.20
  -2  -3   6    3.00    1.20
   1   3  -6    2.60    1.10
  -1  -3   6    2.00    1.10
  -1  -3   6    2.20    1.30
   0   3  -6  124.69    4.60
   0  -3   6  125.89    4.90
   0  -3   6  129.89    4.90
  -1   3  -6  447.06   14.00
  -1   3  -6  432.96   13.60
   1  -3   6  456.25   14.10
   1  -3   6  438.66   13.90
  -2   3  -6   70.79    3.50
  -2   3  -6   70.59    2.90
   2  -3   6   71.99    3.30
   2  -3   6   67.89    2.40
   2  -3   6   70.39    3.00
  -3   3  -6    1.20    1.50
  -3   3  -6    1.50    0.70
   3  -3   6   -1.10    1.20
   3  -3   6    1.90    0.80
   3  -3   6    1.40    0.90
  -4   3  -6    6.30    0.80
  -4   3  -6    7.20    2.00
   4  -3   6    6.00    1.30
   4  -3   6    7.40    1.70
  -5   3  -6   21.10    2.50
   5  -3   6   20.80    2.40
   5  -3   6   24.00    2.00
   6  -3   6   30.70    2.70
   6  -3   6   32.00    2.90
  -7   3  -6    5.40    3.90
   7  -3   6    8.10    2.50
   7  -3   6    1.80    2.20
   7   1  -7   24.70    3.20
  -7  -1   7   27.40    3.20
  -7  -1   7   23.00    2.70
   6   1  -7    2.70    1.20
   6   1  -7    2.70    2.10
  -6  -1   7    3.10    1.60
  -6  -1   7   -1.00    1.80
   5   1  -7  211.68    7.70
   5   1  -7  211.38    7.20
  -5  -1   7  202.28    7.60
  -5  -1   7  210.38    7.70
   4   1  -7  182.98    6.40
   4   1  -7  181.78    6.60
  -4  -1   7  183.88    6.70
  -4  -1   7  180.38    6.60
   3   1  -7   12.60    1.60
   3   1  -7   12.20    1.60
  -3  -1   7   12.90    1.70
  -3  -1   7   13.70    1.60
   2   1  -7   83.09    3.00
   2   1  -7   87.89    3.60
   2   1  -7   83.29    3.10
  -2  -1   7   86.49    3.70
  -2  -1   7   88.39    3.40
   1   1  -7    4.60    0.70
   1   1  -7    4.70    0.60
   1   1  -7    5.80    1.20
  -1  -1   7    5.00    1.30
  -1  -1   7    5.40    1.00
   0   1  -7  238.38    7.10
   0   1  -7  246.68    7.50
   0   1  -7  220.48    7.70
   0   1  -7  223.58    7.70
   0  -1   7  234.08    7.90
   0  -1   7  242.18    7.50
   0  -1   7  246.48    7.50
   0  -1   7  225.78    7.10
  -1   1  -7  195.08    6.50
  -1   1  -7  209.68    6.00
  -1   1  -7  203.18    6.60
  -1   1  -7  181.58    6.40
   1  -1   7  183.98    6.00
   1  -1   7  200.28    6.50
   1  -1   7  192.08    6.60
   1  -1   7  194.78    6.40
  -2   1  -7  269.87    8.90
  -2   1  -7  281.27    9.10
  -2   1  -7  292.07    8.70
   2  -1   7  285.47    9.10
   2  -1   7  289.57    8.90
   2  -1   7  283.27    8.70
  -3   1  -7  274.57    8.60
  -3   1  -7  273.37    9.00
   3  -1   7  264.87    8.50
   3  -1   7  280.57    8.70
   3  -1   7  283.97    9.10
  -4   1  -7    8.80    0.90
  -4   1  -7    7.60    1.70
   4  -1   7    6.30    0.70
   4  -1   7    8.40    1.50
   4  -1   7   10.00    1.60
  -5   1  -7   49.10    4.10
   5  -1   7   54.19    3.00
   5  -1   7   51.09    3.00
  -6   1  -7   53.29    3.70
   6  -1   7   63.19    3.50
   6  -1   7   58.49    3.50
  -7   1  -7   21.00    3.10
   7  -1   7   14.00    2.70
   7  -1   7   16.30    2.60
   7  -1  -8   12.40    3.00
  -7   1   8   12.70    2.60
  -7   1   8   16.60    2.60
   6  -1  -8   29.70    3.10
  -6   1   8   27.10    2.70
  -6   1   8   22.80    2.50
   5  -1  -8   48.50    2.60
  -5   1   8   49.80    2.90
  -5   1   8   47.50    3.00
   4  -1  -8   82.49    3.90
   4  -1  -8   79.39    3.60
  -4   1   8   75.69    3.70
  -4   1   8   77.89    3.40
   3  -1  -8  210.28    7.40
   3  -1  -8  222.08    6.90
   3  -1  -8  224.58    7.50
  -3   1   8  218.08    7.50
   2  -1  -8  396.66   12.20
   2  -1  -8  381.36   11.50
  -2   1   8  390.86   12.20
  -2   1   8  382.96   11.60
   1  -1  -8  132.49    4.80
   1  -1  -8  124.99    4.40
   1  -1  -8  123.79    4.60
  -1   1   8  125.09    4.00
  -1   1   8  122.69    4.50
  -1   1   8  131.79    4.70
  -1   1   8  132.19    4.00
   0  -1  -8   43.90    2.50
   0  -1  -8   46.10    2.20
   0  -1  -8   42.10    1.60
   0  -1  -8   40.90    1.90
   0   1   8   41.60    1.60
   0   1   8   40.30    2.20
   0   1   8   36.30    1.50
   0   1   8   42.90    2.30
  -1  -1  -8  291.87    9.80
  -1  -1  -8  301.07    9.90
  -1  -1  -8  331.27   10.10
  -1  -1  -8  328.67    9.60
   1   1   8  304.47    9.90
   1   1   8  325.97    9.60
   1   1   8  316.17   10.10
   1   1   8  338.87   10.10
  -2  -1  -8  321.67    9.90
  -2  -1  -8  325.67   10.30
  -2  -1  -8  321.27    9.90
  -2  -1  -8  319.47   10.00
   2   1   8  318.27   10.00
   2   1   8  316.07    9.90
   2   1   8  315.67    9.90
   2   1   8  311.37    9.90
  -3  -1  -8   81.19    3.40
  -3  -1  -8   80.19    3.00
  -3  -1  -8   81.49    3.30
   3   1   8   81.29    3.40
   3   1   8   82.39    3.00
   3   1   8   82.99    3.30
   3   1   8   77.19    3.00
  -4  -1  -8  175.08    5.90
  -4  -1  -8  171.48    6.30
  -4  -1  -8  162.48    5.50
   4   1   8  177.28    6.00
   4   1   8  169.48    5.50
   4   1   8  176.48    6.30
  -5  -1  -8   18.50    1.50
  -5  -1  -8   25.80    2.50
   5   1   8   21.20    1.90
   5   1   8   24.30    2.40
  -6  -1  -8   20.70    2.60
   6   1   8   17.40    2.00
   6   1   8   15.90    2.60
   7   1   8   10.90    2.60
   6  -3  -9    1.80    2.20
  -6   3   9   -1.90    1.80
  -6   3   9    1.40    1.70
   5  -3  -9   17.50    1.90
   5  -3  -9   19.00    2.60
  -5   3   9   16.40    2.10
  -5   3   9   16.90    2.00
   4  -3  -9    3.30    1.70
   4  -3  -9    1.80    1.20
   4  -3  -9    1.60    1.30
  -4   3   9    1.70    1.40
  -4   3   9    0.90    1.10
   3  -3  -9  104.79    4.40
   3  -3  -9  100.59    3.30
  -3   3   9   97.39    3.40
  -3   3   9   97.79    4.20
   2  -3  -9  148.29    5.40
  -2   3   9  138.39    5.40
  -2   3   9  150.78    5.30
   1  -3  -9  152.68    5.40
   1  -3  -9  165.08    5.70
  -1   3   9  162.98    5.50
  -1   3   9  163.38    5.80
   0  -3  -9   84.39    3.30
   0  -3  -9   87.79    3.60
   0   3   9   87.99    3.30
   0   3   9   88.99    3.70
  -1  -3  -9   11.40    0.80
  -1  -3  -9   13.60    1.00
  -1  -3  -9   12.60    1.50
   1   3   9   11.30    1.60
   1   3   9   13.60    1.10
   1   3   9   12.00    0.90
  -2  -3  -9  118.69    3.90
  -2  -3  -9  118.19    4.50
  -2  -3  -9  121.09    4.20
   2   3   9  116.89    4.10
   2   3   9  127.69    4.20
   2   3   9  116.49    4.60
  -3  -3  -9  141.99    5.10
  -3  -3  -9  143.09    5.00
   3   3   9  134.59    5.30
   3   3   9  138.69    4.80
   3   3   9  138.59    4.50
  -4  -3  -9  107.69    4.40
  -4  -3  -9  103.19    4.00
   4   3   9  100.59    3.60
   4   3   9  102.39    4.50
   4   3   9  100.79    3.70
  -5  -3  -9   51.59    4.80
  -5  -3  -9   47.10    2.50
   5   3   9   50.59    3.30
   5   3   9   47.30    2.30
  -6  -3  -9    4.40    2.00
   6   3   9    7.00    2.00
  -7  -3  -9   10.40    2.60
   7   3   9    0.60    2.30
   6  -5 -10   20.20    3.30
  -6   5  10   32.10    2.80
   5  -5 -10   10.40    2.40
   5  -5 -10    9.80    1.90
  -5   5  10   12.50    2.20
   4  -5 -10   -0.40    1.40
  -4   5  10    4.00    1.50
   3  -5 -10   59.79    2.30
   3  -5 -10   63.09    3.40
  -3   5  10   60.09    2.30
  -3   5  10   58.19    3.50
  -3   5  10   60.19    3.20
   2  -5 -10   23.40    2.20
  -2   5  10   22.20    2.30
  -2   5  10   23.60    1.90
   1  -5 -10  314.77   10.30
  -1   5  10  317.27   10.70
  -1   5  10  309.37    9.90
   0  -5 -10  369.56   11.50
   0  -5 -10  368.46   12.10
   0   5  10  391.36   12.50
   0   5  10  383.76   11.50
  -1  -5 -10    9.60    0.90
  -1  -5 -10   10.00    0.90
  -1  -5 -10    9.40    1.60
   1   5  10   10.20    0.70
   1   5  10   10.70    2.20
  -2  -5 -10   -0.20    0.90
  -2  -5 -10    2.80    1.20
   2   5  10    1.10    1.50
  -3  -5 -10  110.89    4.60
  -3  -5 -10  115.49    4.40
   3   5  10  112.59    5.00
  -4  -5 -10  168.68    6.20
  -4  -5 -10  172.98    6.30
   4   5  10  167.58    6.70
  -5  -5 -10   67.19    3.70
  -5  -5 -10   61.79    3.40
   5   5  10   64.09    3.90
  -6  -5 -10   25.40    2.90
   6   5  10   22.60    3.00
   5  -7 -11   18.90    3.20
  -5   7  11   22.10    2.80
   4  -7 -11   21.40    2.60
  -4   7  11   17.50    2.40
   3  -7 -11   26.40    2.60
  -3   7  11   27.60    2.40
  -3   7  11   30.00    2.90
   2  -7 -11   29.10    2.70
  -2   7  11   26.30    2.70
  -2   7  11   28.80    2.10
   1  -7 -11   13.10    2.30
  -1   7  11   16.40    2.30
  -1   7  11   11.50    1.50
   0  -7 -11   58.19    3.30
   0  -7 -11   60.09    2.20
   0   7  11   56.29    2.30
   0   7  11   62.29    3.70
  -1  -7 -11  152.28    5.20
  -1  -7 -11  149.69    6.00
   1   7  11  156.08    6.60
  -2  -7 -11   21.50    1.70
  -2  -7 -11   22.00    2.50
   2   7  11   16.50    2.90
  -3  -7 -11    3.70    1.70
  -3  -7 -11    4.90    1.50
   3   7  11    3.30    1.90
  -4  -7 -11   26.10    2.80
  -4  -7 -11   31.90    2.70
   4   7  11   32.60    3.10
  -5  -7 -11   93.19    4.50
  -5  -7 -11   98.99    4.60
   5   7  11   90.19    5.00
  -6  -7 -11   16.70    3.20
   4  -9 -12   14.50    2.40
   4  -9 -12   15.40    3.00
  -4   9  12   15.70    2.50
   3  -9 -12   -1.50    2.00
   3  -9 -12    0.40    2.00
  -3   9  12   -0.20    2.50
   2  -9 -12    4.20    1.90
  -2   9  12    1.50    2.40
   1  -9 -12   13.30    2.50
  -1   9  12   10.40    2.80
   0  -9 -12   75.99    4.20
   0   9  12   72.49    4.60
  -1  -9 -12   28.00    2.90
   1   9  12   27.70    3.40
  -2  -9 -12   16.90    2.60
   2   9  12   17.40    3.40
   3   9  12   -1.40    2.80
  -4  -9 -12   -3.50    2.00
   1  10  -3    1.60    2.40
   0  10  -3   22.40    2.90
   0 -10   3   16.30    3.20
   0 -10   3   15.70    2.80
  -1  10  -3   -0.40    2.10
   1 -10   3    4.60    2.30
   1 -10   3   -0.20    3.20
  -2  10  -3   45.30    3.50
   2 -10   3   41.10    3.50
   4   8  -4    4.20    1.80
  -4  -8   4    4.50    2.70
   3   8  -4   20.10    2.60
  -3  -8   4   24.50    3.10
   2   8  -4   40.50    3.10
  -2  -8   4   41.60    2.90
  -2  -8   4   38.90    3.40
   1   8  -4   28.70    2.80
  -1  -8   4   30.30    3.10
   0   8  -4    2.90    1.70
   0  -8   4    6.50    2.10
   0  -8   4    2.20    1.80
  -1   8  -4    2.00    1.50
   1  -8   4    0.80    1.50
   1  -8   4    5.50    2.20
  -2   8  -4   53.69    3.20
   2  -8   4   56.39    3.90
   2  -8   4   52.79    3.50
  -3   8  -4   16.60    3.20
   3  -8   4   16.20    2.60
   3  -8   4   23.70    3.20
  -4   8  -4   18.00    3.50
   4  -8   4   19.20    3.40
   4  -8   4   11.40    2.40
   6   6  -5   18.70    2.70
   5   6  -5   15.10    2.30
  -5  -6   5   11.30    3.00
  -5  -6   5   13.90    2.00
   4   6  -5    1.00    1.40
   4   6  -5    2.50    1.30
  -4  -6   5    0.90    1.40
  -4  -6   5    1.90    2.30
   3   6  -5    5.50    1.20
   3   6  -5    3.40    1.50
  -3  -6   5    4.40    1.60
  -3  -6   5    6.30    2.30
   2   6  -5  100.39    3.30
  -2  -6   5   95.19    4.40
  -2  -6   5   87.09    5.50
   1   6  -5  131.29    5.30
  -1  -6   5  121.99    5.50
  -1  -6   5  139.19    5.60
   0   6  -5    5.40    1.50
   0  -6   5    6.10    1.80
   0  -6   5    5.70    2.00
  -1   6  -5    3.90    1.40
  -1   6  -5    5.10    2.00
   1  -6   5    5.20    1.60
   1  -6   5    3.40    1.70
  -2   6  -5    7.40    1.40
  -2   6  -5    9.30    2.90
   2  -6   5    4.20    1.80
  -3   6  -5   38.70    3.30
  -3   6  -5   39.20    2.30
   3  -6   5   41.80    3.30
   3  -6   5   36.40    2.90
  -4   6  -5   36.80    3.60
   4  -6   5   30.20    2.90
  -5   6  -5    9.70    2.80
   5  -6   5    4.50    2.10
   7   4  -6    5.10    2.60
  -7  -4   6   -0.80    2.10
   6   4  -6   12.90    2.40
   6   4  -6   11.90    2.00
  -6  -4   6   11.80    1.90
  -6  -4   6   14.10    2.80
   5   4  -6   27.20    2.30
   5   4  -6   25.70    2.40
  -5  -4   6   22.50    2.20
  -5  -4   6   26.30    2.90
   4   4  -6   15.60    1.90
   4   4  -6   15.60    2.10
  -4  -4   6   17.70    2.00
  -4  -4   6   19.30    2.50
   3   4  -6   28.20    2.00
   3   4  -6   29.90    2.20
  -3  -4   6   31.50    2.40
  -3  -4   6   30.00    2.70
   2   4  -6  145.69    4.70
   2   4  -6  148.99    5.40
  -2  -4   6  136.29    5.60
  -2  -4   6  146.79    5.80
   1   4  -6  152.18    5.60
  -1  -4   6  162.88    6.00
  -1  -4   6  143.79    5.90
   0   4  -6   35.70    2.20
   0  -4   6   35.50    2.50
   0  -4   6   35.10    2.40
  -1   4  -6  224.18    7.80
  -1   4  -6  211.58    7.30
   1  -4   6  222.28    7.80
   1  -4   6  214.88    7.60
  -2   4  -6   25.70    1.80
  -2   4  -6   29.10    2.50
   2  -4   6   28.20    2.40
   2  -4   6   26.60    2.30
  -3   4  -6   37.50    2.90
  -3   4  -6   34.70    1.90
   3  -4   6   30.10    1.60
   3  -4   6   37.70    2.60
  -4   4  -6  137.29    4.70
  -4   4  -6  142.29    6.20
   4  -4   6  146.89    5.90
   4  -4   6  142.59    5.00
  -5   4  -6   15.90    2.80
   5  -4   6   17.80    1.90
   5  -4   6   23.50    2.50
  -6   4  -6    2.80    2.60
   6  -4   6    1.70    1.90
   6  -4   6    0.00    1.70
   7   2  -7   -2.90    2.30
  -7  -2   7    0.80    1.90
  -7  -2   7   -1.30    2.40
   6   2  -7    6.30    1.40
   6   2  -7    7.70    2.20
  -6  -2   7    8.90    2.30
  -6  -2   7   10.80    2.00
   5   2  -7   59.79    3.40
   5   2  -7   62.79    3.00
  -5  -2   7   61.49    3.60
  -5  -2   7   63.39    3.40
   4   2  -7   44.00    2.60
   4   2  -7   40.50    2.60
  -4  -2   7   39.30    2.80
  -4  -2   7   41.30    2.70
   3   2  -7   76.49    3.30
   3   2  -7   81.89    3.60
  -3  -2   7   78.89    3.70
  -3  -2   7   79.19    3.70
   2   2  -7    5.50    0.70
   2   2  -7    6.80    1.30
   2   2  -7    5.80    1.00
  -2  -2   7    6.50    1.40
  -2  -2   7    4.90    1.50
   1   2  -7   57.39    2.00
   1   2  -7   56.09    1.90
   1   2  -7   56.09    2.70
   1   2  -7   51.79    2.40
  -1  -2   7   56.09    2.90
  -1  -2   7   51.49    2.60
  -1  -2   7   57.19    2.50
   0   2  -7   73.89    3.10
   0   2  -7   71.19    3.10
   0  -2   7   67.89    3.40
   0  -2   7   69.59    3.10
   0  -2   7   66.89    2.80
  -1   2  -7  362.86   11.30
  -1   2  -7  362.06   11.10
   1  -2   7  346.97   11.30
   1  -2   7  349.07   11.30
  -2   2  -7    8.50    1.20
  -2   2  -7    6.90    0.80
  -2   2  -7    8.10    1.50
   2  -2   7    7.80    1.40
   2  -2   7    6.90    1.10
   2  -2   7    9.30    0.80
  -3   2  -7   15.50    1.20
  -3   2  -7   13.80    1.30
  -3   2  -7   13.10    1.90
   3  -2   7   13.60    1.30
   3  -2   7   14.50    1.70
   3  -2   7   12.70    1.20
  -4   2  -7   26.10    2.50
  -4   2  -7   26.00    1.30
   4  -2   7   26.50    1.90
   4  -2   7   26.20    2.30
   4  -2   7   26.90    1.40
  -5   2  -7   68.69    3.90
   5  -2   7   68.29    3.30
   5  -2   7   70.09    3.60
  -6   2  -7   18.90    2.70
   6  -2   7   16.10    2.20
   6  -2   7   17.10    2.50
  -7   2  -7    5.30    2.40
   7  -2   7    4.20    2.10
   7   0  -8   12.50    2.90
  -7   0   8    6.00    2.20
  -7   0   8    7.30    2.60
   6   0  -8   10.60    2.80
   6   0  -8   11.40    1.60
  -6   0   8   16.20    2.50
  -6   0   8   12.30    2.10
   5   0  -8    6.40    2.00
   5   0  -8    4.40    1.20
  -5   0   8    6.10    1.60
  -5   0   8    4.40    1.60
   4   0  -8   18.30    2.00
   4   0  -8   20.50    2.20
  -4   0   8   20.50    2.20
  -4   0   8   20.40    1.90
   3   0  -8  142.69    5.00
   3   0  -8  146.49    5.50
   3   0  -8  154.48    5.40
  -3   0   8  148.69    5.60
  -3   0   8  154.88    5.20
   2   0  -8    2.00    0.60
   2   0  -8    0.60    1.10
   2   0  -8    1.70    0.60
   2   0  -8    1.00    0.90
  -2   0   8    1.80    1.20
  -2   0   8    2.20    0.80
   1   0  -8    6.50    1.40
   1   0  -8    7.90    0.80
   1   0  -8    6.00    0.70
  -1   0   8    5.60    0.60
  -1   0   8    6.10    0.80
  -1   0   8    5.60    0.90
  -1   0   8    6.50    1.40
   0   0  -8   57.49    2.80
   0   0  -8   56.49    2.60
   0   0  -8   57.99    2.20
   0   0  -8   57.19    2.30
   0   0   8   57.69    2.30
   0   0   8   57.69    2.30
   0   0   8   59.69    2.90
   0   0   8   58.89    2.20
  -1   0  -8   29.40    1.50
  -1   0  -8   30.30    1.60
  -1   0  -8   28.40    1.70
  -1   0  -8   30.30    2.00
   1   0   8   29.30    1.50
   1   0   8   27.00    1.50
   1   0   8   30.50    1.80
   1   0   8   30.90    2.10
  -2   0  -8  186.38    6.10
  -2   0  -8  187.98    6.40
  -2   0  -8  184.78    5.90
  -2   0  -8  181.38    6.10
   2   0   8  164.78    5.90
   2   0   8  173.88    6.30
   2   0   8  183.08    6.20
   2   0   8  183.38    5.90
  -3   0  -8  114.09    4.20
  -3   0  -8  107.09    4.30
   3   0   8  112.79    3.90
   3   0   8  115.19    4.30
   3   0   8  110.99    4.20
  -4   0  -8  258.57    8.90
  -4   0  -8  262.67    8.10
   4   0   8  258.77    8.10
   4   0   8  268.37    8.80
   4   0   8  264.27    8.80
   5   0   8    6.60    1.70
   5   0   8    2.60    1.40
  -6   0  -8   16.90    2.50
   6   0   8   13.60    2.10
   6   0   8   18.30    2.30
  -7   0  -8   48.70    3.70
   7   0   8   48.00    3.50
   7   0   8   39.60    3.20
   7  -2  -9   13.20    3.10
   6  -2  -9   18.50    3.00
  -6   2   9   14.80    2.30
  -6   2   9   19.30    2.40
   5  -2  -9   14.20    1.90
   5  -2  -9   14.90    2.60
  -5   2   9   15.60    2.10
  -5   2   9   12.00    1.80
   4  -2  -9   20.10    2.10
   4  -2  -9   17.80    2.40
  -4   2   9   19.10    2.10
  -4   2   9   16.70    1.70
   3  -2  -9  141.89    5.30
   3  -2  -9  137.89    4.50
  -3   2   9  138.49    5.30
  -3   2   9  134.99    4.60
   2  -2  -9  197.38    5.90
   2  -2  -9  206.38    7.00
  -2   2   9  201.58    6.80
  -2   2   9  189.28    5.90
  -2   2   9  189.68    6.80
   1  -2  -9   16.30    1.80
  -1   2   9   16.70    1.50
  -1   2   9   13.80    1.50
   0  -2  -9   62.29    2.70
   0  -2  -9   59.19    2.90
   0   2   9   57.89    2.70
   0   2   9   66.79    2.80
  -1  -2  -9  242.28    7.80
  -1  -2  -9  226.98    7.10
  -1  -2  -9  214.48    7.50
   1   2   9  246.18    7.60
   1   2   9  236.68    7.80
   1   2   9  243.48    7.20
  -2  -2  -9   69.09    3.00
  -2  -2  -9   66.89    2.60
  -2  -2  -9   71.19    2.80
   2   2   9   66.29    2.60
   2   2   9   68.79    3.00
   2   2   9   64.79    3.00
  -3  -2  -9  131.49    4.70
  -3  -2  -9  129.39    4.40
  -3  -2  -9  126.29    4.70
   3   2   9  127.59    4.60
   3   2   9  126.29    4.30
   3   2   9  131.19    4.90
  -4  -2  -9   30.30    2.00
  -4  -2  -9   32.90    2.50
   4   2   9   32.10    2.00
   4   2   9   32.50    2.40
  -5  -2  -9    3.10    1.10
  -5  -2  -9    4.00    2.20
   5   2   9    2.10    1.10
   5   2   9    1.20    1.70
  -6  -2  -9   53.39    3.40
   6   2   9   45.00    3.10
   6   2   9   49.80    3.40
   7   2   9   30.60    3.40
   6  -4 -10    1.90    2.60
  -6   4  10    1.70    1.90
   5  -4 -10    4.10    2.30
   5  -4 -10    3.30    1.60
  -5   4  10    4.00    1.70
   4  -4 -10   24.00    2.80
   4  -4 -10   24.30    2.40
  -4   4  10   28.30    1.70
  -4   4  10   25.70    2.40
   3  -4 -10   65.69    3.50
   3  -4 -10   64.49    2.30
  -3   4  10   65.79    3.30
  -3   4  10   64.99    2.40
   2  -4 -10  126.39    4.90
  -2   4  10  127.39    4.70
  -2   4  10  112.99    5.00
   1  -4 -10  102.59    4.20
  -1   4  10   99.89    3.80
  -1   4  10  102.39    4.40
   0  -4 -10   50.79    2.30
   0  -4 -10   54.99    2.80
   0   4  10   52.19    2.30
   0   4  10   57.29    3.00
  -1  -4 -10    4.60    1.20
  -1  -4 -10    4.90    0.70
  -1  -4 -10    4.00    0.70
   1   4  10    6.30    1.70
   1   4  10    3.40    0.70
  -2  -4 -10   97.39    3.50
  -2  -4 -10   95.69    3.90
  -2  -4 -10   93.79    3.10
   2   4  10   93.59    3.20
   2   4  10   91.09    4.10
   2   4  10   84.59    3.40
  -3  -4 -10  149.19    5.50
  -3  -4 -10  154.28    5.40
   3   4  10  146.99    4.80
   3   4  10  148.79    5.80
   3   4  10  146.69    4.60
  -4  -4 -10   20.90    2.10
  -4  -4 -10   22.40    1.90
  -5  -4 -10    3.40    1.80
  -5  -4 -10    4.70    1.30
   5   4  10    3.60    1.90
  -6  -4 -10    8.60    2.20
   6   4  10    5.20    2.20
  -7  -4 -10    2.90    4.00
   5  -6 -11   17.50    3.00
  -5   6  11    9.80    2.10
   4  -6 -11    0.50    1.70
  -4   6  11    2.00    1.50
   3  -6 -11   -1.00    1.40
  -3   6  11    1.30    1.80
   2  -6 -11   36.50    2.70
  -2   6  11   39.60    2.40
  -2   6  11   34.40    3.70
   1  -6 -11  137.89    5.50
  -1   6  11  133.79    4.90
  -1   6  11  138.19    5.90
   0  -6 -11    1.40    1.40
   0  -6 -11    0.00    0.90
   0   6  11    2.40    1.60
   0   6  11    2.20    0.80
  -1  -6 -11   11.80    1.00
  -1  -6 -11   12.90    2.00
   1   6  11   12.90    2.30
   1   6  11   13.30    0.80
  -2  -6 -11    3.30    1.50
  -2  -6 -11    6.40    1.20
  -3  -6 -11  124.09    4.70
   3   6  11  115.99    5.50
  -4  -6 -11   64.19    3.40
  -4  -6 -11   59.79    3.40
   4   6  11   65.19    3.90
  -5  -6 -11   13.50    2.30
  -5  -6 -11   21.40    2.70
   5   6  11   20.50    2.80
  -6  -6 -11    3.40    2.40
  -4   8  12    9.20    2.10
   3  -8 -12   -1.90    1.70
  -3   8  12    0.50    1.70
  -3   8  12    0.60    2.30
   2  -8 -12   13.00    2.30
  -2   8  12   11.80    1.80
   1  -8 -12   41.80    3.20
  -1   8  12   42.60    3.50
   0  -8 -12   53.09    3.30
   0   8  12   47.90    3.60
  -1  -8 -12   33.60    2.70
   1   8  12   40.30    3.20
  -2  -8 -12    2.00    1.70
   2   8  12    6.20    2.30
  -3  -8 -12   13.60    2.50
  -4  -8 -12   47.20    3.40
  -4  -8 -12   47.10    3.30
   4   8  12   43.80    3.80
  -5  -8 -12   27.80    4.50
  -5  -8 -12   25.50    3.20
   2 -10 -13    7.00    2.30
   1 -10 -13    6.60    2.30
  -1  10  13    6.80    2.70
   0 -10 -13   14.10    2.80
   0  10  13   12.30    3.10
   1  10  13   33.80    3.60
   2   9  -4    1.40    1.70
  -2  -9   4    0.80    2.50
   1   9  -4    8.50    2.20
  -1  -9   4   15.70    3.00
  -1  -9   4    8.70    2.20
   0   9  -4    3.40    2.00
   0  -9   4    1.60    2.20
   0  -9   4    0.80    2.50
  -1   9  -4   95.79    4.80
   1  -9   4   88.29    4.60
   1  -9   4   93.99    5.20
  -2   9  -4   13.40    2.20
   2  -9   4    8.90    2.60
   2  -9   4   13.30    2.30
  -3   9  -4   15.40    4.90
   3  -9   4   13.60    3.10
   3  -9   4   13.60    2.40
   5   7  -5    1.90    1.90
  -5  -7   5   -0.50    2.50
   4   7  -5    9.10    2.10
  -4  -7   5   13.10    2.80
  -4  -7   5   11.90    2.10
   3   7  -5  118.59    5.30
  -3  -7   5  118.19    5.90
  -3  -7   5  119.79    5.70
   2   7  -5   55.79    3.30
  -2  -7   5   58.89    3.30
  -2  -7   5   53.79    3.80
   1   7  -5   17.90    2.20
  -1  -7   5   18.80    2.40
  -1  -7   5   16.40    2.60
   0   7  -5    0.30    1.40
   0  -7   5    1.40    1.80
   0  -7   5   -0.60    1.80
  -1   7  -5   35.10    3.10
   1  -7   5   32.10    3.00
   1  -7   5   33.40    2.70
  -2   7  -5   50.89    2.90
  -2   7  -5   51.89    3.70
   2  -7   5   53.39    3.40
   2  -7   5   50.39    3.70
  -3   7  -5   39.80    3.50
  -3   7  -5   45.80    2.80
   3  -7   5   48.00    3.70
   3  -7   5   48.40    3.30
  -4   7  -5   38.20    3.80
   4  -7   5   36.50    3.70
   4  -7   5   32.00    3.10
  -5   7  -5    2.70    3.70
   5  -7   5    9.20    2.90
   6   5  -6   14.90    2.70
   6   5  -6   21.20    2.50
  -6  -5   6   14.90    2.80
  -6  -5   6   21.80    2.40
   5   5  -6   14.70    2.20
   5   5  -6   15.00    2.30
  -5  -5   6   17.70    3.10
  -5  -5   6   20.80    2.20
   4   5  -6    0.60    1.40
   4   5  -6    1.00    1.30
  -4  -5   6   -0.20    2.00
  -4  -5   6    0.90    1.50
   3   5  -6  175.78    6.30
  -3  -5   6  192.08    7.00
  -3  -5   6  191.28    7.50
   2   5  -6   16.90    2.10
   2   5  -6   16.80    1.10
  -2  -5   6   15.60    2.40
  -2  -5   6   12.80    2.10
   1   5  -6  165.48    6.20
  -1  -5   6  158.48    6.60
  -1  -5   6  183.98    6.70
   0   5  -6   60.39    3.20
   0  -5   6   64.09    3.50
   0  -5   6   64.49    3.60
  -1   5  -6    8.30    1.60
  -1   5  -6   10.10    2.10
   1  -5   6    8.60    1.80
   1  -5   6    9.50    1.80
  -2   5  -6   22.10    1.90
  -2   5  -6   21.30    2.60
   2  -5   6   26.60    2.70
   2  -5   6   21.60    2.30
  -3   5  -6   73.49    4.40
  -3   5  -6   75.79    3.20
   3  -5   6   76.59    3.90
   3  -5   6   73.69    4.70
   3  -5   6   72.59    2.70
  -4   5  -6   20.70    3.00
   4  -5   6   19.40    2.50
   4  -5   6   16.40    1.50
  -5   5  -6   63.69    4.40
   5  -5   6   74.69    4.30
  -6   5  -6    5.20    2.70
   7   3  -7    4.60    2.40
  -7  -3   7    7.10    2.30
   6   3  -7   14.30    2.50
   6   3  -7   15.70    2.10
  -6  -3   7   13.60    2.70
  -6  -3   7   14.40    2.10
   5   3  -7   31.20    2.60
   5   3  -7   35.60    2.40
  -5  -3   7   37.10    3.00
  -5  -3   7   33.20    2.80
   4   3  -7   10.90    1.70
   4   3  -7   12.40    1.80
  -4  -3   7   14.40    2.40
  -4  -3   7   13.00    2.00
   3   3  -7   36.00    2.40
   3   3  -7   34.20    2.10
  -3  -3   7   36.30    2.60
  -3  -3   7   32.70    2.60
   2   3  -7   45.60    1.80
   2   3  -7   44.50    1.90
   2   3  -7   43.20    2.60
  -2  -3   7   39.50    2.60
  -2  -3   7   36.20    2.70
   1   3  -7  361.76   11.40
  -1  -3   7  375.26   11.70
  -1  -3   7  333.77   11.50
   0   3  -7  101.39    4.00
   0  -3   7  102.39    4.20
   0  -3   7  102.29    4.50
  -1   3  -7   22.90    1.80
  -1   3  -7   20.80    2.00
   1  -3   7   23.50    2.10
   1  -3   7   22.80    1.90
  -2   3  -7   20.70    2.10
  -2   3  -7   22.80    1.70
   2  -3   7   20.10    1.00
   2  -3   7   20.60    1.90
  -3   3  -7  139.79    4.90
  -3   3  -7  136.29    5.70
  -3   3  -7  141.39    4.70
   3  -3   7  142.39    5.50
   3  -3   7  140.09    4.70
  -4   3  -7   63.59    3.90
  -4   3  -7   62.49    3.00
   4  -3   7   64.49    2.90
   4  -3   7   61.09    4.10
  -5   3  -7   37.50    3.20
   5  -3   7   36.80    2.50
   5  -3   7   36.80    2.80
  -6   3  -7    5.20    2.20
   6  -3   7    3.00    2.00
   6  -3   7    2.50    1.80
   7  -3   7    0.60    2.20
   7   1  -8   18.80    3.20
  -7  -1   8   28.40    3.30
  -7  -1   8   24.60    2.80
   6   1  -8   15.60    2.60
   6   1  -8   18.40    1.80
  -6  -1   8   15.60    2.40
  -6  -1   8   21.40    2.50
   5   1  -8   62.99    3.70
   5   1  -8   65.59    3.30
  -5  -1   8   64.59    3.60
  -5  -1   8   60.69    3.50
   4   1  -8  117.29    4.90
   4   1  -8  122.69    4.80
  -4  -1   8  119.49    4.80
  -4  -1   8  120.99    5.00
   3   1  -8   15.70    1.90
   3   1  -8   18.70    1.70
  -3  -1   8   12.90    1.70
  -3  -1   8   16.40    1.90
   2   1  -8   33.00    1.60
   2   1  -8   35.80    1.90
   2   1  -8   31.10    1.60
   2   1  -8   30.00    2.20
  -2  -1   8   33.40    2.00
  -2  -1   8   31.80    2.40
   1   1  -8   38.30    1.70
   1   1  -8   37.40    1.60
   1   1  -8   38.70    2.40
  -1  -1   8   35.30    1.70
  -1  -1   8   37.90    2.50
   0   1  -8  452.65   12.80
   0   1  -8  394.26   13.40
   0  -1   8  441.36   13.70
   0  -1   8  447.46   13.20
   0  -1   8  428.46   12.80
  -1   1  -8  469.45   13.40
  -1   1  -8  432.36   13.90
  -1   1  -8  460.65   13.90
   1  -1   8  439.96   13.40
   1  -1   8  450.55   13.80
   1  -1   8  454.45   14.10
  -2   1  -8   16.40    1.60
  -2   1  -8   15.00    1.60
  -2   1  -8   13.40    1.10
   2  -1   8   15.30    1.60
   2  -1   8   16.60    1.10
   2  -1   8   12.90    1.30
  -3   1  -8    6.50    1.60
  -3   1  -8    6.90    1.30
   3  -1   8    5.90    1.20
   3  -1   8    7.50    1.50
   3  -1   8    6.10    0.80
  -4   1  -8   80.89    3.80
  -4   1  -8   75.09    3.70
   4  -1   8   84.39    3.80
   4  -1   8   82.09    2.90
   4  -1   8   81.19    3.50
  -5   1  -8  151.78    6.20
   5  -1   8  155.88    5.80
   5  -1   8  152.18    6.90
  -6   1  -8   33.40    3.10
   6  -1   8   36.50    2.70
   6  -1   8   28.20    2.70
  -7   1  -8    1.20    2.40
   7  -1   8    1.70    1.90
   7  -1   8    1.90    2.10
   7  -1  -9    5.20    2.80
  -7   1   9    5.90    2.60
   6  -1  -9   11.00    2.50
  -6   1   9   12.20    2.20
  -6   1   9   10.80    2.30
   5  -1  -9  101.29    4.90
   5  -1  -9  100.79    4.30
  -5   1   9  103.49    4.70
  -5   1   9   96.39    4.20
   4  -1  -9   95.79    4.30
   4  -1  -9   92.09    4.10
  -4   1   9   92.89    3.80
  -4   1   9   94.19    4.30
   3  -1  -9   13.30    1.10
   3  -1  -9   16.50    1.90
   3  -1  -9   15.40    2.00
  -3   1   9   15.80    1.70
   2  -1  -9   94.59    4.00
   2  -1  -9   92.59    3.10
  -2   1   9   92.29    3.90
  -2   1   9   88.69    3.10
   1  -1  -9   45.80    2.60
   1  -1  -9   42.80    2.00
  -1   1   9   42.10    2.40
  -1   1   9   43.90    1.70
  -1   1   9   44.10    1.60
  -1   1   9   46.10    2.20
   0  -1  -9   65.19    2.30
   0  -1  -9   67.49    2.90
   0  -1  -9   69.49    2.60
   0  -1  -9   67.39    3.20
   0   1   9   68.19    2.80
   0   1   9   63.69    3.00
   0   1   9   62.09    2.30
   0   1   9   66.39    2.30
  -1  -1  -9  303.07    9.00
  -1  -1  -9  310.47    9.60
  -1  -1  -9  261.77    9.10
  -1  -1  -9  262.37    9.20
   1   1   9  311.47    9.30
   1   1   9  291.07    8.90
   1   1   9  306.67    9.50
  -2  -1  -9  132.29    4.60
  -2  -1  -9  135.69    5.00
  -2  -1  -9  135.79    4.70
   2   1   9  132.09    4.70
   2   1   9  131.79    4.60
   2   1   9  134.89    4.90
  -3  -1  -9    9.50    1.50
  -3  -1  -9    9.20    1.50
   3   1   9    8.00    1.40
   3   1   9    7.70    1.40
  -4  -1  -9    8.10    1.50
  -4  -1  -9   10.90    1.90
   4   1   9    9.00    1.80
   4   1   9    7.90    1.40
  -5  -1  -9   24.80    2.20
  -5  -1  -9   25.90    4.10
   5   1   9   27.20    2.60
   5   1   9   25.60    2.10
  -6  -1  -9   63.99    3.90
   6   1   9   52.49    4.40
   6   1   9   65.89    3.90
  -7  -1  -9   17.70    3.10
   7   1   9   16.80    2.90
   6  -3 -10   -1.00    2.40
  -6   3  10    2.60    1.80
   5  -3 -10    8.40    2.20
   5  -3 -10    8.50    1.60
  -5   3  10    6.80    1.50
  -5   3  10    5.50    1.90
   4  -3 -10   42.10    2.80
   4  -3 -10   40.00    3.10
  -4   3  10   41.00    2.80
  -4   3  10   39.30    2.20
   3  -3 -10  102.69    3.40
   3  -3 -10  107.29    4.70
  -3   3  10  103.19    4.40
  -3   3  10  102.39    3.40
   2  -3 -10   66.99    3.50
  -2   3  10   64.59    3.30
  -2   3  10   73.29    3.30
   1  -3 -10    4.20    1.30
  -1   3  10    4.50    1.10
  -1   3  10    5.50    1.40
   0  -3 -10   95.09    3.90
   0  -3 -10   91.79    3.60
   0   3  10   97.79    3.90
   0   3  10   92.79    3.60
  -1  -3 -10   96.09    3.10
  -1  -3 -10   96.09    3.50
  -1  -3 -10   94.99    3.90
   1   3  10   95.59    4.10
   1   3  10   89.99    3.60
   1   3  10   93.79    3.20
  -2  -3 -10  188.38    6.50
  -2  -3 -10  187.48    6.00
  -2  -3 -10  194.08    6.10
   2   3  10  183.18    6.10
   2   3  10  177.08    6.60
   2   3  10  189.88    6.40
  -3  -3 -10   49.30    2.50
  -3  -3 -10   50.29    2.60
  -3  -3 -10   47.80    2.00
   3   3  10   49.30    2.50
   3   3  10   49.00    2.00
   3   3  10   45.90    2.80
  -4  -3 -10    1.30    1.10
  -4  -3 -10    0.90    1.40
   4   3  10    1.20    1.40
   4   3  10   -0.40    0.90
  -5  -3 -10   32.70    2.90
  -5  -3 -10   31.30    2.20
   5   3  10   34.80    2.90
  -6  -3 -10   49.40    3.50
   6   3  10   46.60    3.50
  -7  -3 -10   15.40    3.00
   6  -5 -11    8.40    2.80
   5  -5 -11   -0.90    1.70
   5  -5 -11   -2.40    2.00
  -5   5  11    0.40    1.80
   4  -5 -11    6.30    1.90
  -4   5  11    8.90    1.90
   3  -5 -11  142.59    5.60
  -3   5  11  139.59    5.50
  -3   5  11  126.09    5.80
   2  -5 -11   45.10    2.90
  -2   5  11   37.00    2.90
  -2   5  11   41.50    2.50
   1  -5 -11  105.19    4.50
  -1   5  11  102.29    4.00
  -1   5  11  106.99    4.70
   0  -5 -11   77.19    3.70
   0  -5 -11   69.59    2.90
   0   5  11   75.19    3.80
   0   5  11   74.09    2.90
  -1  -5 -11  235.48    7.30
  -1  -5 -11  230.48    8.00
  -1  -5 -11  227.68    7.10
   1   5  11  236.18    7.20
   1   5  11  235.08    7.20
   1   5  11  229.68    8.50
  -2  -5 -11  111.79    4.60
  -2  -5 -11  112.09    3.90
   2   5  11  111.49    4.90
   2   5  11   96.89    4.10
  -3  -5 -11   39.90    2.70
  -3  -5 -11   41.10    2.40
  -4  -5 -11   65.39    3.40
  -4  -5 -11   71.29    3.40
   4   5  11   67.69    3.90
  -5  -5 -11    2.30    1.50
  -5  -5 -11    1.50    1.80
   5   5  11    3.00    1.80
  -6  -5 -11    6.20    2.30
   6   5  11    5.10    2.20
  -5   7  12    3.90    2.10
   4  -7 -12   -2.00    1.80
  -4   7  12   -2.00    1.70
   3  -7 -12    9.60    2.00
  -3   7  12    8.30    2.30
   2  -7 -12   40.70    3.10
  -2   7  12   41.20    3.40
  -2   7  12   47.80    2.60
   1  -7 -12   46.20    3.10
  -1   7  12   49.80    3.40
  -1   7  12   46.70    2.40
   0  -7 -12    8.40    1.90
   0   7  12    9.10    2.10
  -1  -7 -12   21.40    2.40
   1   7  12   23.70    2.70
  -2  -7 -12   16.80    2.40
  -2  -7 -12   17.90    1.60
   2   7  12   17.20    2.90
  -3  -7 -12   78.49    4.20
  -3  -7 -12   85.59    3.70
   3   7  12   88.49    4.70
  -4  -7 -12   33.60    3.00
  -4  -7 -12   32.70    2.80
   4   7  12   32.40    3.40
  -5  -7 -12    2.90    2.20
  -5  -7 -12   -1.00    1.90
   5   7  12    3.20    2.40
  -6  -7 -12    3.30    2.80
   4  -9 -13    3.20    3.40
   3  -9 -13    8.90    2.40
  -3   9  13    6.50    4.20
   2  -9 -13    9.90    2.30
  -2   9  13   11.60    2.80
   1  -9 -13   23.40    2.90
  -1   9  13   21.60    3.20
   0  -9 -13   44.90    3.40
   0   9  13   48.00    3.90
  -1  -9 -13   10.10    2.00
   1   9  13    7.80    2.80
  -2  -9 -13   10.10    2.20
   2   9  13    5.10    2.70
  -3  -9 -13   16.00    2.90
   3   9  13   18.40    3.50
   0  10  -4   56.09    4.40
   0 -10   4   38.80    3.90
  -1  10  -4    8.80    2.30
   1 -10   4    0.60    2.40
  -2  10  -4    5.00    2.20
   4   8  -5   14.80    2.40
  -4  -8   5   20.40    4.00
   3   8  -5    9.40    2.10
  -3  -8   5    7.30    2.80
  -3  -8   5   11.10    2.10
   2   8  -5   30.60    3.00
  -2  -8   5   34.90    3.50
  -2  -8   5   37.50    2.90
   1   8  -5    8.30    2.00
  -1  -8   5    8.40    2.30
  -1  -8   5   12.30    2.20
   0   8  -5   32.30    2.90
   0  -8   5   34.10    3.00
   0  -8   5   37.70    3.40
  -1   8  -5   26.50    2.50
   1  -8   5   17.70    2.50
   1  -8   5   20.60    2.80
  -2   8  -5  128.59    5.30
   2  -8   5  120.59    5.60
   2  -8   5  118.99    5.90
  -3   8  -5    9.30    1.70
  -3   8  -5    6.60    2.60
   3  -8   5    9.50    2.30
   3  -8   5    8.40    2.50
   4  -8   5    5.00    3.40
   6   6  -6   -3.40    2.00
   5   6  -6    3.70    1.70
  -5  -6   6    2.80    1.70
  -5  -6   6    2.20    2.60
   4   6  -6   77.09    4.10
  -4  -6   6   81.89    4.80
  -4  -6   6   84.09    4.10
   3   6  -6   69.09    3.80
  -3  -6   6   64.79    3.60
  -3  -6   6   68.29    4.20
   2   6  -6   22.30    2.40
  -2  -6   6   24.60    2.50
  -2  -6   6   16.30    2.50
  -1  -6   6    3.00    1.70
  -1  -6   6    4.40    2.00
   0   6  -6   32.00    2.50
   0  -6   6   32.60    2.80
   0  -6   6   34.30    2.80
  -1   6  -6   90.99    4.10
   1  -6   6   88.89    6.30
  -2   6  -6   34.20    2.30
  -2   6  -6   37.70    3.00
   2  -6   6   33.20    2.90
   2  -6   6   33.00    2.80
  -3   6  -6   73.79    4.50
  -3   6  -6   64.29    3.20
   3  -6   6   73.59    4.00
   3  -6   6   64.09    4.30
  -4   6  -6  132.49    6.50
   4  -6   6  139.09    6.00
   4  -6   6  127.99    6.30
  -5   6  -6   19.70    3.40
   5  -6   6   11.50    2.40
   7   4  -7    2.10    2.50
  -7  -4   7   10.80    2.30
   6   4  -7   13.20    2.30
  -6  -4   7   16.70    2.40
  -6  -4   7   13.80    2.60
   5   4  -7    7.60    1.90
   5   4  -7    6.60    1.60
  -5  -4   7    5.60    2.10
  -5  -4   7    7.70    1.60
   4   4  -7   30.50    2.30
   3   4  -7    9.00    1.80
   3   4  -7    7.70    1.40
  -3  -4   7    9.70    2.10
  -3  -4   7   10.30    1.90
   2   4  -7  570.24   17.20
   2   4  -7  527.75   16.20
   2   4  -7  583.84   16.20
  -2  -4   7  516.05   17.30
  -2  -4   7  549.15   17.30
   1   4  -7   75.69    3.50
  -1  -4   7   72.49    3.80
  -1  -4   7   79.59    3.90
   0   4  -7    5.40    1.40
   0  -4   7    7.90    1.90
   0  -4   7    6.60    1.60
  -1   4  -7   10.60    1.80
  -1   4  -7   10.20    1.60
   1  -4   7   10.40    1.70
   1  -4   7   10.90    1.90
  -2   4  -7  241.58    8.70
  -2   4  -7  237.18    8.00
   2  -4   7  241.78    8.70
   2  -4   7  246.18    8.60
  -3   4  -7  118.69    4.40
  -3   4  -7  118.19    5.30
   3  -4   7  116.69    4.00
  -4   4  -7  210.58    7.00
  -4   4  -7  218.68    8.50
   4  -4   7  221.18    8.00
   4  -4   7  215.58    7.10
  -5   4  -7    9.20    2.40
   5  -4   7    4.10    2.00
   5  -4   7    5.00    1.40
  -6   4  -7    4.00    2.70
   6  -4   7   -2.70    2.00
   7   2  -8   -2.00    2.40
  -7  -2   8    2.70    2.60
  -7  -2   8    0.50    2.10
   6   2  -8   20.40    2.90
   6   2  -8   19.20    2.50
  -6  -2   8   21.10    2.80
  -6  -2   8   16.20    2.50
   5   2  -8   19.30    2.40
   5   2  -8   25.40    2.10
  -5  -2   8   26.40    2.50
  -5  -2   8   28.40    2.50
   4   2  -8   14.80    2.00
   4   2  -8   16.90    1.90
  -4  -2   8   14.50    2.10
  -4  -2   8   14.70    2.10
   3   2  -8   27.60    2.30
   3   2  -8   28.30    2.00
  -3  -2   8   27.60    2.40
  -3  -2   8   25.70    2.30
   2   2  -8  207.08    7.00
   2   2  -8  204.38    6.30
   2   2  -8  205.78    6.40
  -2  -2   8  185.58    6.80
  -2  -2   8  181.28    7.10
   1   2  -8  110.79    3.50
   1   2  -8  108.79    3.50
   1   2  -8  108.09    4.40
  -1  -2   8  111.79    4.60
  -1  -2   8  102.79    4.20
   0   2  -8  124.69    4.80
   0  -2   8  127.19    4.70
   0  -2   8  122.29    5.10
  -1   2  -8   29.20    2.00
  -1   2  -8   28.50    2.00
   1  -2   8   27.30    2.00
   1  -2   8   28.10    2.10
  -2   2  -8  120.39    4.90
  -2   2  -8  123.39    4.00
  -2   2  -8  120.89    4.50
   2  -2   8  120.99    4.80
   2  -2   8  119.99    4.00
  -3   2  -8  187.48    6.20
  -3   2  -8  192.38    7.10
  -3   2  -8  193.08    6.40
   3  -2   8  192.18    7.00
   3  -2   8  194.58    6.30
  -4   2  -8  154.08    5.10
  -4   2  -8  152.08    6.10
   4  -2   8  152.08    5.40
   4  -2   8  155.68    6.00
  -5   2  -8   24.80    2.70
   5  -2   8   24.40    2.60
   5  -2   8   27.40    2.20
  -6   2  -8   48.70    4.10
   6  -2   8   57.89    3.30
   6  -2   8   48.90    3.40
   7   0  -9    6.90    2.70
  -7   0   9    1.30    2.50
   6   0  -9   64.19    4.20
   6   0  -9   66.79    3.30
  -6   0   9   63.59    3.70
  -6   0   9   67.49    4.00
   5   0  -9    9.50    1.60
  -5   0   9   13.70    2.00
  -5   0   9   11.10    1.80
   4   0  -9    4.90    1.80
   4   0  -9    7.90    1.70
  -4   0   9    7.90    1.50
  -4   0   9    6.80    1.60
   3   0  -9    1.50    1.40
   3   0  -9    1.20    1.20
  -3   0   9   -0.40    0.90
  -3   0   9   -0.10    1.30
   2   0  -9  180.38    6.20
   2   0  -9  175.88    6.40
   2   0  -9  177.78    5.80
  -2   0   9  184.58    5.90
  -2   0   9  184.48    6.60
   1   0  -9  166.48    5.30
  -1   0   9  155.48    5.80
  -1   0   9  155.28    5.60
  -1   0   9  149.79    5.20
  -1   0   9  165.08    5.20
   0   0  -9  790.32   23.80
   0   0  -9  788.82   23.30
   0   0  -9  783.52   23.30
   0   0   9  810.72   23.40
   0   0   9  801.22   23.30
   0   0   9  802.32   23.90
   0   0   9  774.62   23.30
  -1   0  -9    0.80    1.10
  -1   0  -9    2.30    1.20
  -1   0  -9    2.80    0.70
   1   0   9    2.30    1.30
   1   0   9    3.00    0.80
   1   0   9    2.10    0.70
  -2   0  -9    2.00    1.20
  -2   0  -9    3.20    1.10
  -2   0  -9    3.30    0.80
   2   0   9    2.20    0.90
   2   0   9    2.30    1.10
  -3   0  -9   17.80    1.70
  -3   0  -9   18.10    1.80
   3   0   9   18.00    1.60
   3   0   9   15.50    1.80
  -4   0  -9  696.63   21.60
  -4   0  -9  694.53   21.00
   4   0   9  697.83   20.80
   4   0   9  715.73   21.50
   4   0   9  712.83   21.40
  -5   0  -9   76.69    4.00
   5   0   9   73.69    3.80
   5   0   9   76.19    3.70
  -6   0  -9   46.90    3.40
   6   0   9   46.80    3.30
   6   0   9   42.30    2.90
  -7   0  -9    5.80    2.50
   7   0   9   -1.10    2.00
   7   0   9    2.70    2.20
   6  -2 -10   28.80    3.30
  -6   2  10   22.80    2.60
   5  -2 -10   30.30    3.10
   5  -2 -10   35.10    2.40
  -5   2  10   29.20    2.20
  -5   2  10   35.50    2.90
   4  -2 -10   38.10    2.90
   4  -2 -10   36.60    2.70
  -4   2  10   39.50    2.80
  -4   2  10   33.40    2.00
   3  -2 -10   49.20    1.90
   3  -2 -10   51.39    3.10
  -3   2  10   48.20    2.00
  -3   2  10   50.69    3.00
   2  -2 -10   67.39    3.40
  -2   2  10   66.39    3.20
  -2   2  10   61.19    3.10
   1  -2 -10  149.19    5.80
  -1   2  10  152.88    5.50
  -1   2  10  150.18    5.50
   0  -2 -10  343.27   11.00
   0  -2 -10  345.87   10.80
   0   2  10  362.96   10.90
   0   2  10  313.17   10.80
  -1  -2 -10  202.58    6.20
  -1  -2 -10  192.38    6.60
  -1  -2 -10  196.58    6.80
   1   2  10  202.08    6.70
   1   2  10  196.68    6.20
   1   2  10  197.18    6.90
  -2  -2 -10  109.09    3.90
  -2  -2 -10  108.29    3.90
  -2  -2 -10  108.29    4.20
   2   2  10  106.59    4.20
   2   2  10  108.79    4.20
   2   2  10  103.79    3.80
  -3  -2 -10    0.10    0.80
  -3  -2 -10    1.30    1.10
  -3  -2 -10    0.30    1.20
   3   2  10    0.90    1.30
   3   2  10    1.40    0.80
   3   2  10    0.30    1.00
  -4  -2 -10   37.80    2.40
  -4  -2 -10   45.30    2.70
   4   2  10   41.50    2.70
   4   2  10   38.70    2.30
  -5  -2 -10   57.49    3.50
  -5  -2 -10   46.20    2.70
   5   2  10   52.29    2.80
   5   2  10   48.10    3.20
  -6  -2 -10  263.27    9.60
   6   2  10  261.37    9.60
  -7  -2 -10   18.30    3.20
   7   2  10   21.60    2.90
   6  -4 -11    4.50    2.70
  -6   4  11    6.40    2.20
   5  -4 -11   12.80    2.10
   5  -4 -11   16.00    2.90
  -5   4  11   13.10    2.40
   4  -4 -11    4.50    1.80
   4  -4 -11    4.10    2.20
  -4   4  11    6.60    1.70
   3  -4 -11   59.29    3.60
  -3   4  11   62.49    3.30
   2  -4 -11   15.10    2.20
  -2   4  11   15.10    1.70
  -2   4  11   14.70    2.00
   1  -4 -11   14.20    2.00
  -1   4  11   15.00    2.00
  -1   4  11   16.00    1.60
   0  -4 -11  177.58    6.40
   0  -4 -11  169.08    6.00
   0   4  11  182.28    6.60
   0   4  11  180.48    6.00
  -1  -4 -11  161.28    5.80
  -1  -4 -11  151.48    4.90
  -1  -4 -11  161.88    5.30
   1   4  11  163.68    5.30
   1   4  11  164.68    6.20
   1   4  11  141.29    4.90
  -2  -4 -11  123.59    4.80
  -2  -4 -11  123.79    4.20
  -2  -4 -11  124.59    4.00
   2   4  11  112.19    4.20
   2   4  11  113.69    4.10
   2   4  11  119.59    5.00
  -3  -4 -11   15.10    1.60
  -3  -4 -11   13.70    1.80
   3   4  11   12.90    1.10
   3   4  11   14.00    2.10
  -4  -4 -11   20.50    2.00
  -4  -4 -11   15.40    1.90
   4   4  11   21.80    2.40
  -5  -4 -11   38.20    2.70
  -5  -4 -11   29.60    2.40
   5   4  11   33.90    2.90
  -6  -4 -11   59.39    3.70
   6   4  11   61.59    4.20
   5  -6 -12    2.40    2.50
  -5   6  12   -2.00    1.90
   4  -6 -12   25.10    3.10
  -4   6  12   32.80    2.80
   3  -6 -12   27.00    3.30
  -3   6  12   29.20    2.50
   2  -6 -12   21.10    3.80
  -2   6  12   20.20    2.00
  -2   6  12   22.60    2.60
   1  -6 -12   22.50    2.40
  -1   6  12   23.30    4.00
  -1   6  12   24.20    1.80
   0  -6 -12  108.29    4.90
   0   6  12  109.99    4.00
   0   6  12  109.29    5.50
  -1  -6 -12   55.99    2.10
  -1  -6 -12   56.49    4.70
   1   6  12   59.49    2.10
  -2  -6 -12  119.29    4.30
  -2  -6 -12  120.39    5.30
   2   6  12  119.19    5.60
  -3  -6 -12  108.09    4.80
  -3  -6 -12  108.69    4.30
   3   6  12  105.79    5.20
  -4  -6 -12   12.50    2.00
   4   6  12    9.60    2.20
  -5  -6 -12    8.70    1.90
  -5  -6 -12    7.60    2.20
   5   6  12   10.40    2.30
  -6  -6 -12   70.49    4.20
   4  -8 -13    4.80    2.20
  -4   8  13    7.20    2.10
   3  -8 -13   27.10    3.00
  -3   8  13   28.30    2.60
  -3   8  13   30.30    3.40
   2  -8 -13   19.90    2.70
  -2   8  13   27.10    2.50
  -2   8  13   20.10    2.80
   1  -8 -13   17.30    2.60
  -1   8  13   18.60    2.80
   0  -8 -13    6.10    1.80
   0   8  13   10.50    2.50
  -1  -8 -13    3.60    1.60
   1   8  13    1.90    2.10
  -2  -8 -13   69.79    4.00
   2   8  13   75.09    4.70
  -3  -8 -13   74.59    4.20
   3   8  13   76.79    5.00
  -4  -8 -13    9.90    2.10
   4   8  13   15.40    2.90
  -5  -8 -13   -3.40    2.30
   2   9  -5   17.70    2.60
  -2  -9   5   15.20    3.00
   1   9  -5    2.00    1.90
  -1  -9   5    1.30    2.40
  -1  -9   5    0.70    2.10
   0   9  -5   14.20    2.70
   0  -9   5   11.30    3.10
  -1   9  -5   77.69    4.30
   1  -9   5   70.79    4.80
   1  -9   5   69.49    4.20
  -2   9  -5    1.80    1.90
   2  -9   5    0.60    2.40
   5   7  -6   13.90    2.50
   4   7  -6   20.70    2.70
  -4  -7   6   20.70    3.30
   3   7  -6   22.20    2.50
  -3  -7   6   22.30    2.50
  -3  -7   6   22.60    3.60
   2   7  -6    7.50    1.90
  -2  -7   6   12.40    2.10
  -2  -7   6    9.80    2.50
   1   7  -6    6.90    1.80
  -1  -7   6    6.60    1.80
  -1  -7   6    3.30    1.80
   0   7  -6   61.29    3.50
   0  -7   6   62.19    3.90
   0  -7   6   62.09    3.90
  -1   7  -6   18.60    2.30
   1  -7   6   22.60    2.50
   1  -7   6   18.80    2.70
  -2   7  -6   28.20    3.20
   2  -7   6   26.90    3.10
   2  -7   6   29.10    2.80
  -3   7  -6    1.60    1.40
  -3   7  -6   -2.80    2.10
   3  -7   6   -0.40    1.80
   3  -7   6    2.00    2.10
  -4   7  -6   -0.60    2.60
   4  -7   6    2.90    2.80
   4  -7   6   -0.40    1.90
   6   5  -7    1.00    1.90
  -6  -5   7    1.90    2.00
  -6  -5   7    0.80    2.50
   5   5  -7    0.30    1.60
  -5  -5   7   -2.90    2.30
  -5  -5   7    4.60    1.70
   4   5  -7   57.69    2.80
   4   5  -7   60.69    3.50
  -4  -5   7   60.69    3.40
  -4  -5   7   51.69    3.80
   3   5  -7   87.39    4.10
   3   5  -7   75.59    3.20
  -3  -5   7   82.39    4.70
  -3  -5   7   81.49    4.20
   2   5  -7    7.20    1.70
  -2  -5   7    7.60    1.80
  -2  -5   7    6.70    2.00
   1   5  -7    3.10    1.50
  -1  -5   7    3.90    1.80
  -1  -5   7    1.00    1.60
   0   5  -7   22.30    2.20
   0  -5   7   23.60    2.40
   0  -5   7   25.20    2.70
  -1   5  -7    2.80    1.70
  -1   5  -7    1.20    1.30
   1  -5   7    3.10    1.60
   1  -5   7    1.90    1.50
  -2   5  -7   60.39    3.00
  -2   5  -7   62.49    3.80
   2  -5   7   60.69    3.80
   2  -5   7   57.89    3.70
  -3   5  -7  117.09    4.70
  -3   5  -7  127.99    5.90
   3  -5   7  123.79    5.60
   3  -5   7  131.69    5.60
  -4   5  -7    2.50    2.20
   4  -5   7   -0.50    1.70
  -5   5  -7  125.29    6.40
   5  -5   7  129.99    5.80
   7   3  -8    8.30    2.80
  -7  -3   8    8.80    2.90
   6   3  -8    3.00    2.10
   6   3  -8    1.10    1.50
  -6  -3   8    3.80    2.30
  -6  -3   8    0.60    1.70
   5   3  -8   16.30    2.00
   5   3  -8   13.60    2.10
  -5  -3   8   14.10    2.20
  -5  -3   8   15.20    2.40
   4   3  -8   36.60    2.50
   4   3  -8   39.30    2.70
  -4  -3   8   36.60    3.10
  -4  -3   8   40.10    3.10
   3   3  -8  168.08    6.20
   3   3  -8  164.68    5.60
  -3  -3   8  152.58    6.30
  -3  -3   8  152.18    6.20
   2   3  -8   83.79    2.90
   2   3  -8   83.79    3.80
   2   3  -8   83.89    2.80
  -2  -3   8   69.69    3.70
  -2  -3   8   78.09    4.00
   1   3  -8  101.89    4.30
  -1  -3   8  103.89    4.60
  -1  -3   8   95.79    4.20
   0   3  -8    7.50    1.50
   0  -3   8    6.50    1.80
   0  -3   8    9.50    1.60
  -1   3  -8  122.09    4.90
  -1   3  -8  118.39    4.60
   1  -3   8  122.59    4.80
   1  -3   8  112.69    4.80
  -2   3  -8  207.28    7.00
  -2   3  -8  205.08    7.50
   2  -3   8  207.78    7.40
   2  -3   8  200.28    6.20
  -3   3  -8   16.60    1.50
  -3   3  -8   17.10    2.40
  -3   3  -8   17.50    1.60
   3  -3   8   17.90    2.20
   3  -3   8   16.70    1.60
  -4   3  -8   18.70    2.60
  -4   3  -8   18.90    1.40
   4  -3   8   19.40    1.60
   4  -3   8   14.30    2.30
  -5   3  -8   -0.20    2.10
   5  -3   8   -0.90    1.50
   5  -3   8    3.60    1.40
  -6   3  -8   29.20    3.40
   6  -3   8   29.10    2.50
   6  -3   8   23.70    2.90
   7   1  -9   28.60    3.50
  -7  -1   9   30.40    3.50
   6   1  -9   30.90    2.80
   6   1  -9   31.30    3.20
  -6  -1   9   30.90    2.90
  -6  -1   9   36.60    3.00
   5   1  -9    2.90    1.40
   5   1  -9   -0.10    2.10
  -5  -1   9   -1.60    1.50
  -5  -1   9    3.50    1.60
   4   1  -9   12.60    2.00
   4   1  -9   12.70    2.00
  -4  -1   9    9.90    1.80
   3   1  -9    7.00    1.70
   3   1  -9    8.60    1.60
  -3  -1   9    8.80    1.80
  -3  -1   9    7.50    1.60
   2   1  -9  221.48    6.90
   2   1  -9  203.78    6.70
   2   1  -9  215.18    7.10
   2   1  -9  207.28    7.40
  -2  -1   9  214.28    7.40
  -2  -1   9  203.88    7.00
  -2  -1   9  195.38    7.40
   1   1  -9  128.99    4.30
   1   1  -9  124.39    5.00
  -1  -1   9  126.59    4.40
  -1  -1   9  132.89    5.10
  -1  -1   9  128.99    4.60
   0   1  -9  168.28    5.20
   0   1  -9  156.68    5.90
   0  -1   9  172.58    5.70
   0  -1   9  166.48    5.50
   0  -1   9  162.58    6.10
   0  -1   9  161.98    5.20
  -1   1  -9   70.39    3.10
  -1   1  -9   67.79    2.60
  -1   1  -9   70.89    3.30
   1  -1   9   70.59    3.10
   1  -1   9   69.39    2.60
   1  -1   9   74.29    3.50
  -2   1  -9  184.88    6.00
  -2   1  -9  181.38    6.40
  -2   1  -9  187.78    6.50
   2  -1   9  187.38    6.60
  -3   1  -9  199.68    7.10
  -3   1  -9  187.18    6.70
   3  -1   9  205.68    7.10
   3  -1   9  203.88    6.60
  -4   1  -9  134.19    4.80
  -4   1  -9  133.19    5.60
   4  -1   9  138.09    5.10
   4  -1   9  143.89    5.50
  -5   1  -9    5.10    1.90
   5  -1   9    0.60    1.50
   5  -1   9    3.30    1.60
  -6   1  -9    5.20    2.20
   6  -1   9    3.60    1.80
   6  -1   9    0.30    1.70
   7  -1   9    4.80    2.30
   7  -1   9   -0.90    2.10
   7  -1 -10   24.30    4.00
   6  -1 -10    3.10    2.30
   6  -1 -10    4.40    1.90
  -6   1  10    1.70    1.70
  -6   1  10    6.30    1.90
   5  -1 -10   69.59    3.50
   5  -1 -10   65.79    4.10
  -5   1  10   72.59    4.00
  -5   1  10   59.29    3.30
   4  -1 -10    9.80    1.90
   4  -1 -10   13.20    2.20
  -4   1  10   10.70    2.10
  -4   1  10    8.10    1.50
   3  -1 -10   50.59    2.10
   3  -1 -10   53.79    3.00
   3  -1 -10   50.29    3.10
  -3   1  10   55.59    3.10
   2  -1 -10   44.00    2.70
   2  -1 -10   41.30    1.70
  -2   1  10   43.50    1.70
  -2   1  10   43.60    2.70
  -2   1  10   41.40    1.80
   1  -1 -10  158.58    5.80
  -1   1  10  159.88    5.50
  -1   1  10  147.89    4.80
  -1   1  10  145.59    5.80
  -1   1  10  164.88    4.90
   0  -1 -10   63.19    3.20
   0  -1 -10   62.69    2.60
   0   1  10   61.09    2.20
   0   1  10   64.89    2.80
   0   1  10   66.29    2.30
   0   1  10   63.89    3.00
  -1  -1 -10   36.20    1.70
  -1  -1 -10   36.30    2.50
   1   1  10   36.00    2.10
   1   1  10   30.70    1.60
   1   1  10   36.40    2.30
  -2  -1 -10    9.70    1.80
  -2  -1 -10    8.00    1.20
   2   1  10    9.50    1.40
   2   1  10    9.50    1.60
  -3  -1 -10  117.39    4.70
  -3  -1 -10  118.39    4.50
   3   1  10  116.99    4.50
   3   1  10  117.49    4.60
  -4  -1 -10  104.19    4.10
  -4  -1 -10  104.69    4.50
   4   1  10  102.09    4.20
   4   1  10  103.79    4.40
  -5  -1 -10   63.59    3.60
   5   1  10   60.49    3.10
  -6  -1 -10    5.90    2.30
   6   1  10    4.10    1.80
  -7  -1 -10   17.40    3.00
   7   1  10   16.50    3.00
   6  -3 -11   12.30    2.90
  -6   3  11   14.90    2.30
   5  -3 -11   34.30    3.20
   5  -3 -11   31.10    2.60
  -5   3  11   33.40    2.70
   4  -3 -11   12.20    2.40
   4  -3 -11   12.90    2.20
  -4   3  11   13.10    1.40
  -4   3  11   13.50    2.10
   3  -3 -11    0.40    1.60
  -3   3  11    2.70    1.40
  -3   3  11    3.70    0.60
   2  -3 -11   17.60    2.30
  -2   3  11   18.10    2.00
  -2   3  11   18.70    1.90
   1  -3 -11  194.38    7.20
  -1   3  11  200.58    6.90
  -1   3  11  204.78    7.10
   0  -3 -11  364.36   11.80
   0   3  11  368.86   11.80
   0   3  11  370.96   11.60
  -1  -3 -11   64.19    2.60
  -1  -3 -11   60.19    2.20
  -1  -3 -11   65.29    3.20
   1   3  11   60.19    2.20
   1   3  11   56.29    2.80
   1   3  11   62.19    3.20
  -2  -3 -11    0.60    1.20
  -2  -3 -11    0.70    0.80
  -2  -3 -11    0.90    0.80
   2   3  11    2.00    1.40
   2   3  11    0.70    0.80
   2   3  11    1.00    1.10
  -3  -3 -11    4.20    1.40
  -3  -3 -11    6.00    1.20
  -3  -3 -11    3.50    0.80
   3   3  11    4.30    1.20
   3   3  11    5.50    1.60
  -4  -3 -11   88.59    3.90
  -4  -3 -11   88.49    3.90
   4   3  11   87.09    3.60
   4   3  11   90.49    4.70
  -5  -3 -11  212.48    7.70
  -5  -3 -11  208.18    7.30
   5   3  11  205.08    7.90
  -6  -3 -11   66.09    4.00
   6   3  11   70.59    4.10
   5  -5 -12    5.60    2.20
   5  -5 -12    8.20    2.50
   4  -5 -12   15.70    2.60
  -4   5  12   17.10    2.50
   3  -5 -12   93.29    4.60
  -3   5  12   84.19    4.50
  -3   5  12   88.69    4.90
   2  -5 -12    3.30    1.70
  -2   5  12    0.20    1.20
  -2   5  12    0.30    1.50
   1  -5 -12   54.49    3.30
  -1   5  12   54.19    2.70
  -1   5  12   55.99    3.30
   0  -5 -12   23.00    2.30
   0  -5 -12   22.80    1.80
   0   5  12   26.30    2.40
   0   5  12   26.00    1.70
  -1  -5 -12  272.67    8.40
  -1  -5 -12  261.27    8.10
  -1  -5 -12  270.47    9.20
   1   5  12  265.47    9.60
   1   5  12  276.77    8.40
  -2  -5 -12   62.89    3.30
  -2  -5 -12   64.59    2.60
   2   5  12   64.59    2.30
   2   5  12   62.69    3.70
  -3  -5 -12    3.00    1.30
  -3  -5 -12    6.60    1.50
   3   5  12    6.20    1.90
  -4  -5 -12   17.20    2.10
  -4  -5 -12   11.70    2.20
   4   5  12   15.20    2.40
  -5  -5 -12   46.20    3.20
  -5  -5 -12   44.00    3.00
   5   5  12   48.80    3.50
  -6  -5 -12   32.80    3.30
   4  -7 -13   18.90    3.20
  -4   7  13   25.80    2.60
  -3   7  13    6.80    1.80
  -3   7  13    7.80    2.50
   2  -7 -13    1.10    1.70
  -2   7  13    3.50    2.00
  -2   7  13    1.00    1.40
   1  -7 -13    5.60    1.70
  -1   7  13   10.70    2.30
  -1   7  13    8.10    1.30
   0  -7 -13   41.00    3.10
   0   7  13   42.70    3.30
  -1  -7 -13   78.29    4.10
   1   7  13   81.59    4.40
  -2  -7 -13   33.50    3.00
   2   7  13   38.70    3.40
  -3  -7 -13   45.00    3.40
   3   7  13   56.99    4.00
  -4  -7 -13   -1.20    1.80
   4   7  13    2.80    2.30
  -5  -7 -13   86.89    4.50
   3  -9 -14    9.00    2.60
   2  -9 -14   18.00    3.20
  -2   9  14   19.30    3.30
   1  -9 -14    3.90    2.10
  -1   9  14   -2.10    2.40
   0  -9 -14   -1.40    1.90
   0   9  14   -1.30    2.40
  -1  -9 -14   14.80    2.90
   1   9  14   18.00    3.30
  -2  -9 -14   60.39    3.80
   2   9  14   61.09    4.40
   0 -10   5    3.60    2.60
  -2  10  -5    4.50    2.30
   3   8  -6    2.20    2.00
  -3  -8   6    0.30    1.90
  -3  -8   6   -0.90    2.70
   2   8  -6   28.60    2.90
  -2  -8   6   29.00    2.70
  -2  -8   6   21.10    3.20
   1   8  -6   48.30    3.40
  -1  -8   6   47.90    3.50
  -1  -8   6   47.80    3.80
   0   8  -6  177.38    7.10
   0  -8   6  181.08    7.70
   0  -8   6  176.68    7.50
  -1   8  -6    3.10    1.80
   1  -8   6    3.10    2.10
   1  -8   6    2.40    1.90
  -2   8  -6   43.10    2.90
   2  -8   6   28.30    3.00
   2  -8   6   37.50    3.60
  -3   8  -6    8.80    2.70
   3  -8   6    4.50    2.20
   3  -8   6    9.80    3.10
   6   6  -7   29.60    4.00
   5   6  -7   19.60    2.50
  -5  -6   7   18.30    3.40
  -5  -6   7   15.30    2.50
   4   6  -7   34.50    2.90
  -4  -6   7   38.10    2.80
  -4  -6   7   26.80    3.40
   3   6  -7   66.89    3.70
  -3  -6   7   56.19    3.50
  -3  -6   7   54.59    4.00
   2   6  -7   41.90    3.00
  -2  -6   7   32.20    3.10
  -2  -6   7   41.60    3.20
   1   6  -7   66.59    3.50
  -1  -6   7   61.89    3.90
   0  -6   7   35.70    3.00
   0  -6   7   28.80    2.90
  -1   6  -7  125.99    5.20
   1  -6   7  124.89    5.50
   1  -6   7  126.29    5.80
  -2   6  -7  115.69    4.90
  -2   6  -7  124.39    5.60
   2  -6   7  117.69    5.60
   2  -6   7  124.39    5.50
  -3   6  -7    1.40    1.30
  -3   6  -7   -2.20    2.10
   3  -6   7    1.20    1.80
   3  -6   7    0.20    2.10
  -4   6  -7  305.97   11.50
   4  -6   7  302.57   11.00
   4  -6   7  300.77   11.30
  -5   6  -7   28.50    3.80
   6   4  -8    1.40    1.90
   6   4  -8   -0.80    2.00
  -6  -4   8    3.50    2.50
  -6  -4   8    2.10    1.90
   5   4  -8   48.30    3.00
   5   4  -8   43.80    3.00
  -5  -4   8   40.20    3.40
  -5  -4   8   51.49    3.20
   4   4  -8   85.09    3.90
   4   4  -8   94.89    4.40
  -4  -4   8   86.49    4.70
  -4  -4   8   95.09    4.60
   3   4  -8   15.10    1.60
  -3  -4   8   13.60    2.40
  -3  -4   8   17.40    2.30
   2   4  -8  166.28    6.10
   2   4  -8  143.49    4.90
  -2  -4   8  160.28    6.30
  -2  -4   8  154.68    6.20
   1   4  -8    0.90    1.30
  -1  -4   8    0.90    1.50
  -1  -4   8    2.10    1.60
   0   4  -8   37.30    2.60
   0  -4   8   38.90    2.60
   0  -4   8   36.80    3.00
  -1   4  -8  110.79    4.50
  -1   4  -8  111.79    4.80
   1  -4   8  109.59    4.90
   1  -4   8  112.99    4.90
  -2   4  -8   11.50    1.70
  -2   4  -8   15.30    2.30
   2  -4   8   10.30    1.90
   2  -4   8   12.40    2.20
  -3   4  -8   28.90    2.00
   3  -4   8   28.70    1.40
   3  -4   8   27.50    2.60
  -4   4  -8   78.49    4.50
   4  -4   8   72.59    4.00
   4  -4   8   76.39    3.00
  -5   4  -8   15.30    2.90
   5  -4   8   12.70    2.40
  -6   4  -8   38.80    3.60
   6  -4   8   35.30    3.40
   7   2  -9    1.40    2.80
  -7  -2   9    9.00    2.90
   6   2  -9   -0.70    1.50
   6   2  -9    2.50    2.10
  -6  -2   9   -1.10    1.90
  -6  -2   9    1.40    2.10
   5   2  -9    2.90    1.80
   5   2  -9    3.50    2.20
  -5  -2   9    4.50    1.70
   4   2  -9   26.50    2.20
   4   2  -9   27.10    2.40
  -4  -2   9   23.30    2.50
  -4  -2   9   26.30    2.50
   3   2  -9  159.58    5.60
   3   2  -9  160.38    6.10
  -3  -2   9  166.88    6.40
  -3  -2   9  150.48    6.00
   2   2  -9  175.48    5.50
   2   2  -9  182.48    6.40
  -2  -2   9  163.88    6.50
  -2  -2   9  156.18    6.10
   1   2  -9    7.20    0.80
   1   2  -9    7.00    0.80
   1   2  -9    6.50    1.60
  -1  -2   9    8.20    1.70
  -1  -2   9    6.70    1.30
   0   2  -9    2.20    1.40
   0  -2   9    3.00    1.50
   0  -2   9    2.30    1.20
  -1   2  -9   63.09    3.20
  -1   2  -9   64.39    3.10
   1  -2   9   60.19    3.30
   1  -2   9   64.69    3.10
  -2   2  -9   12.30    1.00
  -2   2  -9   14.40    1.90
  -2   2  -9   12.10    1.70
   2  -2   9   12.40    0.90
   2  -2   9   14.60    2.00
  -3   2  -9  160.48    6.30
  -3   2  -9  161.28    5.70
  -3   2  -9  150.88    5.30
   3  -2   9  170.48    6.30
   3  -2   9  168.38    5.50
  -4   2  -9  153.78    6.50
  -4   2  -9  156.98    5.30
   4  -2   9  144.19    6.60
   4  -2   9  153.18    5.50
  -5   2  -9   10.90    2.50
   5  -2   9   13.20    1.90
  -6   2  -9   64.69    3.80
   6  -2   9   56.59    3.70
   6  -2   9   56.69    3.40
   7  -2   9   26.90    3.00
   7   0 -10   16.60    3.10
   6   0 -10   18.70    3.10
  -6   0  10   16.50    2.70
  -6   0  10   20.20    2.50
   5   0 -10    6.10    2.10
   5   0 -10    1.10    1.40
  -5   0  10    3.10    1.50
  -5   0  10    4.10    1.80
   4   0 -10    6.80    1.90
   4   0 -10    8.50    1.80
  -4   0  10    6.70    1.50
  -4   0  10   12.20    2.10
   3   0 -10  103.39    4.30
   3   0 -10  100.79    4.50
  -3   0  10  108.69    4.70
  -3   0  10   99.99    4.00
   2   0 -10  188.98    6.00
   2   0 -10  199.68    6.90
  -2   0  10  168.88    6.50
  -2   0  10  188.88    7.00
  -2   0  10  191.68    6.00
   1   0 -10  125.89    4.30
   1   0 -10  128.09    4.90
  -1   0  10  119.19    5.00
  -1   0  10  115.59    4.20
  -1   0  10  124.89    4.40
  -1   0  10  123.69    4.20
   0   0 -10  687.53   20.40
   0   0 -10  695.43   21.00
   0   0  10  674.83   20.30
   0   0  10  695.13   20.40
   0   0  10  693.93   21.00
  -1   0 -10   59.49    2.60
  -1   0 -10   67.59    2.90
  -1   0 -10   68.49    3.20
   1   0  10   68.39    2.90
   1   0  10   66.59    3.40
   1   0  10   65.89    2.60
  -2   0 -10  288.67    9.30
  -2   0 -10  294.67    9.40
   2   0  10  283.67    9.50
   2   0  10  279.27    9.00
  -3   0 -10  176.48    6.20
  -3   0 -10  170.08    6.30
   3   0  10  173.28    6.10
   3   0  10  179.18    6.40
  -4   0 -10   86.89    4.10
  -4   0 -10   84.19    3.60
   4   0  10   89.49    3.80
   4   0  10   87.59    4.00
  -5   0 -10   13.40    2.30
   5   0  10   12.20    2.30
   5   0  10   12.40    1.90
  -6   0 -10   47.60    3.50
   6   0  10   39.00    3.00
   6   0  10   44.60    3.20
   7   0  10   20.60    3.10
   7   0  10   17.70    3.00
   6  -2 -11   57.79    4.10
  -6   2  11   53.89    3.80
   5  -2 -11   16.30    2.20
   5  -2 -11   14.00    2.60
  -5   2  11   13.50    2.30
   4  -2 -11    2.70    1.60
   4  -2 -11    5.80    1.90
  -4   2  11    4.90    1.70
  -4   2  11    3.10    1.10
   3  -2 -11   13.10    2.30
   3  -2 -11   15.10    1.00
  -3   2  11   18.60    2.20
  -3   2  11   18.10    1.10
   2  -2 -11  122.79    5.10
  -2   2  11  124.79    5.00
  -2   2  11  118.59    4.90
   1  -2 -11  245.28    8.60
  -1   2  11  239.58    8.30
  -1   2  11  250.77    8.20
   0  -2 -11  114.19    4.70
   0   2  11  104.99    4.40
   0   2  11  118.49    4.40
  -1  -2 -11   -0.60    0.60
  -1  -2 -11    0.90    1.30
   1   2  11    0.50    1.00
   1   2  11    0.40    1.10
   1   2  11    0.50    0.60
  -2  -2 -11  252.37    8.30
  -2  -2 -11  250.97    7.80
   2   2  11  249.38    8.20
   2   2  11  223.78    7.70
   2   2  11  248.98    8.30
  -3  -2 -11  132.29    4.90
  -3  -2 -11  131.29    5.10
   3   2  11  130.09    5.10
   3   2  11  135.09    5.20
  -4  -2 -11   69.49    3.40
  -4  -2 -11   70.59    3.50
   4   2  11   68.39    3.60
   4   2  11   69.09    3.20
  -5  -2 -11   15.00    2.40
  -5  -2 -11   14.20    2.60
   5   2  11   14.00    2.20
   5   2  11   11.70    1.70
  -6  -2 -11  125.09    5.70
   6   2  11  125.29    5.60
   7   2  11    2.00    2.70
   6  -4 -12    7.30    2.80
   5  -4 -12   16.30    3.00
   5  -4 -12   19.10    2.90
  -5   4  12   13.10    2.40
   4  -4 -12   22.60    2.60
   4  -4 -12   23.70    2.90
  -4   4  12   26.50    2.60
   3  -4 -12    3.10    1.90
  -3   4  12    3.40    2.70
   2  -4 -12   53.29    3.40
  -2   4  12   49.90    3.20
  -2   4  12   54.09    3.00
   1  -4 -12  225.88    8.20
  -1   4  12  233.28    8.20
  -1   4  12  230.08    7.80
   0  -4 -12  113.79    4.80
   0   4  12  111.39    4.20
   0   4  12  108.59    4.70
  -1  -4 -12   50.69    1.80
  -1  -4 -12   49.60    2.30
  -1  -4 -12   55.79    3.20
   1   4  12   48.20    1.90
   1   4  12   52.79    2.50
   1   4  12   50.19    3.10
  -2  -4 -12    3.20    0.80
  -2  -4 -12    3.90    1.50
   2   4  12    2.40    1.60
   2   4  12    3.50    1.10
   2   4  12    1.80    1.00
  -3  -4 -12   92.69    4.10
  -3  -4 -12   90.79    3.70
   3   4  12   92.39    4.40
   3   4  12   90.29    3.50
  -4  -4 -12    2.90    1.40
  -4  -4 -12    4.20    1.60
   4   4  12    2.90    1.70
  -5  -4 -12   71.39    3.60
  -5  -4 -12   73.19    3.90
   5   4  12   72.49    4.20
  -6  -4 -12   37.10    3.20
   6   4  12   37.60    3.30
   5  -6 -13   13.20    2.80
  -5   6  13   12.00    2.50
   4  -6 -13   43.20    3.70
  -4   6  13   45.40    3.30
   3  -6 -13   10.10    2.10
  -3   6  13    4.60    2.20
  -3   6  13    5.80    1.70
   2  -6 -13   -1.20    1.50
  -2   6  13    0.60    1.70
  -2   6  13   -0.30    1.30
   1  -6 -13   18.00    2.50
  -1   6  13   18.60    2.50
  -1   6  13   20.50    1.80
   0  -6 -13  193.28    7.30
   0   6  13  190.68    6.40
   0   6  13  197.38    7.50
  -1  -6 -13   98.59    4.50
   1   6  13   89.09    4.60
  -2  -6 -13   63.49    3.60
  -2  -6 -13   62.29    2.60
   2   6  13   59.09    4.00
  -3  -6 -13    2.70    1.30
  -3  -6 -13    4.10    1.60
   3   6  13    6.40    2.00
  -4  -6 -13   14.90    2.20
  -4  -6 -13   22.00    2.40
   4   6  13   19.50    3.00
  -5  -6 -13   41.60    3.30
  -5  -6 -13   45.80    3.10
   5   6  13   43.50    3.70
  -6  -6 -13    8.00    2.70
   4  -8 -14    6.70    2.60
  -4   8  14   10.20    2.40
   3  -8 -14   24.10    3.20
  -3   8  14   26.30    2.70
  -3   8  14   29.80    3.60
   2  -8 -14   11.20    2.20
  -2   8  14   10.40    2.50
   1  -8 -14   11.40    2.20
   0  -8 -14    9.80    2.00
   0   8  14    8.70    2.40
  -1  -8 -14   25.60    2.70
   1   8  14   22.20    2.90
  -2  -8 -14   82.19    4.40
   2   8  14   74.69    4.80
  -3  -8 -14   23.20    2.90
   3   8  14   25.80    3.80
  -4  -8 -14   35.10    3.30
   1   9  -6  151.58    6.70
  -1  -9   6  143.59    6.90
  -1  -9   6  158.08    6.70
   0   9  -6    7.50    2.20
   0  -9   6    4.30    2.80
   0  -9   6    0.80    2.40
  -1   9  -6    4.60    2.00
   1  -9   6   -1.60    2.30
   1  -9   6    1.40    2.60
  -2   9  -6   15.00    2.80
   2  -9   6   14.80    2.80
   4   7  -7    7.40    2.10
  -4  -7   7   13.90    2.50
  -4  -7   7    8.60    2.90
   3   7  -7   10.10    2.10
  -3  -7   7   12.50    2.10
  -3  -7   7    9.70    2.80
   2   7  -7   20.60    2.50
  -2  -7   7   17.30    3.00
  -2  -7   7   25.90    2.50
   1   7  -7  267.37    9.80
  -1  -7   7  280.37   10.10
  -1  -7   7  272.07   10.20
   0   7  -7   53.49    3.50
   0  -7   7   59.89    4.00
   0  -7   7   61.19    4.00
  -1   7  -7   19.50    2.30
   1  -7   7   22.80    2.50
   1  -7   7   15.90    2.40
  -2   7  -7    0.70    2.10
  -2   7  -7    3.20    1.50
   2  -7   7    0.90    1.70
   2  -7   7   -1.20    2.10
  -3   7  -7   18.80    3.00
   3  -7   7   18.40    2.80
   3  -7   7   18.00    3.10
  -4   7  -7   22.50    3.70
   4  -7   7   17.20    4.00
   4  -7   7   26.60    3.60
   6   5  -8    8.80    2.20
  -6  -5   8    6.30    3.80
  -6  -5   8   11.50    2.40
   5   5  -8   12.50    2.10
  -5  -5   8   13.20    2.50
  -5  -5   8    9.70    3.00
   4   5  -8   37.90    2.90
  -4  -5   8   29.30    3.20
  -4  -5   8   40.60    2.90
   3   5  -8   83.09    4.10
  -3  -5   8   76.69    4.10
  -3  -5   8   77.49    4.50
   2   5  -8   23.50    2.40
  -2  -5   8   21.70    2.70
   1   5  -8   32.90    2.90
  -1  -5   8   29.60    2.80
  -1  -5   8   32.90    3.00
   0   5  -8  112.29    4.80
   0  -5   8  107.59    5.30
   0  -5   8  109.79    5.00
  -1   5  -8  805.02   24.90
  -1   5  -8  796.22   24.50
   1  -5   8  822.62   25.00
   1  -5   8  792.32   25.20
  -2   5  -8   -1.30    1.60
  -2   5  -8    0.30    1.20
   2  -5   8   -0.10    1.80
   2  -5   8    1.20    1.60
  -3   5  -8  135.59    6.10
  -3   5  -8  135.09    5.20
   3  -5   8  141.79    6.10
   3  -5   8  134.59    6.20
  -4   5  -8   20.70    3.10
   4  -5   8   21.50    2.50
  -5   5  -8    6.50    2.80
   5  -5   8    1.10    2.10
   6   3  -9   11.40    2.40
   6   3  -9   12.30    2.10
  -6  -3   9   13.20    2.60
  -6  -3   9   14.20    2.70
   5   3  -9    4.70    1.50
   5   3  -9    1.30    1.80
  -5  -3   9    4.70    1.80
  -5  -3   9    1.90    2.00
   4   3  -9   68.29    3.60
   4   3  -9   58.09    3.20
  -4  -3   9   58.29    3.60
  -4  -3   9   67.29    3.70
   3   3  -9   57.19    3.30
   3   3  -9   52.99    2.60
  -3  -3   9   49.00    3.80
  -3  -3   9   50.19    3.20
   2   3  -9    7.60    1.70
   2   3  -9    4.80    0.80
   2   3  -9    6.20    0.80
  -2  -3   9    4.70    1.80
  -2  -3   9    4.40    1.50
   1   3  -9  592.94   18.80
  -1  -3   9  612.44   18.90
  -1  -3   9  617.14   19.10
   0   3  -9  195.88    7.20
   0  -3   9  198.58    7.60
   0  -3   9  206.58    7.20
  -1   3  -9  195.38    7.00
  -1   3  -9  195.08    7.00
   1  -3   9  193.88    7.10
   1  -3   9  192.78    7.30
  -2   3  -9   91.29    4.40
  -2   3  -9   94.19    3.90
   2  -3   9   93.99    4.40
   2  -3   9   92.19    4.40
  -3   3  -9  118.39    5.50
  -3   3  -9  128.29    4.70
   3  -3   9  118.59    6.30
  -4   3  -9   24.30    1.70
  -4   3  -9   22.10    2.70
   4  -3   9   21.30    1.70
   4  -3   9   24.80    2.50
  -5   3  -9   16.90    2.80
   5  -3   9   10.40    2.20
   5  -3   9   15.00    1.80
  -6   3  -9   32.00    3.70
   6  -3   9   34.00    3.20
   7   1 -10   -2.10    2.70
   6   1 -10   15.10    2.80
   6   1 -10   17.90    2.20
  -6  -1  10   16.40    2.70
  -6  -1  10   12.60    2.50
   5   1 -10   16.60    2.60
  -5  -1  10   18.20    2.40
  -5  -1  10   11.10    2.20
   4   1 -10  135.69    5.40
   4   1 -10  136.19    5.60
  -4  -1  10  127.09    5.30
  -4  -1  10  145.29    5.90
   3   1 -10    8.70    1.60
   3   1 -10   10.50    2.00
  -3  -1  10    9.80    1.70
  -3  -1  10   10.10    2.00
   2   1 -10   63.99    3.40
   2   1 -10   65.49    2.80
  -2  -1  10   57.89    3.50
  -2  -1  10   59.99    2.90
   1   1 -10   11.00    1.90
   1   1 -10   10.50    1.00
  -1  -1  10    9.00    1.10
  -1  -1  10   10.60    1.80
  -1  -1  10    9.50    1.30
   0   1 -10    3.20    1.60
   0  -1  10    5.40    1.60
   0  -1  10    2.90    1.20
   0  -1  10    2.90    0.80
   0  -1  10    4.10    0.70
  -1   1 -10 1815.02   51.29
  -1   1 -10 1577.04   50.69
  -1   1 -10 1781.82   51.49
   1  -1  10 1785.42   50.79
   1  -1  10 1782.42   51.89
   1  -1  10 1801.12   51.39
  -2   1 -10  273.27    9.10
  -2   1 -10  275.77    9.20
  -2   1 -10  261.27    8.50
   2  -1  10  280.67    9.30
   2  -1  10  273.07    8.60
  -3   1 -10   70.69    3.30
  -3   1 -10   72.39    3.70
   3  -1  10   76.39    3.10
   3  -1  10   76.49    3.70
  -4   1 -10   20.10    1.80
  -4   1 -10   23.40    2.30
   4  -1  10   20.20    2.30
   4  -1  10   24.40    1.90
  -5   1 -10   23.80    2.70
   5  -1  10   23.90    2.50
   5  -1  10   24.50    2.40
  -6   1 -10   53.99    3.70
   6  -1  10   50.59    3.40
   6  -1  10   45.40    3.20
   7  -1  10    0.30    2.20
   7  -1  10    1.90    2.40
  -6   1  11    2.70    2.00
   5  -1 -11    2.00    1.70
   5  -1 -11    0.20    1.90
  -5   1  11    2.90    1.80
  -5   1  11    3.40    1.40
   4  -1 -11   15.90    2.20
   4  -1 -11   17.00    2.40
  -4   1  11   14.50    1.70
  -4   1  11   17.20    2.40
   3  -1 -11   48.70    2.10
   3  -1 -11   55.09    3.30
   3  -1 -11   51.69    3.00
  -3   1  11   55.69    3.20
   2  -1 -11  140.49    4.60
   2  -1 -11  149.69    5.70
  -2   1  11  137.69    4.60
  -2   1  11  144.09    5.70
  -2   1  11  140.99    4.60
   1  -1 -11    9.60    1.80
  -1   1  11    8.50    1.40
  -1   1  11   11.60    0.70
  -1   1  11    8.30    1.80
  -1   1  11    8.10    0.80
   0  -1 -11    3.20    1.50
   0   1  11    5.40    1.50
   0   1  11    4.90    0.70
   0   1  11    4.80    0.70
   0   1  11    5.10    1.20
  -1  -1 -11  514.25   16.00
  -1  -1 -11  546.15   16.60
   1   1  11  509.85   15.90
   1   1  11  547.65   16.60
   1   1  11  539.95   16.30
  -2  -1 -11  162.08    6.00
  -2  -1 -11  159.48    5.50
   2   1  11  154.88    6.00
   2   1  11  156.08    5.70
  -3  -1 -11  159.28    5.80
  -3  -1 -11  166.88    6.10
   3   1  11  164.28    5.90
   3   1  11  162.18    6.00
  -4  -1 -11   36.20    2.40
  -4  -1 -11   42.20    2.80
   4   1  11   40.30    2.50
   4   1  11   40.40    2.70
  -5  -1 -11    3.80    1.90
   5   1  11    2.60    1.70
  -6  -1 -11   32.80    3.30
   6   1  11   31.20    2.80
   6   1  11   32.60    2.50
   7   1  11    6.30    2.30
   6  -3 -12   20.00    3.50
   5  -3 -12   15.70    2.90
   5  -3 -12   17.40    2.90
  -5   3  12   15.70    2.50
   4  -3 -12    7.30    1.90
   4  -3 -12    9.20    2.30
  -4   3  12   10.10    2.10
   3  -3 -12   75.79    4.00
  -3   3  12   68.29    4.70
   2  -3 -12  126.99    5.50
  -2   3  12  127.29    5.10
  -2   3  12  122.69    5.10
   1  -3 -12   22.30    2.40
  -1   3  12   23.80    2.00
  -1   3  12   21.10    2.10
   0  -3 -12  179.28    6.70
   0   3  12  177.48    6.40
   0   3  12  185.08    6.60
  -1  -3 -12    9.20    0.80
  -1  -3 -12   11.90    2.00
   1   3  12   10.50    1.90
   1   3  12    7.30    0.80
   1   3  12    8.00    1.60
  -2  -3 -12   79.29    3.70
  -2  -3 -12   73.79    3.00
  -2  -3 -12   81.29    3.10
   2   3  12   79.09    3.40
   2   3  12   75.59    3.70
   2   3  12   69.29    2.90
  -3  -3 -12  320.67   10.80
  -3  -3 -12  334.67   10.50
   3   3  12  330.47   10.50
   3   3  12  316.97   10.90
  -4  -3 -12   85.59    4.00
  -4  -3 -12   88.99    4.00
   4   3  12   87.99    3.80
   4   3  12   88.29    4.30
  -5  -3 -12    4.80    1.80
  -5  -3 -12    2.30    1.50
   5   3  12    3.20    1.90
  -6  -3 -12   14.20    2.80
   6   3  12   14.10    2.60
   5  -5 -13   11.70    3.00
   5  -5 -13   12.70    2.30
  -5   5  13   15.70    2.60
   4  -5 -13    4.00    1.90
  -4   5  13    5.00    1.90
   3  -5 -13   -1.50    1.70
  -3   5  13    2.80    1.70
  -3   5  13    2.70    1.60
  -2   5  13   62.19    3.30
  -2   5  13   60.79    3.60
   1  -5 -13  177.18    7.00
  -1   5  13  185.88    7.10
  -1   5  13  179.08    6.40
   0  -5 -13  105.19    4.80
   0   5  13  102.39    4.00
   0   5  13  101.09    4.70
  -1  -5 -13   33.50    2.80
   1   5  13   32.00    2.70
   1   5  13   37.50    1.90
  -2  -5 -13    7.90    2.20
  -2  -5 -13   11.50    1.40
   2   5  13   12.00    2.60
  -3  -5 -13    6.60    1.30
  -3  -5 -13    2.80    1.80
   3   5  13    6.20    2.00
  -4  -5 -13   54.59    3.00
  -4  -5 -13   49.30    3.20
   4   5  13   50.49    3.50
  -5  -5 -13   22.00    2.50
  -5  -5 -13   16.80    2.50
   5   5  13   18.10    2.90
  -6  -5 -13    8.00    2.60
   4  -7 -14   14.00    2.60
   3  -7 -14    6.00    1.90
  -3   7  14   -0.80    2.30
  -3   7  14    0.10    1.70
   2  -7 -14   31.30    3.00
  -2   7  14   31.50    3.20
   1  -7 -14    4.10    1.80
  -1   7  14    2.30    2.10
   0  -7 -14   98.19    4.70
   0   7  14   93.49    5.00
  -1  -7 -14  158.38    6.60
   1   7  14  164.08    6.90
  -2  -7 -14    2.70    1.80
   2   7  14    5.50    2.30
  -3  -7 -14  126.19    5.60
   3   7  14  128.69    6.30
  -4  -7 -14   39.50    3.30
   4   7  14   39.30    3.60
  -5  -7 -14   11.40    2.40
   2  -9 -15   -0.10    2.30
   1  -9 -15    1.70    2.20
  -1   9  15    1.90    2.40
   0  -9 -15   44.60    3.60
   0   9  15   46.60    4.00
  -1  -9 -15   19.90    2.70
   1   9  15   19.50    3.20
  -3  -8   7   14.90    3.30
  -3  -8   7   17.30    2.80
   2   8  -7  216.68    8.40
  -2  -8   7  219.78    8.30
  -2  -8   7  204.38    8.80
   1   8  -7   34.80    3.20
  -1  -8   7   29.50    3.10
  -1  -8   7   26.70    3.30
   0   8  -7   54.59    3.70
   0  -8   7   44.60    3.80
   0  -8   7   48.90    3.90
  -1   8  -7   11.70    2.30
   1  -8   7   13.00    2.50
   1  -8   7   13.90    2.90
  -2   8  -7    6.10    1.90
   2  -8   7   -2.10    2.20
   2  -8   7    1.40    2.10
  -3   8  -7   29.50    5.10
   3  -8   7   30.60    4.50
   5   6  -8    5.90    2.10
  -5  -6   8    2.50    2.90
  -5  -6   8    8.40    2.10
   4   6  -8    8.60    2.00
  -4  -6   8   11.40    2.80
  -4  -6   8   15.40    2.40
   3   6  -8    2.00    1.60
  -3  -6   8   -3.20    2.10
  -3  -6   8   -2.40    1.60
   2   6  -8   92.49    4.50
  -2  -6   8   91.59    4.50
  -2  -6   8   86.89    4.80
   1   6  -8  121.19    5.40
  -1  -6   8  120.79    5.60
  -1  -6   8  121.89    5.60
   0   6  -8  101.89    4.70
   0  -6   8  103.59    5.00
   0  -6   8   98.79    5.20
  -1   6  -8   18.50    2.30
   1  -6   8   14.90    2.40
   1  -6   8   18.20    2.90
  -2   6  -8   98.89    5.10
  -2   6  -8  102.69    4.50
   2  -6   8  101.39    5.00
   2  -6   8  106.39    5.20
  -3   6  -8   28.90    3.40
  -3   6  -8   34.20    2.40
   3  -6   8   29.20    2.80
   3  -6   8   26.70    3.40
  -4   6  -8   15.70    3.10
   4  -6   8   13.60    2.70
   6   4  -9    6.50    2.00
  -6  -4   9    1.30    2.60
  -6  -4   9    8.10    2.40
   5   4  -9   13.00    2.30
  -5  -4   9   10.10    2.50
  -5  -4   9   14.30    2.20
   4   4  -9   13.00    2.20
   4   4  -9   11.20    1.90
  -4  -4   9   13.10    2.40
  -4  -4   9   12.50    2.50
   3   4  -9    1.10    1.40
   3   4  -9    0.80    1.10
  -3  -4   9    1.60    1.60
  -3  -4   9    0.90    1.80
  -2  -4   9  120.79    6.50
  -2  -4   9  123.09    5.30
   1   4  -9   84.89    4.20
  -1  -4   9   87.09    4.20
  -1  -4   9   85.79    4.30
   0   4  -9  314.07   10.50
   0  -4   9  299.87   10.90
   0  -4   9  319.37   10.60
  -1   4  -9   47.20    2.90
  -1   4  -9   46.70    3.10
   1  -4   9   47.00    3.30
   1  -4   9   49.20    3.10
  -2   4  -9   10.70    1.70
  -2   4  -9   11.30    2.30
   2  -4   9   11.80    2.40
   2  -4   9    9.20    2.10
  -3   4  -9   17.20    2.70
  -3   4  -9   24.90    1.90
   3  -4   9   24.10    2.70
   3  -4   9   21.00    2.50
  -4   4  -9    6.70    2.20
   4  -4   9    0.00    1.80
  -5   4  -9   36.30    3.80
   5  -4   9   31.30    2.90
   7   2 -10   -5.00    2.70
  -7  -2  10   -2.70    2.90
   6   2 -10    6.00    2.40
   6   2 -10    7.30    1.70
  -6  -2  10    2.00    2.40
  -6  -2  10    8.60    2.20
   5   2 -10   24.80    2.40
  -5  -2  10   22.70    2.70
  -5  -2  10   20.10    2.50
   4   2 -10   14.70    2.00
  -4  -2  10   11.70    2.10
  -4  -2  10   16.80    2.40
   3   2 -10   13.10    2.30
   3   2 -10   12.50    1.60
  -3  -2  10   10.90    2.00
   2   2 -10  178.48    6.00
   2   2 -10  190.98    7.00
   2   2 -10  189.68    6.10
  -2  -2  10  189.78    7.20
  -2  -2  10  181.78    6.70
   1   2 -10  115.59    5.10
   1   2 -10  123.69    4.00
   1   2 -10  121.69    4.00
  -1  -2  10  125.99    4.80
  -1  -2  10  130.69    5.40
   0   2 -10  556.74   18.30
   0  -2  10  622.84   18.20
   0  -2  10  591.74   18.60
  -1   2 -10   83.89    4.00
  -1   2 -10   90.89    3.90
   1  -2  10   93.49    4.00
   1  -2  10   91.79    4.40
  -2   2 -10   98.49    3.50
  -2   2 -10  103.09    4.40
  -2   2 -10  108.39    4.60
   2  -2  10  104.89    3.60
   2  -2  10  110.99    4.70
  -3   2 -10    3.00    1.70
  -3   2 -10    3.30    1.20
   3  -2  10    3.90    1.80
  -4   2 -10   37.70    3.00
  -4   2 -10   36.20    2.10
   4  -2  10   36.30    2.10
   4  -2  10   33.70    2.80
  -5   2 -10   61.49    4.00
   5  -2  10   59.49    3.70
   5  -2  10   64.09    3.20
  -6   2 -10    8.30    2.70
   6  -2  10    6.30    2.00
   6  -2  10    5.60    2.20
   6   0 -11   10.50    2.80
   6   0 -11   14.80    2.30
  -6   0  11   12.40    2.60
   5   0 -11   26.20    3.70
   5   0 -11   22.00    2.90
  -5   0  11   25.40    2.20
  -5   0  11   26.60    2.70
   4   0 -11   12.50    2.20
   4   0 -11   13.40    2.20
  -4   0  11   13.40    2.10
  -4   0  11   11.20    1.70
   3   0 -11   53.19    3.20
   3   0 -11   44.20    2.70
  -3   0  11   43.50    2.40
  -3   0  11   47.00    3.30
   2   0 -11  139.89    5.40
   2   0 -11  129.39    4.40
  -2   0  11  120.09    4.80
  -2   0  11  123.89    5.40
  -2   0  11  128.19    4.40
   1   0 -11    4.00    1.00
   1   0 -11    0.60    1.40
  -1   0  11    1.80    0.70
  -1   0  11    0.90    1.40
  -1   0  11    1.30    1.00
  -1   0  11    1.50    0.80
   0   0 -11 2518.85   73.79
   0   0 -11 2595.04   74.39
   0   0  11 2501.15   73.69
   0   0  11 2655.53   73.79
   0   0  11 2518.85   74.39
   0   0  11 2540.55   74.19
  -1   0 -11  233.68    7.70
  -1   0 -11  243.28    8.10
  -1   0 -11  220.58    7.50
   1   0  11  232.28    7.70
   1   0  11  234.78    7.50
   1   0  11  234.88    8.30
   1   0  11  239.28    7.60
  -2   0 -11    8.90    1.50
  -2   0 -11   10.00    1.70
   2   0  11    7.50    1.30
   2   0  11   10.60    1.90
  -3   0 -11   58.19    3.10
  -3   0 -11   59.59    3.20
   3   0  11   58.39    2.80
   3   0  11   62.09    3.30
  -4   0 -11  114.19    4.40
  -4   0 -11  109.49    4.80
   4   0  11  109.19    4.80
   4   0  11  112.29    4.60
  -5   0 -11   35.90    2.90
   5   0  11   33.90    3.90
   5   0  11   31.60    2.70
  -6   0 -11   14.00    2.80
   6   0  11   13.60    2.40
   6   0  11   14.60    2.30
   7   0  11   18.00    2.90
   6  -2 -12    4.30    2.60
  -6   2  12    3.30    2.60
   5  -2 -12   -0.30    2.10
  -5   2  12    1.50    1.80
   4  -2 -12   11.60    2.50
   4  -2 -12   11.20    2.20
  -4   2  12   12.50    2.10
   3  -2 -12   90.39    4.40
  -3   2  12   85.19    3.00
   2  -2 -12   36.30    2.90
  -2   2  12   35.50    2.50
  -2   2  12   35.40    2.70
   1  -2 -12    1.40    1.60
  -1   2  12    1.60    1.40
  -1   2  12    1.10    1.20
   0  -2 -12   85.19    4.30
   0   2  12   94.69    3.80
   0   2  12   83.59    3.90
  -1  -2 -12  143.99    5.70
  -1  -2 -12  133.49    4.50
   1   2  12  142.39    5.30
   1   2  12  128.79    4.50
   1   2  12  142.39    5.40
  -2  -2 -12  763.32   23.30
  -2  -2 -12  768.02   22.60
   2   2  12  747.93   23.10
   2   2  12  764.72   23.00
  -3  -2 -12   76.69    3.90
  -3  -2 -12   76.59    3.40
   3   2  12   72.29    3.70
   3   2  12   77.09    3.70
  -4  -2 -12   10.60    1.80
  -4  -2 -12   10.30    1.80
   4   2  12   11.30    1.80
   4   2  12   11.10    2.00
  -5  -2 -12   12.60    2.30
   5   2  12   17.40    1.90
  -6  -2 -12    2.40    2.20
   6   2  12    7.50    2.30
   5  -4 -13    1.70    1.90
   5  -4 -13    0.90    2.40
  -5   4  13   -0.10    2.00
   4  -4 -13    7.00    1.90
   4  -4 -13    5.70    2.30
   3  -4 -13    4.40    2.40
  -3   4  13    6.60    1.80
   2  -4 -13   93.99    4.80
  -2   4  13  102.79    4.40
  -2   4  13   99.49    4.70
   1  -4 -13  242.38    8.80
  -1   4  13  253.17    8.80
  -1   4  13  243.88    8.40
   0  -4 -13  648.34   20.10
   0   4  13  645.74   20.10
   0   4  13  643.44   19.60
  -1  -4 -13   34.20    2.70
   1   4  13   33.20    2.10
   1   4  13   34.10    2.80
  -2  -4 -13  153.38    5.00
  -2  -4 -13  151.28    5.90
   2   4  13  134.79    5.20
   2   4  13  145.19    6.10
  -3  -4 -13  183.28    6.40
  -3  -4 -13  188.68    7.00
   3   4  13  186.48    6.40
   3   4  13  186.48    7.30
  -4  -4 -13  132.79    5.50
  -4  -4 -13  135.69    5.20
   4   4  13  130.49    5.80
  -5  -4 -13    9.30    1.80
   5   4  13   13.50    2.30
  -6  -4 -13    5.40    2.40
   6   4  13    6.40    2.40
   4  -6 -14   10.60    2.50
  -4   6  14   17.30    2.60
   3  -6 -14   12.30    2.50
  -3   6  14   10.80    2.60
  -3   6  14   14.60    2.20
   2  -6 -14   63.89    3.90
  -2   6  14   66.89    4.00
  -2   6  14   61.19    3.40
   1  -6 -14   54.69    3.60
  -1   6  14   54.59    2.80
  -1   6  14   49.50    3.50
   0  -6 -14    8.70    2.00
   0   6  14    9.10    1.40
   0   6  14    9.90    2.10
  -1  -6 -14    6.20    1.80
   1   6  14    7.80    1.90
  -2  -6 -14  112.59    5.00
   2   6  14  113.39    5.60
  -3  -6 -14   71.09    4.00
   3   6  14   68.79    4.30
  -4  -6 -14   61.79    3.70
   4   6  14   62.89    4.30
  -5  -6 -14   11.90    2.20
   5   6  14   15.70    3.10
   4  -8 -15   -0.70    2.90
  -4   8  15   -1.90    2.40
   3  -8 -15    0.90    2.30
   2  -8 -15    0.10    2.20
  -2   8  15   -0.40    2.40
   1  -8 -15   39.90    3.50
  -1   8  15   46.70    3.70
   0  -8 -15   61.29    3.70
   0   8  15   54.59    3.90
  -1  -8 -15   14.60    2.80
   1   8  15   15.70    2.90
  -2  -8 -15  200.48    7.80
   2   8  15  191.68    8.40
  -3  -8 -15    8.20    2.10
   3   8  15   -0.70    3.10
  -4  -8 -15    8.60    2.60
  -1  -9   7   30.90    3.30
   0   9  -7    5.60    2.10
   0  -9   7    2.30    2.50
  -1   9  -7   32.10    3.30
   1  -9   7   31.40    3.60
  -2   9  -7   20.30    3.10
   4   7  -8    3.30    2.20
  -4  -7   8    4.20    2.70
  -4  -7   8    7.10    2.30
   3   7  -8   99.99    5.00
  -3  -7   8   97.49    4.90
  -3  -7   8   82.49    5.30
   2   7  -8   36.30    3.00
  -2  -7   8   40.60    3.10
  -2  -7   8   33.30    3.50
   1   7  -8   37.60    3.20
  -1  -7   8   29.60    3.00
  -1  -7   8   36.20    3.40
   0   7  -8    2.40    1.70
   0  -7   8   -1.60    2.00
   0  -7   8    5.50    2.10
  -1   7  -8   32.90    2.90
   1  -7   8   33.50    3.20
   1  -7   8   33.00    3.00
  -2   7  -8   35.30    2.60
  -2   7  -8   35.90    3.30
   2  -7   8   30.20    3.30
   2  -7   8   25.90    3.10
  -3   7  -8   29.70    3.60
  -3   7  -8   35.60    3.40
   3  -7   8   26.30    3.20
   3  -7   8   33.10    3.30
   6   5  -9    5.10    2.60
   5   5  -9   52.09    3.50
  -5  -5   9   37.90    3.90
  -5  -5   9   48.00    3.50
   4   5  -9    1.00    1.70
  -4  -5   9    3.60    1.80
   3   5  -9    4.90    1.80
  -3  -5   9   -0.90    2.00
  -3  -5   9    3.20    1.80
   2   5  -9   59.79    3.60
  -2  -5   9   52.49    3.60
  -2  -5   9   56.29    3.50
   1   5  -9   47.90    3.10
  -1  -5   9   49.60    3.50
  -1  -5   9   47.90    3.40
   0  -5   9   47.70    3.30
   0  -5   9   44.10    3.60
  -1   5  -9  214.58    7.50
   1  -5   9  192.88    8.90
   1  -5   9  197.68    7.90
  -2   5  -9   43.30    3.10
  -2   5  -9   45.10    2.90
   2  -5   9   41.00    3.20
   2  -5   9   40.60    3.30
  -3   5  -9   77.89    4.50
  -3   5  -9   75.09    3.60
   3  -5   9   72.59    4.40
   3  -5   9   80.09    4.70
  -4   5  -9   14.70    2.90
   4  -5   9   13.40    2.70
   4  -5   9   17.10    3.00
  -5   5  -9    5.70    2.80
   5  -5   9    3.20    2.60
   6   3 -10   11.50    3.30
   6   3 -10   15.40    2.60
  -6  -3  10   14.10    2.70
  -6  -3  10   10.50    2.40
   5   3 -10  243.48    8.60
  -5  -3  10  211.88    8.70
  -5  -3  10  247.08    9.00
   4   3 -10    9.90    1.80
   4   3 -10   12.80    2.30
  -4  -3  10   12.40    2.30
  -4  -3  10   10.10    2.90
   3   3 -10    4.30    1.70
   3   3 -10    8.10    1.40
  -3  -3  10    7.40    2.00
  -3  -3  10    6.30    1.90
   2   3 -10   97.79    4.50
   2   3 -10   88.49    3.20
  -2  -3  10   89.69    5.20
  -2  -3  10   94.69    4.30
   1   3 -10   42.90    3.00
  -1  -3  10   42.60    3.10
  -1  -3  10   44.50    2.80
   0   3 -10  175.38    6.70
   0  -3  10  174.28    7.00
   0  -3  10  177.08    6.50
  -1   3 -10    0.30    1.30
  -1   3 -10    0.70    1.40
   1  -3  10    1.90    1.40
   1  -3  10   -0.20    1.60
  -2   3 -10   11.90    2.00
  -2   3 -10   12.70    1.80
   2  -3  10   11.10    2.00
  -3   3 -10   56.99    2.90
  -3   3 -10   50.99    4.10
   3  -3  10   52.49    3.40
  -4   3 -10   67.39    4.20
  -4   3 -10   67.99    3.60
   4  -3  10   65.29    3.90
   4  -3  10   69.69    3.50
  -5   3 -10   45.20    3.70
   5  -3  10   41.60    3.40
  -6   3 -10   -0.80    2.80
   6  -3  10   -1.70    2.00
   6   1 -11    2.50    1.90
  -6  -1  11    2.50    2.10
  -6  -1  11    0.80    2.20
   5   1 -11  114.99    5.30
   5   1 -11  117.19    5.10
  -5  -1  11  129.29    5.70
  -5  -1  11  104.19    5.00
   4   1 -11   34.70    2.60
  -4  -1  11   39.70    3.10
  -4  -1  11   31.90    2.50
   3   1 -11  156.38    5.80
   3   1 -11  157.38    6.30
  -3  -1  11  164.18    6.60
  -3  -1  11  146.89    5.70
   2   1 -11   10.80    1.50
   2   1 -11   13.30    2.20
  -2  -1  11    9.70    1.60
  -2  -1  11   13.30    2.30
   1   1 -11  208.78    7.70
   1   1 -11  207.58    6.70
  -1  -1  11  215.88    7.10
  -1  -1  11  216.58    7.80
   0   1 -11   75.09    3.80
   0   1 -11   74.79    2.70
   0  -1  11   77.89    4.00
   0  -1  11   74.29    2.80
   0  -1  11   73.99    3.20
  -1   1 -11  121.79    4.60
  -1   1 -11  122.69    5.00
  -1   1 -11  104.59    4.00
   1  -1  11  121.89    4.60
   1  -1  11  119.39    5.30
   1  -1  11  124.09    4.10
  -2   1 -11   31.60    1.80
  -2   1 -11   38.50    2.70
  -2   1 -11   41.10    2.60
   2  -1  11   39.40    2.00
   2  -1  11   40.70    2.80
  -3   1 -11  110.69    4.70
  -3   1 -11  114.59    5.00
   3  -1  11  122.69    5.10
   3  -1  11  117.09    4.30
  -4   1 -11   27.90    5.00
  -4   1 -11   21.40    2.00
   4  -1  11   23.30    2.00
   4  -1  11   23.60    2.40
  -5   1 -11   42.90    3.30
   5  -1  11   51.39    2.90
   5  -1  11   45.70    3.30
  -6   1 -11   22.80    3.10
   6  -1  11   29.40    2.70
   6  -1  11   28.20    2.90
   7  -1  11    5.40    2.40
   6  -1 -12   -2.80    2.60
   5  -1 -12   74.29    4.40
   5  -1 -12   77.09    4.20
  -5   1  12   87.69    4.60
   4  -1 -12   24.50    2.70
   4  -1 -12   21.20    2.50
  -4   1  12   20.90    1.70
  -4   1  12   23.70    2.50
   3  -1 -12  377.36   12.30
   3  -1 -12  349.07   12.00
  -3   1  12  373.26   12.50
   2  -1 -12   -0.50    1.60
  -2   1  12    0.80    0.70
  -2   1  12    0.40    0.60
  -2   1  12    1.80    1.50
   1  -1 -12   71.99    3.80
  -1   1  12   65.59    3.60
  -1   1  12   78.39    3.30
  -1   1  12   69.59    2.60
  -1   1  12   74.29    2.50
   0  -1 -12  239.78    8.70
   0   1  12  250.87    8.20
   0   1  12  250.77    8.60
   0   1  12  250.07    7.70
   0   1  12  255.17    7.70
  -1  -1 -12    5.10    1.60
  -1  -1 -12    4.60    1.10
   1   1  12    5.70    1.60
   1   1  12    3.90    1.30
   1   1  12    4.60    0.80
  -2  -1 -12   71.49    3.20
  -2  -1 -12   71.79    3.70
   2   1  12   68.39    3.20
   2   1  12   73.29    3.70
  -3  -1 -12   -0.30    1.40
  -3  -1 -12    0.10    1.20
   3   1  12   -0.10    1.10
   3   1  12   -2.00    1.40
  -4  -1 -12   18.40    2.10
  -4  -1 -12   22.50    2.10
   4   1  12   16.50    2.00
   4   1  12   18.20    2.10
  -5  -1 -12   82.89    4.20
   5   1  12   80.89    4.10
  -6  -1 -12   51.49    3.60
   6   1  12   53.69    3.40
   6  -3 -13   -0.30    2.80
   5  -3 -13   31.00    3.40
   5  -3 -13   34.20    3.00
  -5   3  13   39.90    3.40
   4  -3 -13   16.90    2.80
   4  -3 -13   13.30    2.40
  -4   3  13   19.70    2.60
   3  -3 -13  197.68    7.60
  -3   3  13  202.28    7.60
   2  -3 -13    9.20    2.20
  -2   3  13   11.50    2.00
  -2   3  13   10.20    1.80
   1  -3 -13   42.40    3.30
  -1   3  13   45.90    2.70
  -1   3  13   44.70    2.80
   0  -3 -13   11.40    2.10
   0   3  13    9.20    1.70
   0   3  13   11.60    1.80
  -1  -3 -13  131.79    5.50
  -1  -3 -13  130.59    4.20
   1   3  13  129.29    5.00
   1   3  13  130.39    5.30
  -2  -3 -13  126.19    5.30
  -2  -3 -13  126.79    4.40
   2   3  13  123.39    5.30
   2   3  13  129.89    4.90
  -3  -3 -13    4.20    1.30
  -3  -3 -13    2.90    1.50
   3   3  13    1.80    1.30
   3   3  13    4.90    1.60
  -4  -3 -13    1.40    1.50
  -4  -3 -13   -0.70    1.50
   4   3  13    0.50    1.60
   4   3  13    1.80    1.50
  -5  -3 -13   15.30    2.50
   5   3  13   14.50    2.40
   6   3  13    7.30    2.50
   5  -5 -14   -1.30    2.70
   5  -5 -14   -3.30    2.10
  -5   5  14    2.30    2.20
   4  -5 -14   -0.30    2.00
  -4   5  14    2.00    1.90
   3  -5 -14  324.87   11.90
  -3   5  14  325.57   11.70
  -3   5  14  346.07   11.50
   2  -5 -14   56.39    3.90
  -2   5  14   60.59    3.30
  -2   5  14   58.79    3.70
   1  -5 -14   80.89    4.30
  -1   5  14   82.39    3.70
  -1   5  14   80.39    4.20
   0  -5 -14   11.00    2.20
   0   5  14   12.80    1.60
   0   5  14   14.70    2.90
  -1  -5 -14   30.00    2.90
   1   5  14   35.10    2.00
   1   5  14   32.60    2.70
  -2  -5 -14  102.49    4.80
   2   5  14   94.99    5.00
  -3  -5 -14  101.59    3.90
  -3  -5 -14   97.89    4.70
   3   5  14   94.19    4.90
  -4  -5 -14    7.20    1.70
  -4  -5 -14    3.30    1.80
   4   5  14    6.80    2.10
  -5  -5 -14    5.20    2.10
  -5  -5 -14   -2.10    1.90
   5   5  14    1.40    2.20
  -6  -5 -14   28.20    3.20
   4  -7 -15    5.80    2.70
  -4   7  15    0.70    2.20
   3  -7 -15   29.00    3.40
  -3   7  15   24.40    2.80
  -3   7  15   17.50    3.20
   2  -7 -15   27.90    3.20
  -2   7  15   30.40    3.10
  -2   7  15   29.90    2.50
   1  -7 -15   92.99    4.90
  -1   7  15   93.99    4.90
   0  -7 -15   17.40    2.70
   0   7  15   12.20    2.50
  -1  -7 -15   58.99    3.70
   1   7  15   48.90    3.60
  -2  -7 -15   75.19    4.20
   2   7  15   66.19    4.50
  -3  -7 -15    1.20    1.90
   3   7  15    8.00    2.70
  -4  -7 -15   18.00    2.70
  -5  -7 -15   54.19    4.10
  -3  -8   8   26.60    3.20
   2   8  -8   18.00    2.70
  -2  -8   8   25.30    3.50
  -2  -8   8   23.10    2.90
   1   8  -8   11.60    2.30
  -1  -8   8    8.40    2.80
  -1  -8   8   10.10    2.30
   0   8  -8    7.70    2.10
   0  -8   8    7.00    2.70
   0  -8   8    8.30    2.20
  -1   8  -8   41.10    3.40
   1  -8   8   36.90    3.70
   1  -8   8   47.60    3.90
  -2   8  -8   20.50    2.80
   2  -8   8   22.90    3.10
  -5  -6   9    5.60    2.30
   4   6  -9  117.09    5.60
  -4  -6   9  111.09    6.00
  -4  -6   9  115.69    5.60
   3   6  -9    7.20    2.00
  -3  -6   9    0.50    2.30
  -3  -6   9    5.00    2.10
   2   6  -9   72.89    4.20
  -2  -6   9   70.89    4.50
  -2  -6   9   76.49    4.30
   1   6  -9   14.90    2.30
  -1  -6   9   13.00    2.50
  -1  -6   9   13.90    2.40
   0   6  -9   54.59    3.50
   0  -6   9   55.39    3.70
   0  -6   9   46.10    3.70
  -1   6  -9   35.90    3.00
   1  -6   9   32.60    3.10
   1  -6   9   32.60    2.90
  -2   6  -9   58.29    3.40
  -2   6  -9   57.69    3.80
   2  -6   9   56.79    3.80
   2  -6   9   54.39    3.70
  -3   6  -9   13.10    2.60
   3  -6   9   12.60    2.50
   3  -6   9   13.40    2.60
   4  -6   9    6.50    2.80
   4  -6   9    9.40    2.70
   6   4 -10   26.70    3.20
  -6  -4  10   21.40    3.40
   5   4 -10    2.50    1.90
  -5  -4  10    2.60    2.00
  -5  -4  10    0.80    2.30
   4   4 -10   55.49    3.40
  -4  -4  10   47.50    3.70
  -4  -4  10   54.39    3.70
   3   4 -10   24.10    2.60
  -3  -4  10   20.50    4.30
  -3  -4  10   19.40    2.50
   2   4 -10   87.19    4.30
  -2  -4  10   89.29    4.50
  -2  -4  10   83.19    4.30
   1   4 -10   29.70    3.60
  -1  -4  10   30.50    2.90
  -1  -4  10   32.80    2.60
   0   4 -10    7.00    1.80
   0  -4  10    9.40    2.30
   0  -4  10    9.80    2.00
  -1   4 -10   24.50    2.40
  -1   4 -10   25.20    2.50
   1  -4  10   22.70    2.70
   1  -4  10   26.40    2.60
  -2   4 -10   84.79    4.00
   2  -4  10   84.09    4.50
  -3   4 -10   81.59    3.70
  -3   4 -10   75.89    4.40
   3  -4  10   77.99    4.40
   3  -4  10   80.49    4.30
  -4   4 -10   19.10    3.00
   4  -4  10   14.80    2.60
  -5   4 -10    1.40    2.80
   5  -4  10   -3.30    2.00
   6   2 -11   83.89    4.70
   6   2 -11   96.49    4.40
  -6  -2  11   82.69    4.60
   5   2 -11   20.80    2.70
  -5  -2  11   22.60    2.70
  -5  -2  11   28.90    3.00
   4   2 -11   28.00    2.60
   4   2 -11   19.20    2.20
  -4  -2  11   18.70    2.30
  -4  -2  11   26.80    2.70
   3   2 -11   24.70    3.00
   3   2 -11   24.60    2.00
  -3  -2  11   23.50    2.70
  -3  -2  11   24.30    2.30
   2   2 -11   22.40    1.60
   2   2 -11   19.60    2.30
  -2  -2  11   19.00    2.00
   1   2 -11  106.89    3.80
   1   2 -11  115.59    3.80
   1   2 -11  107.59    5.00
  -1  -2  11  120.49    5.20
  -1  -2  11  121.69    4.60
   0   2 -11   73.69    3.90
   0  -2  11   80.09    4.20
   0  -2  11   80.89    3.50
  -1   2 -11    5.10    1.70
  -1   2 -11    7.70    1.60
   1  -2  11    7.50    2.10
   1  -2  11    8.10    1.60
  -2   2 -11   43.60    2.90
  -2   2 -11   47.70    3.00
   2  -2  11   52.19    2.10
   2  -2  11   47.30    3.20
   2  -2  11   51.49    3.00
  -3   2 -11   65.59    3.30
  -3   2 -11   66.79    3.80
   3  -2  11   72.79    2.90
   3  -2  11   73.49    4.00
  -4   2 -11  146.19    6.20
  -4   2 -11  137.49    5.30
   4  -2  11  148.09    5.30
   4  -2  11  142.49    6.10
  -5   2 -11   19.10    3.00
   5  -2  11   21.50    2.00
   5  -2  11   19.60    2.70
  -6   2 -11   -1.80    2.50
   6   0 -12   44.70    3.90
   6   0 -12   49.20    3.20
   5   0 -12   30.90    3.10
   5   0 -12   37.70    3.00
  -5   0  12   37.10    3.10
   4   0 -12  118.99    5.30
   4   0 -12  122.29    5.50
  -4   0  12  119.89    4.70
  -4   0  12  133.69    5.80
   3   0 -12   18.60    2.50
   3   0 -12   14.80    2.00
  -3   0  12   14.40    1.70
  -3   0  12   18.40    2.60
   2   0 -12  236.48    8.10
  -2   0  12  212.58    7.10
  -2   0  12  200.38    8.00
  -2   0  12  209.08    6.90
   1   0 -12  119.09    5.10
  -1   0  12  120.59    4.40
  -1   0  12  119.59    4.10
  -1   0  12  119.49    5.20
   0   0 -12   23.20    1.50
   0   0 -12   26.70    2.50
   0   0  12   23.80    2.50
   0   0  12   21.00    1.30
   0   0  12   25.00    1.60
   0   0  12   24.70    1.60
  -1   0 -12   19.60    2.40
  -1   0 -12   18.00    1.60
   1   0  12   17.30    2.30
   1   0  12   20.80    1.50
   1   0  12   18.60    1.60
  -2   0 -12    5.80    1.50
  -2   0 -12    4.80    1.70
   2   0  12    7.30    2.00
   2   0  12    6.90    1.30
  -3   0 -12   22.90    2.20
  -3   0 -12   20.60    2.30
   3   0  12   22.50    2.30
   3   0  12   19.30    1.80
  -4   0 -12   87.49    3.80
  -4   0 -12   82.79    4.10
   4   0  12   80.69    3.80
   4   0  12   79.29    4.70
  -5   0 -12   32.70    3.00
   5   0  12   37.20    2.90
   5   0  12   36.20    2.90
  -6   0 -12   20.70    2.90
   6   0  12   16.70    2.70
   6   0  12   25.10    2.60
   7   0  12    3.00    2.50
   6  -2 -13   27.80    3.50
   5  -2 -13   25.60    3.30
   5  -2 -13   36.30    3.00
  -5   2  13   37.80    3.40
   4  -2 -13   45.10    3.40
   4  -2 -13   47.90    3.40
  -4   2  13   50.59    3.50
   3  -2 -13   31.90    3.00
  -3   2  13   35.80    3.00
   2  -2 -13   13.60    2.50
  -2   2  13   12.10    2.10
  -2   2  13    9.10    1.80
   1  -2 -13  129.19    5.50
  -1   2  13  138.39    5.10
  -1   2  13  118.09    5.30
   0  -2 -13   26.20    2.90
   0   2  13   26.50    2.10
   0   2  13   27.70    2.40
  -1  -2 -13   96.19    4.70
  -1  -2 -13   96.99    3.40
   1   2  13  101.59    4.30
   1   2  13   91.59    3.30
   1   2  13   91.79    3.30
   1   2  13   98.99    4.20
  -2  -2 -13    0.40    1.70
  -2  -2 -13   -0.50    1.10
   2   2  13    0.60    1.30
   2   2  13    0.70    1.40
  -3  -2 -13   22.90    1.90
  -3  -2 -13   19.00    2.50
   3   2  13   23.10    2.30
   3   2  13   25.00    2.30
  -4  -2 -13   50.89    2.90
  -4  -2 -13   51.89    3.20
   4   2  13   45.80    3.00
  -5  -2 -13   86.79    4.30
   5   2  13   80.19    4.30
  -6  -2 -13   12.80    2.60
   6   2  13    9.30    2.20
   5  -4 -14    6.80    2.60
   5  -4 -14    6.20    2.20
  -5   4  14    6.10    2.40
   4  -4 -14  297.37   10.70
   4  -4 -14  293.97   11.00
  -4   4  14  318.77   11.10
  -3   4  14   43.60    3.10
   2  -4 -14    0.40    1.80
  -2   4  14    2.90    1.60
  -2   4  14    1.30    1.90
  -1   4  14   10.60    2.00
  -1   4  14   13.50    1.90
   0   4  14   10.30    1.90
   0   4  14    9.00    1.60
  -1  -4 -14  115.79    5.80
   1   4  14  111.39    4.90
   1   4  14  102.09    4.30
  -2  -4 -14   26.80    1.60
   2   4  14   28.10    2.00
   2   4  14   24.20    3.10
  -3  -4 -14   28.00    3.80
  -3  -4 -14   30.80    2.00
   3   4  14   24.50    2.70
  -4  -4 -14   13.60    2.40
  -4  -4 -14   14.80    2.10
   4   4  14   19.30    2.70
  -5  -4 -14   23.10    2.70
   5   4  14   21.60    2.90
  -6  -4 -14   44.70    3.70
   4  -6 -15   90.29    5.30
  -4   6  15   91.19    4.80
   3  -6 -15   32.60    3.50
  -3   6  15   42.50    3.10
  -3   6  15   37.90    3.50
   2  -6 -15   22.90    3.00
  -2   6  15   20.60    2.70
  -2   6  15   18.80    2.30
   1  -6 -15   -0.90    1.80
  -1   6  15   -1.50    1.70
  -1   6  15   -0.40    1.40
   0  -6 -15   28.50    3.00
   0   6  15   29.40    1.90
   0   6  15   28.60    2.80
  -1  -6 -15   16.80    2.70
   1   6  15   19.50    2.50
  -2  -6 -15   30.60    3.00
   2   6  15   20.80    2.90
  -3  -6 -15   27.40    3.00
   3   6  15   30.50    3.40
  -4  -6 -15    0.50    2.00
   4   6  15    3.10    2.30
   3  -8 -16    7.80    2.70
   2  -8 -16   79.29    5.10
  -2   8  16   81.29    5.50
   1  -8 -16   25.70    3.30
  -1   8  16   22.90    3.10
   0  -8 -16    5.60    2.30
   0   8  16   10.20    2.70
  -1  -8 -16   20.20    2.90
   1   8  16   16.10    3.00
  -2  -8 -16    1.40    2.20
   2   8  16    6.00    2.30
  -3  -8 -16   14.60    3.20
  -1  -9   8   21.70    3.30
  -2   9  -8    4.10    2.30
  -4  -7   9   35.20    3.40
   3   7  -9   -1.10    2.00
  -3  -7   9    0.60    2.20
   2   7  -9    7.80    2.00
  -2  -7   9    5.20    2.50
  -2  -7   9    7.10    2.10
   1   7  -9   -0.50    1.80
  -1  -7   9    3.40    2.00
  -1  -7   9   -0.70    2.10
   0   7  -9   61.39    3.90
   0  -7   9   49.99    4.10
   0  -7   9   65.29    4.10
  -1   7  -9   40.40    3.40
   1  -7   9   37.60    3.50
   1  -7   9   37.90    3.50
  -2   7  -9   23.30    2.60
   2  -7   9   25.00    3.00
  -3   7  -9    1.00    2.60
   3  -7   9    2.70    2.60
   5   5 -10   59.79    3.90
  -5  -5  10   53.19    4.30
  -5  -5  10   58.99    4.10
   4   5 -10   12.90    2.50
  -4  -5  10    9.30    2.20
  -4  -5  10    8.10    2.60
   3   5 -10  204.58    7.90
  -3  -5  10  193.78    8.00
  -3  -5  10  202.68    8.00
   2   5 -10   11.70    2.20
  -2  -5  10   13.40    2.30
  -2  -5  10   14.30    2.60
   1   5 -10    8.70    1.90
  -1  -5  10    4.60    1.90
  -1  -5  10    5.20    2.00
   0   5 -10   44.30    3.20
   0  -5  10   36.60    3.40
   0  -5  10   40.90    3.00
  -1   5 -10   94.99    4.40
   1  -5  10   84.89    4.90
   1  -5  10   93.99    4.70
  -2   5 -10   71.79    4.10
  -2   5 -10   77.19    4.50
   2  -5  10   66.59    4.30
   2  -5  10   74.89    4.30
  -3   5 -10   26.10    2.40
  -3   5 -10   18.80    3.00
   3  -5  10   29.80    3.10
   3  -5  10   24.90    2.80
  -4   5 -10    3.40    2.50
   4  -5  10   -1.30    2.00
   4  -5  10    5.80    2.40
   6   3 -11   19.20    3.00
  -6  -3  11   13.70    2.80
   5   3 -11  145.39    6.10
  -5  -3  11  134.19    6.30
  -5  -3  11  151.98    6.50
   4   3 -11   36.30    3.10
  -4  -3  11   32.90    2.90
  -4  -3  11   29.50    3.10
   3   3 -11   50.29    3.40
  -3  -3  11   53.29    3.60
  -3  -3  11   53.29    3.40
   2   3 -11   50.39    3.40
  -2  -3  11   52.19    3.50
  -2  -3  11   50.89    3.10
   1   3 -11   55.89    3.80
  -1  -3  11   56.09    3.60
  -1  -3  11   59.89    3.20
   0   3 -11    0.60    1.60
   0  -3  11   -0.50    1.20
   0  -3  11    3.40    2.30
  -1   3 -11   42.50    3.10
  -1   3 -11   49.30    3.00
   1  -3  11   43.00    3.40
   1  -3  11   48.60    2.90
  -2   3 -11  215.68    8.00
  -2   3 -11  211.68    7.70
   2  -3  11  221.78    8.10
   2  -3  11  215.88    8.20
  -3   3 -11   14.70    2.60
  -3   3 -11   21.00    2.10
   3  -3  11   19.50    2.50
  -4   3 -11   13.80    2.70
   4  -3  11   14.20    2.60
  -5   3 -11   10.00    2.60
   5  -3  11    5.70    2.30
   6   1 -12    4.20    2.40
   6   1 -12    2.90    2.10
   5   1 -12   32.90    2.80
   5   1 -12   27.40    3.00
  -5  -1  12   33.50    3.30
  -5  -1  12   33.20    2.60
   4   1 -12    2.10    1.70
   4   1 -12   -0.40    1.60
  -4  -1  12   -1.60    1.50
  -4  -1  12    2.70    1.80
   3   1 -12  332.87   10.80
   3   1 -12  349.37   11.60
  -3  -1  12  319.57   11.60
  -3  -1  12  332.37   10.90
   2   1 -12   77.29    4.10
   2   1 -12   69.49    3.10
  -2  -1  12   77.69    3.40
  -2  -1  12   70.19    5.00
   1   1 -12  131.99    4.60
   1   1 -12  137.09    5.70
  -1  -1  12  140.49    5.90
  -1  -1  12  145.49    5.10
   0   1 -12   -0.60    0.80
   0   1 -12    0.90    1.60
   0  -1  12    0.80    1.60
   0  -1  12    0.80    0.70
   0  -1  12    1.80    1.10
  -1   1 -12    7.00    1.40
  -1   1 -12    6.80    0.90
  -1   1 -12    7.20    1.80
   1  -1  12    6.30    2.00
   1  -1  12    5.20    1.30
  -2   1 -12   53.89    3.20
  -2   1 -12   50.29    3.00
   2  -1  12   54.09    3.50
   2  -1  12   49.60    2.40
  -3   1 -12  191.98    7.00
  -3   1 -12  200.28    7.40
   3  -1  12  199.08    6.70
  -4   1 -12   65.39    3.30
  -4   1 -12   68.49    3.90
   4  -1  12   68.39    3.90
   4  -1  12   69.29    3.20
  -5   1 -12   13.70    2.60
   5  -1  12   11.90    2.10
   5  -1  12   12.80    2.20
  -6   1 -12    5.60    2.70
   6  -1  12    7.60    2.10
   6  -1 -13    7.10    2.80
   5  -1 -13   -2.50    2.10
   5  -1 -13    3.80    2.00
  -5   1  13    3.10    2.10
   4  -1 -13   15.50    2.60
   4  -1 -13   15.90    2.50
  -4   1  13   14.20    2.40
   3  -1 -13  243.18    8.60
  -3   1  13  249.97    9.10
   2  -1 -13  112.99    4.90
  -2   1  13  100.29    3.50
  -2   1  13   94.59    5.40
   1  -1 -13  126.69    5.40
  -1   1  13  128.19    4.80
  -1   1  13  116.69    4.00
  -1   1  13  121.69    5.40
   0  -1 -13   93.39    4.50
   0   1  13   96.09    3.30
   0   1  13   96.89    4.40
   0   1  13  100.29    3.90
   0   1  13   95.99    3.40
  -1  -1 -13   94.09    3.60
  -1  -1 -13   96.19    4.40
   1   1  13   92.19    3.80
   1   1  13   95.59    3.60
   1   1  13   90.99    4.30
   1   1  13   88.99    3.30
  -2  -1 -13   33.10    2.10
  -2  -1 -13   31.30    2.80
   2   1  13   34.30    2.20
   2   1  13   30.30    2.60
  -3  -1 -13   65.09    3.50
  -3  -1 -13   62.59    3.20
   3   1  13   60.49    3.60
   3   1  13   66.89    3.20
  -4  -1 -13   58.09    3.40
  -4  -1 -13   63.39    3.50
   4   1  13   62.79    3.30
   4   1  13   62.39    3.60
  -5  -1 -13   81.39    4.20
   5   1  13   75.49    4.00
   5   1  13   75.89    4.10
  -6  -1 -13   25.60    3.00
   6   1  13   15.90    2.90
   5  -3 -14    6.10    2.60
   5  -3 -14    4.00    2.10
  -5   3  14    3.50    2.40
   4  -3 -14   19.00    2.70
   4  -3 -14   24.30    2.80
  -4   3  14   21.80    2.80
   3  -3 -14   17.50    2.80
  -3   3  14   19.60    2.60
   2  -3 -14   30.30    3.10
  -2   3  14   33.30    2.60
   1  -3 -14  154.68    6.80
  -1   3  14  163.98    6.10
  -1   3  14  151.28    6.10
   0  -3 -14   78.29    4.30
   0   3  14   81.89    3.80
   0   3  14   71.79    3.70
  -1  -3 -14   94.69    4.70
   1   3  14   92.49    4.20
   1   3  14   92.69    4.10
  -2  -3 -14    0.10    1.00
   2   3  14    2.60    1.80
   2   3  14    1.20    1.20
  -3  -3 -14   20.00    2.60
  -3  -3 -14   25.60    1.90
   3   3  14   22.10    2.10
  -4  -3 -14   47.40    3.40
  -4  -3 -14   56.29    3.10
   4   3  14   54.99    3.50
  -5  -3 -14   30.00    2.80
   5   3  14   27.20    3.00
  -6  -3 -14   19.10    3.10
   6   3  14   14.00    2.60
   5  -5 -15   35.70    3.40
   4  -5 -15   33.80    3.40
  -4   5  15   33.70    3.20
   3  -5 -15   70.09    4.70
  -3   5  15   79.49    4.20
  -3   5  15   72.19    4.40
  -2   5  15    8.70    2.10
  -2   5  15    7.70    1.80
   1  -5 -15    1.60    1.80
  -1   5  15    4.20    1.40
  -1   5  15    0.20    1.70
   0  -5 -15   74.89    4.30
   0   5  15   74.59    4.00
   0   5  15   79.49    3.50
  -1  -5 -15  218.78    8.20
   1   5  15  208.18    7.10
   1   5  15  204.38    8.00
  -2  -5 -15   32.50    3.10
   2   5  15   28.90    3.10
  -3  -5 -15    0.50    1.70
   3   5  15   -2.00    1.80
  -4  -5 -15   30.60    3.00
   4   5  15   32.40    3.20
   5   5  15   50.79    3.90
   4  -7 -16   29.30    4.20
  -4   7  16   41.10    4.50
  -3   7  16   -4.10    2.40
  -3   7  16    3.50    2.20
   2  -7 -16    9.00    2.30
  -2   7  16    8.70    2.00
  -2   7  16   12.20    2.60
   1  -7 -16    5.80    2.30
  -1   7  16    7.20    2.30
   0  -7 -16   20.50    3.20
   0   7  16   24.10    2.90
  -1  -7 -16   15.10    2.40
   1   7  16   15.20    2.70
  -2  -7 -16   90.79    4.90
   2   7  16   87.99    5.10
  -3  -7 -16   15.10    2.50
   3   7  16   15.30    3.20
  -4  -7 -16    0.90    2.30
  -3  -8   9    5.70    2.80
  -2  -8   9   21.10    3.00
   1   8  -9   57.19    4.20
  -1  -8   9   54.29    4.20
  -1  -8   9   48.80    3.90
   0   8  -9    1.60    2.00
   0  -8   9    0.10    2.30
   0  -8   9   -3.10    2.60
  -1   8  -9   17.80    2.90
   1  -8   9   19.40    3.40
   1  -8   9   12.70    3.20
   4   6 -10   10.20    2.40
  -4  -6  10    8.80    3.20
  -4  -6  10   10.20    2.50
   3   6 -10    0.90    1.90
  -3  -6  10   -2.90    2.30
  -3  -6  10   -2.20    1.90
   2   6 -10   -1.20    1.70
  -2  -6  10   -2.50    2.10
  -2  -6  10    2.60    1.80
   1   6 -10   25.00    2.80
  -1  -6  10   19.90    2.70
  -1  -6  10   22.50    2.80
   0   6 -10   59.49    3.70
   0  -6  10   57.39    4.00
   0  -6  10   57.99    3.90
  -1   6 -10   45.00    3.20
   1  -6  10   42.90    3.30
   1  -6  10   39.10    3.60
  -2   6 -10    0.00    1.60
  -2   6 -10   -0.90    2.10
   2  -6  10   -0.70    2.00
   2  -6  10    0.20    1.80
  -3   6 -10    2.90    1.70
  -3   6 -10    2.30    2.30
   3  -6  10   -0.50    2.10
   3  -6  10   -1.70    2.20
  -4   6 -10   17.00    4.70
   4  -6  10   21.70    3.40
  -6  -4  11    6.20    3.90
   5   4 -11   16.90    2.80
  -5  -4  11   22.90    3.00
  -5  -4  11   25.80    3.50
   4   4 -11   14.10    2.40
  -4  -4  11   17.80    2.90
  -4  -4  11   16.50    2.80
   3   4 -11   30.50    2.90
  -3  -4  11   28.00    2.90
  -3  -4  11   23.00    2.90
   2   4 -11    5.50    1.90
  -2  -4  11    2.00    1.90
  -2  -4  11    7.50    2.10
   1   4 -11   16.60    2.30
  -1  -4  11   14.70    2.50
  -1  -4  11   12.00    2.00
   0   4 -11   86.19    4.40
   0  -4  11   87.39    4.20
   0  -4  11   82.09    4.60
  -1   4 -11  112.09    5.60
   1  -4  11  117.19    5.20
   1  -4  11  109.19    5.70
  -2   4 -11   11.00    2.10
  -2   4 -11   12.40    2.30
   2  -4  11    8.10    2.00
   2  -4  11   12.50    2.30
  -3   4 -11   12.70    2.50
  -3   4 -11   15.90    2.10
   3  -4  11   13.40    2.50
   3  -4  11   15.80    2.90
  -4   4 -11    0.20    2.30
   4  -4  11   -0.80    1.90
  -5   4 -11   37.90    3.90
   6   2 -12    9.00    2.20
   5   2 -12   34.00    3.00
   5   2 -12   24.60    2.60
  -5  -2  12   26.90    3.10
  -5  -2  12   27.50    2.70
   4   2 -12    4.30    1.70
   4   2 -12   -0.90    1.50
  -4  -2  12    2.00    1.80
  -4  -2  12    1.60    1.70
   3   2 -12   68.99    3.10
   3   2 -12   66.99    3.90
  -3  -2  12   66.99    3.60
  -3  -2  12   67.39    4.10
   2   2 -12   52.39    3.40
   2   2 -12   52.09    2.40
  -2  -2  12   58.89    3.70
  -2  -2  12   55.99    3.00
   1   2 -12   14.90    2.50
   1   2 -12   19.60    1.20
  -1  -2  12   20.50    1.90
  -1  -2  12   24.50    2.70
   0   2 -12   14.90    2.40
   0  -2  12   17.00    1.80
  -1   2 -12  152.88    5.70
  -1   2 -12  144.29    6.00
   1  -2  12  149.99    5.70
  -2   2 -12   55.09    3.20
  -2   2 -12   46.40    3.10
   2  -2  12   50.29    2.10
   2  -2  12   51.19    3.10
   2  -2  12   50.49    3.60
  -3   2 -12   79.19    3.90
  -3   2 -12   89.79    4.80
   3  -2  12   94.09    4.70
   3  -2  12   90.89    3.60
  -4   2 -12    4.70    1.80
  -4   2 -12    7.10    2.40
   4  -2  12    6.60    2.10
   5  -2  12    6.00    2.20
   6  -2  12    5.00    2.70
   6   0 -13   24.70    2.90
   6   0 -13   19.50    3.40
   5   0 -13   -2.00    2.10
   5   0 -13    0.10    1.80
  -5   0  13    2.90    2.10
   4   0 -13   64.39    3.80
   4   0 -13   58.09    3.50
  -4   0  13   59.09    3.90
   3   0 -13   66.39    3.90
   3   0 -13   61.19    3.30
  -3   0  13   62.39    2.90
  -3   0  13   61.89    3.80
   2   0 -13   16.30    3.20
   2   0 -13   16.30    1.80
  -2   0  13   12.50    1.60
  -2   0  13   13.60    2.30
   1   0 -13   34.40    3.00
  -1   0  13   35.30    2.90
  -1   0  13   32.80    2.00
  -1   0  13   32.60    1.90
   0   0 -13    3.30    1.70
   0   0  13    1.80    0.90
   0   0  13    0.50    0.90
   0   0  13    0.40    0.90
   0   0  13    1.40    1.60
  -1   0 -13   59.59    3.50
  -1   0 -13   58.59    2.70
   1   0  13   53.79    2.70
   1   0  13   60.59    3.50
   1   0  13   56.99    2.70
  -2   0 -13   35.20    2.80
  -2   0 -13   35.00    2.40
   2   0  13   36.30    2.90
   2   0  13   35.10    2.30
  -3   0 -13   93.69    4.30
  -3   0 -13   90.69    4.10
   3   0  13   90.19    4.60
   3   0  13   93.09    4.00
  -4   0 -13   53.59    3.60
  -4   0 -13   58.59    3.20
   4   0  13   56.19    3.50
   4   0  13   60.79    3.10
  -5   0 -13    1.20    2.00
   5   0  13   -2.60    1.70
   5   0  13    1.60    1.70
  -6   0 -13   11.20    2.70
   6   0  13    6.20    2.20
   6  -2 -14    5.60    3.50
   5  -2 -14    0.50    2.50
   5  -2 -14    2.40    2.00
  -5   2  14    2.10    2.20
   4  -2 -14   13.90    2.30
   4  -2 -14   13.20    2.50
  -4   2  14   16.60    2.70
   3  -2 -14   22.90    2.80
  -3   2  14   24.00    2.70
   2  -2 -14   61.79    4.00
  -2   2  14   60.59    3.70
  -2   2  14   64.29    3.40
   1  -2 -14  273.47    9.90
  -1   2  14  264.17    9.70
  -1   2  14  294.87    9.50
   0  -2 -14    6.50    2.00
   0   2  14    4.50    1.40
   0   2  14    3.70    1.60
  -1  -2 -14    7.30    2.10
  -1  -2 -14    7.90    0.90
   1   2  14    6.00    0.90
   1   2  14    6.90    1.70
   1   2  14    7.50    1.60
  -2  -2 -14   30.20    1.90
  -2  -2 -14   28.40    2.90
   2   2  14   30.30    2.50
   2   2  14   27.70    2.40
  -3  -2 -14  140.69    5.30
  -3  -2 -14  138.09    5.90
   3   2  14  138.89    5.60
   3   2  14  142.79    5.70
  -4  -2 -14   64.79    3.70
  -4  -2 -14   69.39    3.50
   4   2  14   64.49    3.70
   4   2  14   65.19    3.60
  -5  -2 -14   57.49    3.40
   5   2  14   52.79    3.50
  -6  -2 -14    5.00    2.50
   6   2  14    6.70    2.40
   5  -4 -15   13.20    3.10
   4  -4 -15    5.40    2.50
  -4   4  15    6.20    2.30
   3  -4 -15    4.20    2.20
  -3   4  15    8.00    2.00
   2  -4 -15   18.50    3.00
  -2   4  15   16.20    2.30
  -2   4  15   17.10    2.30
   1  -4 -15   38.40    3.50
  -1   4  15   41.40    2.80
  -1   4  15   37.90    3.20
   0  -4 -15  134.29    5.80
   0   4  15  125.89    5.90
   0   4  15  121.69    5.10
  -1  -4 -15   37.50    3.30
   1   4  15   34.50    2.40
  -2  -4 -15   10.20    2.10
   2   4  15    8.70    1.70
   2   4  15   13.60    2.40
  -3  -4 -15   28.70    2.90
   3   4  15   31.00    3.00
  -4  -4 -15   47.30    3.50
   4   4  15   47.30    3.70
   5   4  15   28.60    3.50
   4  -6 -16   19.10    3.10
  -4   6  16   20.40    3.00
   3  -6 -16   -1.70    2.40
  -3   6  16    5.20    2.30
  -3   6  16    0.40    2.00
   2  -6 -16    7.10    2.50
  -2   6  16    7.90    2.30
   1  -6 -16   48.60    3.70
  -1   6  16   53.59    2.90
  -1   6  16   41.00    3.30
   0  -6 -16   93.19    5.10
   0   6  16  103.59    5.00
  -1  -6 -16   20.80    3.00
   1   6  16   22.20    2.80
  -2  -6 -16    3.90    2.10
   2   6  16    0.90    2.10
  -3  -6 -16    0.00    2.00
   3   6  16    2.70    2.40
  -4  -6 -16   40.30    3.60
   4   6  16   36.70    3.70
   1  -8 -17   11.00    3.00
   0  -8 -17   12.40    2.60
   0   8  17    9.10    2.80
  -1  -8 -17   53.49    5.10
  -3  -7  10   24.60    3.60
  -3  -7  10   32.10    3.40
   2   7 -10   39.60    3.50
  -2  -7  10   41.70    3.30
  -2  -7  10   42.10    3.80
   1   7 -10    0.70    2.10
  -1  -7  10    4.40    2.40
  -1  -7  10    0.20    2.00
   0   7 -10   37.10    3.60
   0  -7  10   40.70    3.50
   0  -7  10   38.70    3.60
  -1   7 -10    9.50    2.20
   1  -7  10    6.30    2.60
   1  -7  10    5.90    2.40
  -2   7 -10   -2.60    1.90
   2  -7  10   -0.50    2.40
   2  -7  10   -0.90    2.30
  -5  -5  11   -0.10    2.80
   4   5 -11    8.50    2.30
  -4  -5  11   11.50    2.50
  -4  -5  11    8.50    2.80
   3   5 -11   11.60    2.20
  -3  -5  11    7.20    2.40
  -3  -5  11    7.70    2.20
   2   5 -11    7.90    1.90
  -2  -5  11   10.30    2.40
  -2  -5  11    5.30    2.10
   1   5 -11   61.09    3.90
  -1  -5  11   56.69    3.90
  -1  -5  11   62.99    3.80
   0   5 -11   98.99    4.80
   0  -5  11   98.79    4.70
   0  -5  11   90.89    5.10
  -1   5 -11   -0.20    1.70
   1  -5  11   -0.60    2.20
   1  -5  11    2.40    1.80
  -2   5 -11    4.50    1.70
  -2   5 -11    3.00    1.90
   2  -5  11    3.20    2.00
   2  -5  11    2.40    2.10
  -3   5 -11   -0.40    2.20
  -3   5 -11    3.40    1.60
   3  -5  11   -0.30    2.00
   3  -5  11    4.10    2.40
  -4   5 -11   18.80    3.30
   4  -5  11   21.00    3.30
   4  -5  11   20.20    3.50
   6   3 -12    3.70    2.50
   5   3 -12    1.80    1.90
  -5  -3  12    1.30    2.20
  -5  -3  12    2.90    2.30
   4   3 -12   74.69    4.30
  -4  -3  12   68.19    4.00
  -4  -3  12   59.89    4.30
   3   3 -12    4.40    1.90
  -3  -3  12    9.10    2.20
  -3  -3  12    8.60    2.00
   2   3 -12   -1.40    1.60
  -2  -3  12   -0.70    1.70
  -2  -3  12    2.10    1.50
   1   3 -12   22.10    2.90
  -1  -3  12   32.20    2.40
  -1  -3  12   28.80    2.90
   0   3 -12   39.50    3.30
   0  -3  12   39.90    2.70
   0  -3  12   37.40    3.30
  -1   3 -12   36.90    2.70
  -1   3 -12   32.40    3.00
   1  -3  12   37.40    3.40
   1  -3  12   37.00    2.60
  -2   3 -12  129.99    6.20
  -2   3 -12  122.99    5.40
   2  -3  12  134.79    5.70
   2  -3  12  131.69    6.10
  -3   3 -12   42.70    3.30
  -3   3 -12   43.40    2.90
   3  -3  12   45.90    3.50
   3  -3  12   49.60    3.50
  -4   3 -12   21.40    3.00
   4  -3  12   18.10    2.80
  -5   3 -12    7.70    2.70
   5  -3  12   10.10    2.40
   6   1 -13    8.70    2.40
   6   1 -13    5.40    2.50
   5   1 -13    1.60    1.90
   5   1 -13    2.10    2.30
  -5  -1  13    0.20    2.20
   4   1 -13   28.80    2.90
   4   1 -13   24.20    2.50
  -4  -1  13   29.40    3.10
  -4  -1  13   29.10    2.50
   3   1 -13   53.59    3.70
   3   1 -13   50.49    2.90
  -3  -1  13   52.09    3.80
  -3  -1  13   54.99    2.90
   2   1 -13   34.70    3.00
   2   1 -13   29.40    2.10
  -2  -1  13   35.00    3.10
  -2  -1  13   30.20    2.20
  -1  -1  13    3.60    1.20
  -1  -1  13    1.50    1.80
   0   1 -13   61.99    3.80
   0  -1  13   59.69    2.90
   0  -1  13   64.49    2.60
  -1   1 -13   68.79    3.20
  -1   1 -13   68.09    3.80
   1  -1  13   69.49    3.20
   1  -1  13   67.99    2.80
   1  -1  13   63.49    4.90
  -2   1 -13  113.19    4.90
  -2   1 -13  106.69    4.60
   2  -1  13  106.99    4.60
   2  -1  13  106.59    4.10
   2  -1  13  104.79    5.30
  -3   1 -13   13.70    2.10
  -3   1 -13   13.50    2.10
   3  -1  13   11.40    1.60
   3  -1  13   12.00    2.40
  -4   1 -13    5.70    2.00
  -4   1 -13    4.10    1.40
   4  -1  13    5.90    1.40
   4  -1  13    5.40    2.00
  -5   1 -13   28.90    3.20
   5  -1  13   26.80    2.90
  -6   1 -13   27.90    3.60
   6  -1  13   25.00    3.30
   6  -1 -14   -0.70    2.90
   5  -1 -14    5.10    2.10
   5  -1 -14   -2.70    2.50
  -5   1  14    6.70    2.30
   4  -1 -14   23.60    2.90
   4  -1 -14   18.20    2.60
  -4   1  14   17.20    2.70
   3  -1 -14   31.60    3.10
   3  -1 -14   29.70    2.50
  -3   1  14   25.50    2.80
   2  -1 -14   80.29    4.30
  -2   1  14   68.09    4.20
  -1   1  14    4.00    0.80
  -1   1  14    6.10    2.00
   0  -1 -14    1.50    1.70
   0   1  14    0.00    1.60
   0   1  14    1.30    0.70
   0   1  14    2.00    1.20
  -1  -1 -14    3.00    1.00
  -1  -1 -14    1.30    1.70
   1   1  14    2.00    1.60
   1   1  14    1.70    1.00
   1   1  14    1.70    1.10
  -2  -1 -14  116.89    4.60
  -2  -1 -14  119.39    5.20
   2   1  14  116.19    4.80
   2   1  14  115.69    5.10
  -3  -1 -14   70.09    3.90
  -3  -1 -14   74.09    3.60
   3   1  14   73.29    3.60
   3   1  14   73.39    4.00
  -4  -1 -14   10.30    3.50
  -4  -1 -14    5.20    1.80
   4   1  14    4.80    2.00
   4   1  14    7.40    2.10
  -5  -1 -14   10.30    2.40
   5   1  14    9.90    2.10
  -6  -1 -14    2.50    2.70
   6   1  14    4.30    2.30
   5  -3 -15    9.40    2.70
   5  -3 -15    7.10    2.30
   4  -3 -15    0.10    2.20
   4  -3 -15    3.20    1.90
  -4   3  15    5.80    2.10
   3  -3 -15   12.20    2.50
  -3   3  15   15.30    2.60
   2  -3 -15  132.39    6.00
  -2   3  15  130.69    5.70
   1  -3 -15    8.10    2.20
  -1   3  15    7.90    1.80
  -1   3  15    6.50    1.90
   0  -3 -15    9.50    2.50
   0   3  15    9.30    1.80
   0   3  15    9.50    1.90
  -1  -3 -15    1.60    2.10
   1   3  15    4.10    1.50
   1   3  15    4.10    1.60
  -2  -3 -15  100.69    5.20
   2   3  15  108.69    4.90
   2   3  15  109.59    4.50
  -3  -3 -15   22.00    2.90
  -3  -3 -15   26.00    1.90
   3   3  15   21.50    2.60
   3   3  15   23.60    2.10
  -4  -3 -15   32.50    3.30
  -4  -3 -15   38.90    2.60
   4   3  15   41.20    3.20
  -5  -3 -15    2.30    2.00
   5   3  15    4.60    2.10
  -6  -3 -15    4.70    2.80
   5  -5 -16    1.20    2.40
   4  -5 -16   -2.00    2.10
  -4   5  16    3.90    2.40
   3  -5 -16    4.90    2.50
  -3   5  16    8.20    2.20
   2  -5 -16   35.40    3.80
  -2   5  16   36.40    3.10
  -2   5  16   45.20    3.00
   1  -5 -16   60.69    4.10
  -1   5  16   61.09    3.50
  -1   5  16   64.49    3.60
   0  -5 -16   58.39    3.90
   0   5  16   55.69    3.00
   0   5  16   52.59    3.50
  -1  -5 -16   25.00    3.00
   1   5  16   18.70    2.40
  -2  -5 -16   16.40    2.80
   2   5  16   20.40    2.70
  -3  -5 -16   33.60    3.30
   3   5  16   32.10    3.40
  -4  -5 -16   46.80    3.80
   4   5  16   51.69    3.80
  -3   7  17   -0.20    2.20
   2  -7 -17   11.60    2.60
  -2   7  17    9.00    2.80
   1  -7 -17    8.20    2.40
  -1   7  17   11.70    2.50
   0  -7 -17   35.80    3.70
   0   7  17   42.30    3.50
  -1  -7 -17    5.30    2.30
   1   7  17    3.00    2.30
  -2  -7 -17   19.00    3.00
   2   7  17   20.70    3.10
  -3  -7 -17    9.10    2.50
  -1   8 -10    7.10    2.30
  -2   8 -10   28.60    3.40
  -4  -6  11   16.20    3.30
   3   6 -11    9.80    2.40
  -3  -6  11   12.30    2.40
  -3  -6  11    9.60    2.80
   2   6 -11   37.00    3.50
  -2  -6  11   38.60    3.30
  -2  -6  11   41.60    3.50
   1   6 -11   30.90    3.20
  -1  -6  11   32.70    3.20
  -1  -6  11   28.30    3.10
   0   6 -11   26.30    3.00
   0  -6  11   26.00    3.30
   0  -6  11   27.00    3.00
  -1   6 -11    3.80    2.00
   1  -6  11    3.50    2.40
   1  -6  11   -0.10    2.00
  -2   6 -11   35.60    3.00
  -2   6 -11   40.00    3.30
   2  -6  11   34.70    3.50
   2  -6  11   37.00    3.70
  -3   6 -11   15.50    3.00
   3  -6  11   18.60    3.20
  -5  -4  12   18.00    3.20
   4   4 -12   -2.20    1.80
  -4  -4  12   -2.90    2.20
   3   4 -12   -1.50    1.70
  -3  -4  12    2.60    2.10
  -3  -4  12    2.30    2.00
   2   4 -12   64.99    4.10
  -2  -4  12   66.89    3.80
  -2  -4  12   67.99    4.10
   1   4 -12   78.39    4.30
  -1  -4  12   77.29    4.40
   0   4 -12   76.19    4.20
   0  -4  12   82.49    4.60
  -1   4 -12   13.10    2.10
   1  -4  12   15.30    2.80
   1  -4  12   11.40    2.10
  -2   4 -12   -1.20    1.70
  -2   4 -12   -2.40    1.60
   2  -4  12   -1.70    1.90
   2  -4  12    1.50    1.90
  -3   4 -12   21.90    2.90
   3  -4  12   24.80    3.20
   3  -4  12   21.80    3.00
  -4   4 -12   40.20    3.80
   4  -4  12   50.19    3.80
   4  -4  12   41.00    3.70
   6   2 -13    9.10    2.50
   5   2 -13   51.29    3.90
  -5  -2  13   48.40    4.60
   4   2 -13    5.40    2.00
  -4  -2  13    2.70    2.20
  -4  -2  13   -0.20    1.70
   3   2 -13   14.60    2.40
  -3  -2  13   14.60    2.50
  -3  -2  13   10.70    2.10
   2   2 -13    3.60    1.80
  -2  -2  13   11.30    2.30
  -2  -2  13    6.20    1.70
   1   2 -13    7.60    2.10
  -1  -2  13   10.50    1.80
  -1  -2  13   12.60    2.20
   0   2 -13  229.78    8.60
   0  -2  13  223.18    7.90
   0  -2  13  232.38    8.70
  -1   2 -13  106.09    4.50
  -1   2 -13  106.39    5.00
   1  -2  13  106.09    5.30
   1  -2  13  106.69    4.50
  -2   2 -13    5.70    1.70
  -2   2 -13    5.10    1.60
   2  -2  13    4.10    2.20
   2  -2  13    3.70    1.80
  -3   2 -13   -0.20    1.50
  -3   2 -13   -2.00    1.70
   3  -2  13   -0.50    1.70
  -4   2 -13   24.10    3.00
   4  -2  13   26.70    3.10
  -5   2 -13   52.39    3.90
   5  -2  13   35.80    3.60
   6   0 -14    6.00    2.90
   6   0 -14    6.30    2.50
   5   0 -14   14.50    2.80
   5   0 -14    9.10    2.70
  -5   0  14   15.90    3.00
   4   0 -14   34.40    3.20
   4   0 -14   29.90    2.90
  -4   0  14   29.30    3.10
   3   0 -14   57.49    3.20
   3   0 -14   58.09    3.80
  -3   0  14   48.80    3.80
   2   0 -14   10.20    1.70
   2   0 -14   12.60    2.40
  -2   0  14    9.30    1.40
  -2   0  14   11.60    2.40
   1   0 -14   34.30    3.20
  -1   0  14   31.20    1.90
  -1   0  14   35.60    3.10
   0   0 -14   40.10    4.30
   0   0  14   43.00    2.30
   0   0  14   41.60    2.20
  -1   0 -14  105.89    4.10
  -1   0 -14  106.89    4.90
   1   0  14  106.69    5.60
   1   0  14  106.09    4.20
   1   0  14  105.09    4.10
  -2   0 -14   88.19    4.40
  -2   0 -14   88.89    4.00
   2   0  14   90.59    3.90
   2   0  14   86.59    3.80
  -3   0 -14   11.80    2.10
  -3   0 -14   12.20    1.90
   3   0  14   10.10    1.70
   3   0  14    6.70    2.00
  -4   0 -14   11.70    1.90
  -4   0 -14   14.10    2.40
   4   0  14   11.80    1.90
   4   0  14   14.40    2.50
  -5   0 -14   62.09    4.00
   5   0  14   54.69    3.90
   5   0  14   62.49    3.40
  -6   0 -14   40.30    3.70
   5  -2 -15    1.60    2.30
   5  -2 -15   -4.00    2.50
   4  -2 -15   64.09    4.30
   4  -2 -15   68.89    4.00
  -4   2  15   67.59    4.40
   3  -2 -15   45.80    3.40
  -3   2  15   40.50    3.30
   2  -2 -15    1.90    1.90
  -2   2  15    5.20    1.60
  -2   2  15    4.90    1.90
   1  -2 -15   85.59    4.60
  -1   2  15   81.59    4.80
  -1   2  15   86.09    3.90
   0  -2 -15   66.99    4.00
   0   2  15   64.09    3.70
   0   2  15   62.19    3.20
  -1  -2 -15  114.49    5.30
   1   2  15  109.79    4.60
   1   2  15  112.69    4.90
  -2  -2 -15   72.49    3.30
  -2  -2 -15   71.39    4.70
   2   2  15   76.99    3.80
   2   2  15   76.59    3.80
  -3  -2 -15   62.09    3.20
  -3  -2 -15   58.69    4.10
   3   2  15   56.79    3.40
   3   2  15   59.99    3.40
  -4  -2 -15   -2.50    1.90
  -4  -2 -15   -1.90    1.70
   4   2  15    4.90    1.90
   4   2  15   -2.00    2.00
  -5  -2 -15    1.80    2.20
   5   2  15    5.30    2.10
  -6  -2 -15   38.90    3.70
   6   2  15   36.70    3.40
   5  -4 -16    4.80    2.40
   4  -4 -16    8.30    2.70
   4  -4 -16    3.40    2.10
  -4   4  16    8.40    2.50
   3  -4 -16   28.30    3.40
  -3   4  16   32.30    3.00
   2  -4 -16   38.00    3.60
  -2   4  16   49.00    3.20
  -2   4  16   43.00    3.30
   1  -4 -16   20.60    3.10
  -1   4  16   22.30    2.40
  -1   4  16   26.20    2.70
   0  -4 -16   -2.60    1.90
   0   4  16    0.10    1.40
   0   4  16   -2.60    1.50
  -1  -4 -16   15.90    2.90
   1   4  16   12.00    2.10
   1   4  16   12.70    2.00
  -2  -4 -16   48.50    3.80
   2   4  16   48.80    3.40
  -3  -4 -16   53.79    3.90
   3   4  16   52.49    3.80
  -4  -4 -16   13.80    2.70
   4   4  16   18.20    2.90
   5   4  16    7.80    2.70
   4  -6 -17    3.30    2.70
   3  -6 -17   13.40    3.10
  -3   6  17   19.20    3.10
  -3   6  17   16.10    2.70
   2  -6 -17   13.60    3.00
  -2   6  17   13.20    2.50
  -2   6  17    9.90    2.50
   1  -6 -17   43.20    4.00
  -1   6  17   42.10    3.30
  -1   6  17   54.79    3.30
   0  -6 -17   42.00    3.60
   0   6  17   44.70    3.50
  -1  -6 -17    1.90    2.20
   1   6  17    3.10    2.00
  -2  -6 -17   50.09    3.90
   2   6  17   45.30    3.60
  -3  -6 -17   33.60    3.40
   3   6  17   35.40    3.80
  -4  -6 -17   19.00    3.10
  -2  -7  11   22.30    3.20
   1   7 -11    3.40    2.20
  -1  -7  11    2.50    2.30
  -1  -7  11    1.00    2.50
   0   7 -11    0.10    2.20
   0  -7  11    0.00    2.20
   0  -7  11    0.80    2.50
   1  -7  11    6.80    2.60
  -2   7 -11   20.50    2.80
  -4  -5  12    5.40    2.70
   3   5 -12   33.00    3.10
  -3  -5  12   34.20    3.30
  -3  -5  12   25.70    3.20
   2   5 -12   32.20    3.30
  -2  -5  12   37.80    3.30
  -2  -5  12   34.00    3.10
   1   5 -12   18.90    2.70
  -1  -5  12   25.60    2.80
  -1  -5  12   19.20    2.70
   0   5 -12    9.00    2.10
   0  -5  12    7.80    2.20
   0  -5  12   10.00    3.10
  -1   5 -12   22.40    3.00
   1  -5  12   26.30    3.20
   1  -5  12   24.70    2.60
  -2   5 -12   55.39    3.40
  -2   5 -12   47.50    3.60
   2  -5  12   47.20    4.10
   2  -5  12   45.70    3.60
  -3   5 -12   14.50    2.70
  -3   5 -12   20.90    2.40
   3  -5  12   17.30    2.90
   3  -5  12   17.60    2.90
  -4   5 -12   15.50    3.20
   5   3 -13   -0.20    2.10
   4   3 -13    6.90    2.10
  -4  -3  13   -0.20    2.00
  -4  -3  13    3.40    2.30
   3   3 -13   11.80    2.40
  -3  -3  13   16.10    2.90
   2   3 -13   34.50    3.30
  -2  -3  13   40.80    3.40
  -2  -3  13   38.70    2.70
   1   3 -13  144.49    6.50
  -1  -3  13  154.58    6.70
  -1  -3  13  158.78    6.00
   0   3 -13   16.40    2.70
   0  -3  13   21.00    2.10
   0  -3  13   17.20    2.70
  -1   3 -13   -0.90    1.70
   1  -3  13    2.10    2.00
   1  -3  13    1.80    1.50
  -2   3 -13   -0.60    1.60
  -2   3 -13    2.40    1.70
   2  -3  13   -1.10    1.60
   2  -3  13    1.50    2.10
  -3   3 -13  157.58    6.80
   3  -3  13  165.18    6.90
   3  -3  13  156.38    7.00
  -4   3 -13   44.50    3.80
   4  -3  13   53.49    3.90
  -5   3 -13   50.39    4.00
   6   1 -14   10.80    2.70
   5   1 -14    7.30    2.20
   4   1 -14   12.30    2.30
   4   1 -14   18.00    2.90
  -4  -1  14   16.80    2.60
   3   1 -14   -0.60    1.70
   3   1 -14   -1.20    1.40
  -3  -1  14   -0.20    1.70
   2   1 -14   11.60    1.50
   2   1 -14   13.50    2.30
  -2  -1  14   12.90    2.50
  -2  -1  14    9.20    1.70
   1   1 -14  158.48    5.50
   1   1 -14  161.38    6.60
  -1  -1  14  164.98    5.90
  -1  -1  14  162.28    6.70
   0   1 -14   69.99    4.10
   0  -1  14   70.09    3.30
   0  -1  14   72.79    2.90
   0  -1  14   71.59    4.20
  -1   1 -14   51.89    4.20
  -1   1 -14   52.09    2.80
   1  -1  14   49.60    2.80
   1  -1  14   52.69    2.30
   1  -1  14   51.09    3.60
  -2   1 -14    6.90    1.80
  -2   1 -14    5.80    1.90
   2  -1  14    7.20    2.30
   2  -1  14    6.60    1.70
   2  -1  14    6.30    1.10
  -3   1 -14   48.90    3.70
  -3   1 -14   49.50    3.20
   3  -1  14   46.10    3.70
  -4   1 -14   42.70    3.50
   4  -1  14   38.40    3.50
  -5   1 -14   83.59    4.80
   5  -1  14   89.09    5.00
   5  -1 -15    3.00    2.70
   5  -1 -15   11.90    2.50
   4  -1 -15   29.40    3.10
   4  -1 -15   32.30    2.90
  -4   1  15   25.50    3.10
   3  -1 -15   -3.00    1.80
   3  -1 -15    0.80    1.70
  -3   1  15    0.00    1.80
   2  -1 -15    8.00    2.10
  -2   1  15    6.70    2.20
   1  -1 -15   22.00    2.80
  -1   1  15   27.50    2.80
  -1   1  15   29.00    2.10
   0  -1 -15   65.39    3.90
   0   1  15   67.29    3.20
   0   1  15   64.39    4.20
  -1  -1 -15  111.29    4.00
  -1  -1 -15  112.59    5.20
   1   1  15  109.59    4.00
   1   1  15  105.29    5.60
   1   1  15  110.69    4.50
  -2  -1 -15   12.10    1.70
  -2  -1 -15   17.00    2.80
   2   1  15   14.70    1.60
   2   1  15   11.30    1.90
  -3  -1 -15    3.10    1.70
   3   1  15   -0.50    1.50
   3   1  15    1.50    1.90
  -4  -1 -15   33.70    3.00
   4   1  15   25.50    3.20
   4   1  15   38.10    2.80
  -5  -1 -15  122.49    5.60
   5   1  15  123.69    5.50
  -6  -1 -15   16.00    3.20
   5  -3 -16   21.60    3.50
   5  -3 -16   18.30    3.30
   4  -3 -16   12.00    2.60
   4  -3 -16    6.50    2.10
  -4   3  16    8.20    2.40
   3  -3 -16   17.00    2.90
  -3   3  16   19.70    2.90
   2  -3 -16   52.49    3.70
  -2   3  16   46.30    3.50
  -2   3  16   57.09    3.40
   1  -3 -16   91.89    4.90
  -1   3  16   83.19    4.40
   0  -3 -16   49.80    3.90
   0   3  16   52.99    3.20
   0   3  16   55.89    3.40
  -1  -3 -16   82.09    4.80
   1   3  16   78.39    4.00
   1   3  16   91.59    4.20
  -2  -3 -16   93.39    5.00
   2   3  16   95.89    4.30
   2   3  16   91.39    4.60
  -3  -3 -16    8.00    2.40
   3   3  16   12.40    2.40
  -4  -3 -16   -2.80    2.00
   4   3  16    2.90    2.10
   5   3  16   55.09    4.10
   4  -5 -17    9.60    2.80
   3  -5 -17    8.40    2.60
  -3   5  17   15.10    2.80
   2  -5 -17   21.10    3.50
  -2   5  17   20.30    2.60
  -2   5  17   20.50    2.80
  -1   5  17   12.50    2.20
  -1   5  17    9.60    2.10
   0  -5 -17   -0.30    2.00
   0   5  17    1.50    1.50
   0   5  17   -1.20    1.70
  -1  -5 -17   57.19    4.30
   1   5  17   57.79    3.60
  -2  -5 -17   98.69    5.30
   2   5  17   97.29    5.00
  -3  -5 -17   32.10    3.60
   3   5  17   33.50    3.60
  -4  -5 -17   -4.60    2.50
   4   5  17    4.30    2.80
   1  -7 -18    3.10    2.40
  -1   7  18    3.40    2.20
   0  -7 -18    1.90    2.40
   0   7  18    3.80    2.40
  -1  -7 -18   34.40    3.80
   1   7  18   37.00    3.50
  -3  -6  12   16.80    3.10
  -2  -6  12   13.90    2.70
  -2  -6  12   12.10    2.50
   1   6 -12    6.10    2.20
  -1  -6  12    4.10    2.20
  -1  -6  12    0.90    2.00
   0   6 -12   -3.00    2.20
   0  -6  12    2.40    2.10
   0  -6  12   -0.90    2.30
  -1   6 -12   31.10    3.30
   1  -6  12   26.40    3.60
   1  -6  12   28.20    3.10
  -2   6 -12   55.99    3.90
   2  -6  12   49.90    3.90
   4   4 -13   -0.80    2.10
  -4  -4  13    2.90    2.20
   3   4 -13   33.90    3.40
  -3  -4  13   42.30    3.30
  -3  -4  13   38.20    3.40
   2   4 -13   42.10    3.40
  -2  -4  13   46.00    3.20
  -2  -4  13   44.10    3.60
   1   4 -13   36.80    3.40
  -1  -4  13   36.00    2.90
  -1  -4  13   45.10    3.50
   0   4 -13    1.20    1.90
   0  -4  13    1.90    1.90
   0  -4  13    2.70    1.70
  -1   4 -13   46.90    3.50
   1  -4  13   45.40    3.80
   1  -4  13   43.60    3.10
  -2   4 -13    3.80    2.00
  -2   4 -13    2.20    2.10
   2  -4  13    3.90    2.00
   2  -4  13    4.10    2.40
  -3   4 -13   44.00    3.10
   3  -4  13   44.00    3.90
   3  -4  13   38.70    3.60
  -4   4 -13   42.00    4.00
   4  -4  13   44.90    3.90
   5   2 -14   12.40    2.60
   4   2 -14    5.60    2.00
  -4  -2  14   -1.00    2.20
   3   2 -14   15.60    2.50
  -3  -2  14   11.20    2.00
  -3  -2  14   15.50    2.70
   2   2 -14   64.49    4.00
  -2  -2  14   63.99    4.10
  -2  -2  14   63.59    3.40
   1   2 -14   19.20    2.90
  -1  -2  14   25.60    2.60
  -1  -2  14   25.30    2.10
   0   2 -14   75.09    4.20
   0  -2  14   68.29    3.40
   0  -2  14   70.39    4.10
  -1   2 -14    3.90    1.90
   1  -2  14    4.70    2.10
  -2   2 -14   93.69    4.30
  -2   2 -14   96.29    4.70
   2  -2  14   95.79    5.30
   2  -2  14   93.09    4.50
  -3   2 -14   46.10    3.40
  -3   2 -14   44.30    3.50
   3  -2  14   42.00    3.80
   3  -2  14   55.59    3.60
  -4   2 -14   -0.20    2.30
   4  -2  14    0.50    2.10
  -5   2 -14    6.10    3.00
   5  -2  14   12.80    2.50
   5   0 -15    7.00    2.50
   4   0 -15    1.10    2.00
   4   0 -15    2.40    2.10
  -4   0  15    2.70    2.30
   3   0 -15    3.60    1.70
   3   0 -15    1.80    2.00
  -3   0  15    1.00    2.10
   2   0 -15   16.40    2.70
   2   0 -15   15.40    2.00
  -2   0  15   16.40    2.80
   1   0 -15  149.49    6.40
  -1   0  15  151.08    6.50
   0   0 -15   57.59    3.70
   0   0  15   57.99    3.60
   0   0  15   58.09    2.70
   0   0  15   57.09    2.60
  -1   0 -15    8.20    1.50
  -1   0 -15    7.20    2.00
   1   0  15    8.00    2.20
   1   0  15    7.20    1.40
   1   0  15   10.10    1.50
  -2   0 -15   18.00    2.10
  -2   0 -15   21.50    2.60
   2   0  15   20.80    2.80
   2   0  15   23.50    2.20
   2   0  15   20.80    1.80
  -3   0 -15   61.39    3.70
  -3   0 -15   56.39    3.30
   3   0  15   48.40    3.10
   3   0  15   53.59    3.80
  -4   0 -15  108.19    5.00
   4   0  15  101.29    5.40
  -5   0 -15   55.19    4.00
   5   0  15   58.29    4.10
   5  -2 -16    1.20    2.70
   5  -2 -16    3.70    2.40
   4  -2 -16   46.30    3.70
   4  -2 -16   47.60    3.70
  -4   2  16   49.90    4.00
   3  -2 -16    3.00    2.00
   3  -2 -16    1.30    1.90
  -3   2  16    3.00    2.10
   2  -2 -16   11.90    2.50
  -2   2  16   13.60    2.50
   1  -2 -16    3.90    2.10
  -1   2  16    7.30    1.70
  -1   2  16    8.10    2.00
   0  -2 -16  111.19    5.40
   0   2  16  118.49    5.30
   0   2  16  109.39    4.70
  -1  -2 -16   54.49    3.70
   1   2  16   51.89    3.00
  -2  -2 -16   15.00    2.50
   2   2  16   15.30    2.60
   2   2  16   12.60    2.10
  -3  -2 -16    1.00    1.90
   3   2  16    3.30    2.00
   3   2  16    1.90    1.80
  -4  -2 -16   37.70    3.20
   4   2  16   41.80    3.20
   5   2  16   39.40    3.30
   5  -4 -17   10.70    2.70
   4  -4 -17   16.70    3.20
   4  -4 -17   22.60    3.60
   3  -4 -17    5.30    2.40
  -3   4  17    7.50    2.30
   2  -4 -17    2.00    2.10
  -2   4  17    6.90    2.00
  -2   4  17    6.30    2.00
   1  -4 -17    9.20    2.60
  -1   4  17   12.90    2.20
  -1   4  17   11.10    2.10
   0  -4 -17   62.09    4.50
   0   4  17   72.29    3.90
  -1  -4 -17   39.30    3.90
   1   4  17   46.50    2.90
   1   4  17   43.70    3.10
  -2  -4 -17   23.80    3.70
   2   4  17   25.30    2.70
  -3  -4 -17   -4.10    2.20
   3   4  17    1.20    2.30
  -4  -4 -17    8.50    2.90
   4   4  17    5.10    2.50
   3  -6 -18   10.60    3.60
  -3   6  18   16.10    2.90
   2  -6 -18   20.10    3.90
  -2   6  18   34.00    3.10
  -2   6  18   28.50    3.20
   1  -6 -18   -2.20    2.40
  -1   6  18   -1.80    2.00
   0  -6 -18   11.60    2.90
   0   6  18   12.30    2.40
  -1  -6 -18   52.09    4.30
   1   6  18   55.99    3.80
  -2  -6 -18   60.09    4.30
   2   6  18   54.69    4.00
  -3  -6 -18    2.00    2.60
   3   6  18    6.70    3.10
  -1  -7  12    8.80    3.20
   0  -7  12   18.50    4.00
  -1   7 -12  139.69    6.40
  -2   7 -12    5.20    2.50
  -4  -5  13   17.70    3.10
  -3  -5  13   26.80    3.30
   2   5 -13   13.00    2.70
  -2  -5  13   19.40    2.90
  -2  -5  13   17.40    2.80
   1   5 -13    1.80    2.00
  -1  -5  13   11.00    2.40
  -1  -5  13    6.20    2.10
   0   5 -13   21.80    3.00
   0  -5  13   23.30    2.70
   0  -5  13   16.70    2.90
  -1   5 -13    6.60    2.10
   1  -5  13    7.00    2.50
   1  -5  13    7.00    2.20
  -2   5 -13   65.99    4.00
  -2   5 -13   64.59    4.00
   2  -5  13   69.19    4.90
   2  -5  13   65.19    4.10
  -3   5 -13    1.90    2.60
   3  -5  13    3.40    2.40
   4   3 -14   20.50    2.90
   3   3 -14   43.90    3.80
  -3  -3  14   52.29    4.00
  -3  -3  14   54.19    3.40
   2   3 -14   36.50    3.50
  -2  -3  14   42.90    3.10
  -2  -3  14   48.00    3.50
   1   3 -14   42.00    3.30
  -1  -3  14   43.10    2.90
  -1  -3  14   44.30    3.50
   0   3 -14    8.70    2.20
   0  -3  14    8.50    1.80
   0  -3  14    9.60    2.20
  -1   3 -14   28.70    3.00
   1  -3  14   20.40    3.50
   1  -3  14   29.00    3.20
  -2   3 -14   56.99    3.50
  -2   3 -14   56.79    3.80
   2  -3  14   57.69    3.60
   2  -3  14   53.09    4.30
  -3   3 -14   24.00    2.70
  -3   3 -14   15.20    2.70
   3  -3  14   17.40    3.10
   3  -3  14   22.90    3.00
  -4   3 -14   10.70    2.80
   4  -3  14   11.80    2.70
   4  -3  14    7.00    2.60
   5   1 -15    2.60    2.30
   4   1 -15    1.40    2.10
  -4  -1  15    3.60    2.30
   3   1 -15   18.10    2.80
  -3  -1  15   25.70    3.20
   2   1 -15   66.49    4.20
  -2  -1  15   67.29    4.20
   1   1 -15  138.59    6.10
  -1  -1  15  140.29    5.30
  -1  -1  15  138.29    6.20
   0   1 -15    5.40    2.00
   0  -1  15    5.80    2.00
   0  -1  15    7.70    1.40
  -1   1 -15    0.40    1.70
   1  -1  15    1.70    1.90
   1  -1  15    2.20    1.30
  -2   1 -15   46.50    3.20
  -2   1 -15   36.90    2.80
   2  -1  15   35.80    3.40
   2  -1  15   42.20    2.80
  -3   1 -15   13.40    2.50
  -3   1 -15   16.90    2.30
   3  -1  15   16.70    2.40
   3  -1  15    9.50    2.80
  -4   1 -15   20.50    3.10
   4  -1  15   18.50    3.10
  -5   1 -15   17.50    3.50
   5  -1  15   11.60    2.70
   5  -1 -16    6.60    2.70
   5  -1 -16    3.50    2.50
   4  -1 -16   -0.80    2.20
   4  -1 -16   -3.40    2.20
  -4   1  16   -1.20    2.30
   3  -1 -16    6.00    2.10
   3  -1 -16    6.80    2.30
  -3   1  16    5.60    2.30
   2  -1 -16  134.99    6.20
  -2   1  16  133.89    6.20
   1  -1 -16   15.50    2.70
  -1   1  16   16.50    2.50
  -1   1  16   14.80    1.80
   0  -1 -16   19.90    2.80
   0   1  16   23.00    1.90
   0   1  16   26.90    2.80
  -1  -1 -16  156.98    6.60
   1   1  16  152.88    6.30
   1   1  16  155.58    5.90
  -2  -1 -16   33.30    3.10
   2   1  16   33.80    2.40
   2   1  16   34.80    3.00
  -3  -1 -16  110.99    5.10
  -3  -1 -16  106.89    4.70
   3   1  16  109.69    5.00
   3   1  16  102.89    5.10
  -4  -1 -16   78.89    4.20
  -4  -1 -16   71.99    3.90
   4   1  16   79.69    4.00
   4   1  16   67.89    4.40
  -5  -1 -16   63.59    4.30
   5  -3 -17   48.00    4.00
   4  -3 -17    1.80    2.10
   4  -3 -17    7.00    2.70
  -3   3  17   -1.40    2.10
   2  -3 -17    2.30    2.00
  -2   3  17    5.00    1.90
  -2   3  17    5.60    2.10
   1  -3 -17  114.19    5.80
  -1   3  17  118.19    5.10
  -1   3  17  115.69    5.40
   0  -3 -17   93.59    5.10
   0   3  17  103.69    4.80
   0   3  17   96.29    4.50
  -1  -3 -17   24.00    3.30
   1   3  17   27.70    2.40
   1   3  17   29.60    4.10
  -2  -3 -17   -1.80    2.10
   2   3  17    3.20    1.60
   2   3  17    0.90    1.80
  -3  -3 -17    2.50    2.20
   3   3  17    6.80    2.30
  -4  -3 -17   33.10    3.40
   4   3  17   35.60    3.60
   5   3  17    8.60    2.80
   3  -5 -18   19.60    3.50
  -3   5  18   31.50    3.50
   2  -5 -18    6.10    2.70
  -2   5  18    5.40    2.20
  -2   5  18    8.50    2.40
   1  -5 -18   11.00    2.80
  -1   5  18   15.20    2.50
   0  -5 -18   19.80    3.30
   0   5  18   30.90    3.00
  -1  -5 -18   60.39    4.70
   1   5  18   63.69    3.90
  -2  -5 -18   26.00    3.80
   2   5  18   32.30    3.10
  -3  -5 -18    3.00    2.60
   3   5  18   -0.10    2.40
  -4  -5 -18   38.10    4.40
  -2  -6  13    1.20    2.40
  -1  -6  13   18.00    2.90
   0   6 -13  230.48    9.40
   0  -6  13  238.08    9.30
  -1   6 -13   24.00    3.40
   1  -6  13   23.00    3.30
  -2   6 -13    0.20    2.30
   3   4 -14   17.70    2.90
  -3  -4  14   21.60    2.90
   2   4 -14   28.90    3.20
  -2  -4  14   30.40    3.30
  -2  -4  14   30.70    2.80
   1   4 -14    0.50    1.90
  -1  -4  14    2.60    1.90
  -1  -4  14    2.50    2.00
   0   4 -14   64.19    4.30
   0  -4  14   62.69    4.30
   0  -4  14   68.19    3.70
  -1   4 -14  106.79    5.50
   1  -4  14  118.99    5.20
   1  -4  14  117.29    6.00
  -2   4 -14   51.09    3.90
  -2   4 -14   57.19    3.70
   2  -4  14   55.09    4.30
   2  -4  14   59.59    3.80
  -3   4 -14    3.60    2.00
  -3   4 -14    2.40    2.40
   3  -4  14   -0.90    2.30
  -4   4 -14   -2.40    3.40
   4  -4  14    6.20    3.00
   4   2 -15    9.70    2.40
   3   2 -15   27.70    3.30
  -3  -2  15   34.50    3.40
   2   2 -15   40.00    3.30
  -2  -2  15   30.00    3.30
   1   2 -15   -2.10    1.80
  -1  -2  15   -0.60    1.90
  -1  -2  15   -0.50    1.40
   0   2 -15  324.77   11.40
   0  -2  15  316.77   10.60
   0  -2  15  314.57   11.40
  -1   2 -15   57.29    3.80
   1  -2  15   53.09    3.20
   1  -2  15   58.39    4.00
  -2   2 -15   57.59    3.70
  -2   2 -15   56.59    3.30
   2  -2  15   50.79    4.20
   2  -2  15   55.89    3.40
  -3   2 -15   25.20    2.90
  -3   2 -15   18.80    3.00
   3  -2  15   24.30    3.10
   3  -2  15   25.40    3.60
  -4   2 -15   17.90    3.30
   4  -2  15   14.40    3.20
  -5   2 -15   33.00    5.10
   5   0 -16    3.10    3.00
   4   0 -16    5.30    2.40
   3   0 -16   58.09    4.10
  -3   0  16   56.99    4.20
   2   0 -16    2.50    2.00
  -2   0  16    3.50    2.10
   1   0 -16   65.79    4.10
  -1   0  16   62.09    4.00
   0   0 -16    2.40    1.90
   0   0  16    2.30    1.80
   0   0  16    2.60    1.10
  -1   0 -16   39.90    3.40
   1   0  16   38.80    2.60
   1   0  16   39.40    3.10
  -2   0 -16  310.47   10.70
  -2   0 -16  296.37   10.10
   2   0  16  302.67   10.90
   2   0  16  285.77   10.70
  -3   0 -16   60.19    3.70
  -3   0 -16   51.59    5.00
   3   0  16   52.29    4.10
  -4   0 -16    0.20    2.40
   4   0  16   -1.20    2.50
  -5   0 -16   12.90    3.10
   5   0  16    9.40    2.80
   5  -2 -17   -0.70    3.00
   4  -2 -17    0.60    2.50
   4  -2 -17    1.10    2.40
   3  -2 -17   21.60    3.20
  -3   2  17   21.60    3.10
   2  -2 -17    9.10    2.60
  -2   2  17    6.00    2.30
   1  -2 -17   37.60    3.50
  -1   2  17   41.20    2.90
  -1   2  17   46.10    3.50
   0  -2 -17   11.60    2.60
   0   2  17   13.30    2.40
   0   2  17   13.40    1.90
  -1  -2 -17   -0.20    2.10
   1   2  17    3.70    1.60
   1   2  17    2.60    1.70
  -2  -2 -17  189.78    7.70
   2   2  17  187.58    7.20
  -3  -2 -17   43.10    3.50
   3   2  17   46.00    3.10
   3   2  17   48.30    3.30
  -4  -2 -17    4.70    2.00
   4   2  17    3.20    2.50
   5   2  17   10.10    2.90
   4  -4 -18   12.80    3.20
   4  -4 -18    8.70    3.60
   3  -4 -18   12.30    3.00
  -3   4  18   13.40    2.80
   2  -4 -18   16.20    2.90
  -2   4  18   19.30    2.90
  -2   4  18   15.80    2.60
   1  -4 -18   66.99    4.70
  -1   4  18   64.29    3.70
  -1   4  18   67.49    3.90
   0  -4 -18   12.70    3.00
   0   4  18   12.00    2.20
   0   4  18   14.50    2.20
  -1  -4 -18    3.40    2.50
   1   4  18   11.10    2.10
   1   4  18    8.20    2.10
  -2  -4 -18   18.90    3.50
   2   4  18   12.70    2.50
  -3  -4 -18   31.80    4.00
   3   4  18   31.70    3.40
  -4  -4 -18   43.00    4.20
   4   4  18   45.40    4.20
  -1   6  19   28.30    3.00
   0  -6 -19   55.49    5.80
   0   6  19   64.09    4.10
  -1  -6 -19   98.59    7.90
   1   6  19   82.39    4.90
   2   6  19   49.20    3.90
  -3  -5  14   -1.90    2.50
  -2  -5  14   11.50    2.60
   1   5 -14   53.99    4.30
  -1  -5  14   68.69    4.00
   0   5 -14   45.80    3.80
   0  -5  14   44.70    3.40
   0  -5  14   44.70    4.90
  -1   5 -14    1.20    2.20
   1  -5  14   -3.60    2.20
  -2   5 -14   12.70    2.50
   2  -5  14   12.20    2.60
   3  -5  14   12.80    3.50
   3   3 -15   18.20    3.20
   2   3 -15   -1.30    2.10
  -2  -3  15    4.00    2.20
  -2  -3  15    2.70    2.00
   1   3 -15  102.49    5.40
  -1  -3  15  103.69    5.40
   0   3 -15   84.59    4.80
   0  -3  15   76.59    4.00
   0  -3  15   75.79    4.60
  -1   3 -15   15.40    2.70
   1  -3  15   15.20    2.90
   1  -3  15   17.00    2.20
  -2   3 -15   33.60    3.00
  -2   3 -15   37.90    3.30
   2  -3  15   28.70    3.60
   2  -3  15   31.70    3.00
  -3   3 -15   14.80    2.80
   3  -3  15    2.00    2.60
  -4   3 -15   14.70    3.20
   4  -3  15   16.30    3.10
   4   1 -16   13.10    2.60
   3   1 -16   52.29    4.00
  -3  -1  16   58.09    4.20
   2   1 -16   11.60    2.30
  -2  -1  16    6.00    2.20
   1   1 -16  108.39    5.40
  -1  -1  16  110.09    5.40
   0   1 -16   63.79    4.00
   0  -1  16   67.99    4.10
  -1   1 -16   19.90    3.00
   1  -1  16   14.60    2.10
   1  -1  16   21.60    2.90
  -2   1 -16   50.69    3.00
  -2   1 -16   46.10    3.50
   2  -1  16   43.00    2.90
   2  -1  16   47.00    3.80
  -3   1 -16   36.20    3.10
  -3   1 -16   30.50    2.90
   3  -1  16   33.50    3.80
   3  -1  16   40.90    3.20
   4  -1  16    7.60    2.80
  -5   1 -16    3.20    3.10
   4  -1 -17    6.70    2.50
   3  -1 -17   -1.30    1.90
   3  -1 -17    8.60    2.40
  -3   1  17    0.30    2.20
   2  -1 -17   87.69    5.10
  -2   1  17   92.59    5.10
   1  -1 -17   -0.10    1.80
  -1   1  17    2.30    2.00
   0  -1 -17   21.40    2.90
   0   1  17   23.30    2.80
   0   1  17   14.70    1.90
  -1  -1 -17  269.47    9.90
   1   1  17  270.07    9.20
   1   1  17  261.37    9.60
  -2  -1 -17  124.09    5.80
   2   1  17  127.39    5.60
   2   1  17  116.59    5.00
  -3  -1 -17    2.70    1.80
   3   1  17   -0.40    2.00
   4   1  17   13.90    2.60
   4  -3 -18    1.60    2.90
   3  -3 -18   25.10    3.30
  -3   3  18   18.10    3.30
  -2   3  18   27.40    3.10
  -2   3  18   30.50    2.80
   1  -3 -18    4.60    2.50
  -1   3  18    2.70    2.10
  -1   3  18    1.90    1.90
   0  -3 -18    3.80    2.20
   0   3  18    9.00    2.10
   0   3  18    6.20    1.90
  -1  -3 -18   28.50    3.50
   1   3  18   29.10    2.70
   1   3  18   32.00    2.80
  -2  -3 -18   52.59    4.20
   2   3  18   56.79    3.70
   2   3  18   56.89    3.50
  -3  -3 -18   66.49    4.50
   3   3  18   73.29    4.30
  -4  -3 -18   15.10    2.60
   4   3  18   21.50    3.30
  -2   5  19   18.90    2.90
  -2   5  19   18.90    3.10
   1  -5 -19   19.60    3.80
  -1   5  19   20.00    2.80
  -1   5  19   26.60    2.90
   0  -5 -19   13.40    3.30
   0   5  19   14.80    2.60
  -1  -5 -19  102.49    6.10
   1   5  19  105.69    5.30
  -2  -5 -19    7.90    2.90
   2   5  19    7.00    2.30
  -3  -5 -19    7.40    2.90
   3   5  19    9.80    2.70
  -1  -6  14   31.10    3.50
   0  -6  14   21.40    3.10
   1  -6  14    2.40    3.00
  -2   6 -14   10.50    2.50
   2   4 -15    7.30    2.70
  -2  -4  15    4.20    2.10
   1   4 -15   17.10    3.30
  -1  -4  15   21.30    3.20
  -1  -4  15   22.90    2.70
   0   4 -15   -1.20    2.00
   0  -4  15   -2.50    2.10
   0  -4  15    2.40    2.10
  -1   4 -15   49.99    4.00
   1  -4  15   46.20    3.50
   1  -4  15   46.10    4.00
  -2   4 -15   67.99    4.40
   2  -4  15   74.69    4.40
  -3   4 -15   17.80    3.20
   3  -4  15   17.40    3.20
   3   2 -16   10.10    2.70
   2   2 -16   45.90    3.80
  -2  -2  16   41.10    3.70
   1   2 -16   61.69    4.20
  -1  -2  16   64.79    4.10
   0   2 -16   18.00    3.00
   0  -2  16   19.70    3.00
  -1   2 -16   44.50    3.60
   1  -2  16   40.20    2.60
   1  -2  16   40.10    3.60
  -2   2 -16    0.90    1.90
  -2   2 -16   -2.00    1.90
   2  -2  16    0.60    2.30
   2  -2  16   -0.10    1.80
  -3   2 -16   -3.00    2.40
   3  -2  16   -1.30    2.40
   3  -2  16   -2.10    2.60
  -4   2 -16   34.90    3.90
   4  -2  16   41.90    3.90
   3   0 -17   25.00    3.30
  -3   0  17   17.40    3.30
   2   0 -17    8.40    2.20
  -2   0  17    8.30    2.40
   1   0 -17    3.50    2.10
  -1   0  17    5.60    2.30
   0   0 -17    7.50    2.30
   0   0  17    6.40    2.20
  -1   0 -17   85.49    4.80
   1   0  17   83.89    4.70
  -2   0 -17    6.70    2.20
   2   0  17    5.60    2.20
  -3   0 -17    2.40    2.00
   3   0  17   -2.20    2.20
   4   0  17    6.90    2.90
   4  -2 -18   58.09    4.10
   3  -2 -18   34.30    3.50
   3  -2 -18   32.20    3.20
  -3   2  18   28.30    3.80
   2  -2 -18   32.30    3.50
  -2   2  18   33.30    3.30
   1  -2 -18   -0.90    2.00
  -1   2  18    3.50    1.70
  -1   2  18    2.80    2.00
   0  -2 -18    6.40    2.30
   0   2  18    9.00    2.10
  -1  -2 -18   63.49    4.40
   1   2  18   68.69    4.10
   1   2  18   75.39    4.10
  -2  -2 -18    1.40    2.10
   2   2  18    1.00    1.80
   2   2  18    4.60    1.90
  -3  -2 -18    9.70    2.40
   3   2  18   13.00    2.50
   2  -4 -19   23.00    3.60
  -2   4  19   16.00    2.80
  -2   4  19   21.10    3.00
   1  -4 -19    9.50    2.80
  -1   4  19    6.60    2.00
  -1   4  19    9.50    2.30
   0  -4 -19   25.90    3.70
   0   4  19   25.50    2.90
   0   4  19   28.70    2.90
  -1  -4 -19   30.80    3.80
   1   4  19   36.90    3.30
  -2  -4 -19   10.50    3.10
   2   4  19   13.00    2.60
  -3  -4 -19   19.90    3.40
   3   4  19   23.20    3.30
  -4  -4 -19    6.80    3.70
  -2  -5  15   17.60    3.10
  -1  -5  15   12.40    2.60
   0  -5  15   -1.20    2.20
  -1   5 -15    4.40    2.50
   1  -5  15    0.30    2.30
  -2   5 -15   13.30    2.90
   2  -5  15   13.20    2.80
   2   3 -16   10.60    2.50
   1   3 -16   32.70    3.60
  -1  -3  16   29.70    3.40
   0   3 -16   18.90    2.90
   0  -3  16   16.50    2.90
   0  -3  16   13.50    2.50
  -1   3 -16    0.30    2.10
   1  -3  16   -1.10    1.80
   1  -3  16    0.70    2.30
  -2   3 -16    5.80    2.20
  -2   3 -16    7.60    2.30
  -3   3 -16   28.10    3.30
   3  -3  16   23.60    3.50
   4  -3  16   37.00    5.80
   3   1 -17   68.09    4.30
   2   1 -17   43.20    3.70
  -2  -1  17   40.40    3.80
   1   1 -17    4.70    2.10
  -1  -1  17    1.50    2.00
   0   1 -17   23.40    3.10
   0  -1  17   28.40    3.10
  -1   1 -17   54.39    3.90
   1  -1  17   49.70    3.90
  -2   1 -17    2.70    1.90
   2  -1  17    3.20    2.30
  -3   1 -17   18.50    3.00
   3  -1  17   12.60    3.10
   3  -1 -18   16.00    3.00
   2  -1 -18   23.20    3.30
  -2   1  18   25.00    3.40
   1  -1 -18   84.99    5.00
  -1   1  18   98.09    5.10
   0  -1 -18   81.59    4.80
   0   1  18   84.69    4.60
  -1  -1 -18    2.30    2.20
   1   1  18    8.40    2.20
  -2  -1 -18   10.90    2.50
   2   1  18   15.20    2.50
  -3  -1 -18    3.40    2.10
   3   1  18    0.00    2.20
   2  -3 -19    2.60    2.30
  -2   3  19    5.00    2.40
   1  -3 -19   -2.10    2.40
  -1   3  19    2.00    2.00
  -1   3  19    0.30    2.10
   0  -3 -19   13.50    3.10
   0   3  19   19.50    2.90
   0   3  19   13.20    2.30
  -1  -3 -19   16.60    3.00
   1   3  19   14.40    2.70
  -2  -3 -19   26.30    3.50
   2   3  19   33.40    2.90
   3   3  19   10.20    2.50
  -2   5  20   19.60    3.20
  -1   5  20   -1.50    2.20
   0   5  20    5.20    2.30
   1   5  20    2.20    2.40
   2   5  20   20.20    3.30
   0   4 -16    5.60    2.40
   0  -4  16   -1.50    2.00
  -1   4 -16   13.60    2.80
  -2   4 -16   58.89    4.30
   2  -4  16   48.60    4.00
   2   2 -17   30.10    3.60
   1   2 -17   32.00    3.30
  -1  -2  17   27.20    3.10
   0   2 -17   37.60    3.70
   0  -2  17   45.70    3.80
  -1   2 -17   -0.60    2.10
   1  -2  17    1.40    2.40
  -2   2 -17   27.20    3.10
   2  -2  17   23.20    3.40
  -3   2 -17   40.80    3.30
  -3   2 -17   26.70    3.80
  -4   2 -17   22.80    3.70
   2   0 -18   32.30    3.50
  -2   0  18   34.60    3.40
   1   0 -18   20.00    3.10
  -1   0  18   23.30    3.00
   0   0 -18   69.49    4.60
   0   0  18   70.69    4.30
  -1   0 -18    2.90    2.10
   1   0  18    2.30    2.00
  -2   0 -18    6.40    2.20
   2   0  18    3.70    2.20
  -3   0 -18   28.80    3.20
   3   0  18   21.50    3.30
   2  -2 -19   62.19    4.20
  -2   2  19   64.19    4.30
   1  -2 -19   37.50    3.80
  -1   2  19   40.00    3.70
  -1   2  19   37.40    2.80
   0  -2 -19   45.90    4.10
   0   2  19   61.89    3.90
   0   2  19   54.89    3.60
  -1  -2 -19   19.20    3.20
   1   2  19   24.20    2.90
  -2  -2 -19   11.00    2.50
   2   2  19   11.50    2.20
  -3  -2 -19   11.20    2.70
  -2   4  20    3.60    2.40
  -1   4  20    5.00    2.20
   0   4  20   36.80    3.20
   1   4  20   61.09    4.10
   2   4  20   21.10    3.10
   3   4  20    3.00    2.70
   0  -5  16   30.20    3.20
   1  -5  16    5.70    2.40
   0   3 -17    8.30    2.40
  -1   3 -17   27.90    3.50
  -2   3 -17   37.90    3.70
  -3   3 -17   11.70    2.90
   1   1 -18   20.10    3.10
  -1  -1  18   18.10    3.40
   0   1 -18    7.10    2.30
   0  -1  18    1.90    2.10
  -1   1 -18    6.00    2.20
   1  -1  18    2.80    2.30
  -2   1 -18   52.99    3.80
   2  -1  18   46.20    4.00
  -3   1 -18   38.40    3.40
   1  -1 -19   32.50    3.50
  -1   1  19   39.20    3.60
   0  -1 -19   26.30    3.50
   0   1  19   25.00    3.20
  -1  -1 -19   -2.90    2.10
   1   1  19    1.80    2.10
  -2  -1 -19   18.30    3.20
   2   1  19   18.20    2.80
  -3  -1 -19   12.80    2.70
   3   1  19   10.80    2.40
  -1   3  20   36.00    3.30
  -1   3  20   39.70    3.50
   0   3  20   34.20    3.30
   0   3  20   25.50    2.80
  -1  -3 -20    0.20    3.30
   1   3  20    6.30    2.20
  -2  -3 -20   -2.30    2.90
   0   2 -18    2.30    2.70
  -1   2 -18   34.50    3.50
  -2   2 -18   44.60    3.50
   0   0 -19    6.40    2.30
   0   0  19    3.90    2.40
  -1   0 -19   37.20    3.60
   1   0  19   34.40    3.30
  -2   0 -19   33.10    3.40
   2   0  19   29.40    3.50
  -3   0 -19   42.40    3.60
  -1   2  20   42.80    3.80
   0   2  20   10.30    2.60
  -1  -2 -20    9.50    3.40
   1   2  20    8.20    2.40
  -2  -2 -20    5.50    3.00
  -1   4  21   24.10    3.20
  -1   4  21   25.80    4.30
   0   4  21    4.60    2.60
   1   4  21   14.80    2.70
   2   4  21    4.30    3.10
  -2   1 -19   37.90    3.90
   1   1  20   28.80    3.20
   2   1  20   28.10    3.40
   0   3  21    7.50    2.40

_computing_structure_solution     'SHELXT 2014/4 (Sheldrick, 2014)'
;
_shelx_hkl_checksum              59380
loop_
_space_group_symop_operation_xyz
'x, y, z'
'-x, -y, -z'
loop_
_atom_site_label
_atom_site_type_symbol
_atom_site_fract_x
_atom_site_fract_y
_atom_site_fract_z
_atom_site_U_iso_or_equiv
_atom_site_adp_type
_atom_site_occupancy
_atom_site_site_symmetry_order
_atom_site_calc_flag
_atom_site_refinement_flags_posn
_atom_site_refinement_flags_adp
C1 C 0.3796(4) 0.6238(3) 0.80440(15) 0.0185(4) Uani 1 1 d . .
C2 C 0.2880(4) 0.7374(3) 0.84637(16) 0.0214(4) Uani 1 1 d . .
H2A H 0.1483 0.7862 0.8273 0.026 Uiso 1 1 calc R U
C3 C 0.4002(4) 0.7789(3) 0.91580(16) 0.0221(5) Uani 1 1 d . .
H3A H 0.3394 0.8556 0.9453 0.027 Uiso 1 1 calc R U
C4 C 0.6036(4) 0.7057(3) 0.94102(15) 0.0194(4) Uani 1 1 d . .
C5 C 0.6977(4) 0.5912(3) 0.90129(16) 0.0203(4) Uani 1 1 d . .
H5A H 0.8372 0.5424 0.9209 0.024 Uiso 1 1 calc R U
C6 C 0.5832(4) 0.5499(3) 0.83232(16) 0.0202(4) Uani 1 1 d . .
H6A H 0.6432 0.4712 0.8041 0.024 Uiso 1 1 calc R U
C7 C 0.2621(4) 0.5863(3) 0.72499(16) 0.0198(4) Uani 1 1 d . .
C8 C 0.3292(3) 0.7093(3) 0.63183(15) 0.0168(4) Uani 1 1 d . .
C9 C 0.2140(3) 0.6876(3) 0.54482(15) 0.0175(4) Uani 1 1 d . .
C10 C 0.2927(3) 0.8100(3) 0.45290(15) 0.0172(4) Uani 1 1 d . .
C11 C 0.1754(4) 0.7910(3) 0.36556(16) 0.0179(4) Uani 1 1 d . .
C12 C 0.2558(4) 0.9124(3) 0.27392(16) 0.0223(5) Uani 1 1 d . .
N1 N 0.7272(3) 0.7532(2) 1.01291(14) 0.0247(4) Uani 1 1 d . .
O1 O 0.9186(3) 0.7051(3) 1.02601(15) 0.0400(5) Uani 1 1 d . .
O2 O 0.6348(4) 0.8389(3) 1.05492(14) 0.0371(5) Uani 1 1 d . .
F1 F 0.0405(2) 0.5964(2) 0.73566(10) 0.0295(3) Uani 1 1 d . .
F2 F 0.3107(3) 0.43105(16) 0.72112(10) 0.0289(3) Uani 1 1 d . .
F3 F 0.2852(3) 0.86311(16) 0.63809(10) 0.0284(3) Uani 1 1 d . .
F4 F 0.5486(2) 0.69450(19) 0.62194(10) 0.0265(3) Uani 1 1 d . .
F5 F -0.0040(2) 0.7083(2) 0.55410(10) 0.0320(4) Uani 1 1 d . .
F6 F 0.2517(3) 0.53323(16) 0.54012(10) 0.0311(3) Uani 1 1 d . .
F7 F 0.2570(3) 0.96557(16) 0.45768(10) 0.0321(4) Uani 1 1 d . .
F8 F 0.5096(2) 0.7889(2) 0.44281(10) 0.0321(4) Uani 1 1 d . .
F9 F -0.0419(2) 0.8145(2) 0.37379(11) 0.0309(3) Uani 1 1 d . .
F10 F 0.2108(3) 0.63666(16) 0.35955(10) 0.0291(3) Uani 1 1 d . .
F11 F 0.4707(3) 0.8937(2) 0.26243(11) 0.0361(4) Uani 1 1 d . .
F12 F 0.2194(3) 1.06820(17) 0.27606(11) 0.0348(4) Uani 1 1 d . .
Br1 Br 0.09872(5) 0.87250(3) 0.17264(2) 0.02950(9) Uani 1 1 d . .
loop_
_atom_site_aniso_label
_atom_site_aniso_U_11
_atom_site_aniso_U_22
_atom_site_aniso_U_33
_atom_site_aniso_U_23
_atom_site_aniso_U_13
_atom_site_aniso_U_12
C1 0.0207(11) 0.0172(10) 0.0164(10) -0.0027(8) 0.0031(8) -0.0047(8)
C2 0.0168(11) 0.0232(11) 0.0243(11) -0.0070(9) 0.0013(9) 0.0019(8)
C3 0.0246(11) 0.0206(11) 0.0222(11) -0.0079(9) 0.0031(9) 0.0005(9)
C4 0.0221(11) 0.0186(10) 0.0155(10) -0.0010(8) 0.0004(8) -0.0051(8)
C5 0.0179(10) 0.0191(10) 0.0212(11) -0.0014(9) 0.0020(8) 0.0009(8)
C6 0.0213(11) 0.0177(10) 0.0212(11) -0.0047(9) 0.0034(9) -0.0002(8)
C7 0.0192(11) 0.0182(10) 0.0221(11) -0.0056(9) 0.0044(8) -0.0055(8)
C8 0.0158(10) 0.0145(9) 0.0208(10) -0.0061(8) 0.0010(8) -0.0028(7)
C9 0.0148(10) 0.0165(10) 0.0211(11) -0.0049(8) 0.0009(8) -0.0044(7)
C10 0.0156(10) 0.0142(9) 0.0217(11) -0.0049(8) 0.0011(8) -0.0037(7)
C11 0.0168(10) 0.0153(10) 0.0218(11) -0.0054(8) -0.0001(8) -0.0016(8)
C12 0.0260(12) 0.0195(11) 0.0205(11) -0.0036(9) -0.0003(9) -0.0035(9)
N1 0.0288(11) 0.0244(10) 0.0190(10) -0.0027(8) -0.0018(8) -0.0042(8)
O1 0.0274(10) 0.0584(13) 0.0398(11) -0.0224(10) -0.0126(8) 0.0057(9)
O2 0.0464(12) 0.0384(11) 0.0337(10) -0.0217(9) -0.0097(9) 0.0082(9)
F1 0.0176(7) 0.0455(9) 0.0260(7) -0.0110(7) 0.0049(5) -0.0124(6)
F2 0.0463(9) 0.0140(6) 0.0264(7) -0.0055(6) -0.0021(6) -0.0065(6)
F3 0.0466(9) 0.0138(6) 0.0262(7) -0.0079(6) -0.0016(6) -0.0009(6)
F4 0.0138(6) 0.0397(8) 0.0238(7) -0.0049(6) 0.0018(5) -0.0052(6)
F5 0.0138(7) 0.0524(10) 0.0261(8) -0.0047(7) 0.0017(5) -0.0056(6)
F6 0.0559(10) 0.0131(6) 0.0255(7) -0.0072(6) -0.0036(7) -0.0043(6)
F7 0.0591(10) 0.0125(6) 0.0255(8) -0.0065(6) -0.0011(7) -0.0058(6)
F8 0.0146(7) 0.0528(10) 0.0251(8) -0.0047(7) 0.0020(5) -0.0061(6)
F9 0.0154(7) 0.0456(9) 0.0303(8) -0.0081(7) -0.0011(6) -0.0025(6)
F10 0.0500(9) 0.0141(6) 0.0245(7) -0.0071(6) -0.0020(6) -0.0032(6)
F11 0.0242(8) 0.0505(10) 0.0282(8) -0.0019(7) 0.0041(6) -0.0074(7)
F12 0.0595(11) 0.0142(7) 0.0287(8) -0.0023(6) -0.0071(7) -0.0043(6)
Br1 0.03809(16) 0.02711(13) 0.02253(13) -0.00528(9) -0.00522(10) -0.00404(10)
loop_
_atom_type_symbol
_atom_type_description
_atom_type_scat_dispersion_real
_atom_type_scat_dispersion_imag
_atom_type_scat_source
C C 0.0033 0.0016 'International Tables Vol C Tables 4.2.6.8 and 6.1.1.4'
H H 0.0000 0.0000 'International Tables Vol C Tables 4.2.6.8 and 6.1.1.4'
N N 0.0061 0.0033 'International Tables Vol C Tables 4.2.6.8 and 6.1.1.4'
O O 0.0106 0.0060 'International Tables Vol C Tables 4.2.6.8 and 6.1.1.4'
F F 0.0171 0.0103 'International Tables Vol C Tables 4.2.6.8 and 6.1.1.4'
Br Br -0.2901 2.4595 'International Tables Vol C Tables 4.2.6.8 and 6.1.1.4'
loop_
_geom_angle_atom_site_label_1
_geom_angle_atom_site_label_2
_geom_angle_atom_site_label_3
_geom_angle
C6 C1 C2 120.6(2)
C6 C1 C7 119.6(2)
C2 C1 C7 119.7(2)
C3 C2 C1 120.0(2)
C3 C2 H2A 120.0
C1 C2 H2A 120.0
C4 C3 C2 118.1(2)
C4 C3 H3A 121.0
C2 C3 H3A 121.0
C3 C4 C5 123.2(2)
C3 C4 N1 118.4(2)
C5 C4 N1 118.4(2)
C6 C5 C4 118.2(2)
C6 C5 H5A 120.9
C4 C5 H5A 120.9
C5 C6 C1 119.9(2)
C5 C6 H6A 120.1
C1 C6 H6A 120.1
F2 C7 F1 107.77(18)
F2 C7 C1 110.52(19)
F1 C7 C1 110.39(18)
F2 C7 C8 108.40(18)
F1 C7 C8 108.26(18)
C1 C7 C8 111.39(17)
F4 C8 F3 108.37(17)
F4 C8 C7 107.15(18)
F3 C8 C7 107.40(18)
F4 C8 C9 108.89(17)
F3 C8 C9 108.27(18)
C7 C8 C9 116.51(17)
F6 C9 F5 108.72(18)
F6 C9 C8 108.33(18)
F5 C9 C8 108.34(18)
F6 C9 C10 108.36(18)
F5 C9 C10 108.45(18)
C8 C9 C10 114.51(17)
F8 C10 F7 108.50(18)
F8 C10 C9 108.74(18)
F7 C10 C9 108.56(18)
F8 C10 C11 108.28(18)
F7 C10 C11 107.78(18)
C9 C10 C11 114.82(17)
F9 C11 F10 109.01(18)
F9 C11 C12 107.93(18)
F10 C11 C12 107.59(18)
F9 C11 C10 109.11(18)
F10 C11 C10 108.46(18)
C12 C11 C10 114.62(18)
F11 C12 F12 108.06(19)
F11 C12 C11 110.29(19)
F12 C12 C11 109.68(19)
F11 C12 Br1 109.76(16)
F12 C12 Br1 109.23(16)
C11 C12 Br1 109.79(15)
O2 N1 O1 123.9(2)
O2 N1 C4 118.3(2)
O1 N1 C4 117.8(2)
loop_
_geom_bond_atom_site_label_1
_geom_bond_atom_site_label_2
_geom_bond_distance
C1 C6 1.393(3)
C1 C2 1.394(3)
C1 C7 1.511(3)
C2 C3 1.383(3)
C2 H2A 0.9500
C3 C4 1.382(3)
C3 H3A 0.9500
C4 C5 1.384(3)
C4 N1 1.473(3)
C5 C6 1.383(3)
C5 H5A 0.9500
C6 H6A 0.9500
C7 F2 1.352(3)
C7 F1 1.355(3)
C7 C8 1.551(3)
C8 F4 1.344(3)
C8 F3 1.347(2)
C8 C9 1.552(3)
C9 F6 1.337(3)
C9 F5 1.342(3)
C9 C10 1.555(3)
C10 F8 1.337(3)
C10 F7 1.345(2)
C10 C11 1.555(3)
C11 F9 1.339(3)
C11 F10 1.341(2)
C11 C12 1.552(3)
C12 F11 1.325(3)
C12 F12 1.335(3)
C12 Br1 1.921(2)
N1 O2 1.215(3)
N1 O1 1.225(3)
