#------------------------------------------------------------------------------
#$Date: 2016-03-15 17:20:08 +0200 (Tue, 15 Mar 2016) $
#$Revision: 178211 $
#$URL: svn://www.crystallography.net/cod/cif/1/54/28/1542884.cif $
#------------------------------------------------------------------------------
#
# This file is available in the Crystallography Open Database (COD),
# http://www.crystallography.net/
#
# All data on this site have been placed in the public domain by the
# contributors.
#
data_1542884
loop_
_publ_author_name
'Bourque, Jeremy L.'
'Tashkandi, Nada Y.'
'Baines, Kim M.'
_publ_section_title
;
 (<i>tert</i>-Butyl isocyanide-\k<i>C</i>)trichloridogallium(III)
;
_journal_coeditor_code           WM4009
_journal_issue                   3
_journal_name_full               IUCrData
_journal_page_first              x160389
_journal_paper_doi               10.1107/S2414314616003898
_journal_volume                  1
_journal_year                    2016
_chemical_formula_iupac          '[Ga Cl3 (C5 H9 N)]'
_chemical_formula_moiety         'C5 H9 Cl3 Ga N'
_chemical_formula_sum            'C5 H9 Cl3 Ga N'
_chemical_formula_weight         259.20
_chemical_name_systematic
;
(<i>tert</i>-Butyl isocyanide-\k<i>C</i>)trichloridogallium(III)
;
_space_group_crystal_system      monoclinic
_space_group_IT_number           14
_space_group_name_Hall           '-P 2ybc'
_space_group_name_H-M_alt        'P 1 21/c 1'
_symmetry_space_group_name_Hall  '-P 2ybc'
_symmetry_space_group_name_H-M   'P 1 21/c 1'
_atom_sites_solution_hydrogens   difmap
_atom_sites_solution_primary     dual
_atom_sites_solution_secondary   difmap
_audit_creation_method           SHELXL-2014/7
_cell_angle_alpha                90
_cell_angle_beta                 102.287(5)
_cell_angle_gamma                90
_cell_formula_units_Z            4
_cell_length_a                   6.5170(12)
_cell_length_b                   19.393(3)
_cell_length_c                   8.5991(16)
_cell_measurement_reflns_used    6667
_cell_measurement_temperature    110
_cell_measurement_theta_max      66.69
_cell_measurement_theta_min      4.56
_cell_volume                     1061.9(3)
_computing_cell_refinement
;
SAINT (Bruker, 2013)
;
_computing_data_collection
;
APEX2 (Bruker, 2013)
;
_computing_data_reduction
;
SAINT (Bruker, 2013)
;
_computing_molecular_graphics
;
XP (Sheldrick, 2008)
;
_computing_publication_material
;
<i>cif2tables.py</i> (Boyle, 2008)
;
_computing_structure_refinement
;
SHELXL2014 (Sheldrick, 2015<i>b</i>)
;
_computing_structure_solution
;
SHELXT (Sheldrick, 2015<i>a</i>)
;
_diffrn_ambient_temperature      110
_diffrn_measured_fraction_theta_full 0.995
_diffrn_measured_fraction_theta_max 0.995
_diffrn_measurement_device       '\k-geometry diffractometer'
_diffrn_measurement_device_type  'Bruker--Nonius KappaCCD APEXII'
_diffrn_measurement_method       'phi and omega scans'
_diffrn_radiation_type           CuK\a
_diffrn_radiation_wavelength     1.54178
_diffrn_reflns_av_R_equivalents  0.0239
_diffrn_reflns_limit_h_max       7
_diffrn_reflns_limit_h_min       -7
_diffrn_reflns_limit_k_max       22
_diffrn_reflns_limit_k_min       -22
_diffrn_reflns_limit_l_max       10
_diffrn_reflns_limit_l_min       -10
_diffrn_reflns_number            10964
_diffrn_reflns_theta_full        66.740
_diffrn_reflns_theta_max         66.740
_diffrn_reflns_theta_min         4.560
_exptl_absorpt_coefficient_mu    9.997
_exptl_absorpt_correction_T_max  0.7528
_exptl_absorpt_correction_T_min  0.5571
_exptl_absorpt_correction_type   multi-scan
_exptl_absorpt_process_details
;
(<i>SADABS</i>; Bruker, 2013)
;
_exptl_crystal_colour            orange
_exptl_crystal_density_diffrn    1.621
_exptl_crystal_description       needle
_exptl_crystal_F_000             512
_exptl_crystal_size_max          0.226
_exptl_crystal_size_mid          0.168
_exptl_crystal_size_min          0.111
_refine_diff_density_max         0.327
_refine_diff_density_min         -0.310
_refine_ls_extinction_method     none
_refine_ls_goodness_of_fit_ref   1.108
_refine_ls_hydrogen_treatment    refall
_refine_ls_matrix_type           full
_refine_ls_number_parameters     127
_refine_ls_number_reflns         1876
_refine_ls_number_restraints     0
_refine_ls_restrained_S_all      1.108
_refine_ls_R_factor_all          0.0223
_refine_ls_R_factor_gt           0.0211
_refine_ls_shift/su_max          0.002
_refine_ls_shift/su_mean         0.000
_refine_ls_structure_factor_coef Fsqd
_refine_ls_weighting_details
'w=1/[\s^2^(Fo^2^)+(0.0310P)^2^+0.2750P] where P=(Fo^2^+2Fc^2^)/3'
_refine_ls_weighting_scheme      calc
_refine_ls_wR_factor_gt          0.0536
_refine_ls_wR_factor_ref         0.0545
_reflns_number_gt                1791
_reflns_number_total             1876
_reflns_threshold_expression     'I > 2\s(I)'
_cod_data_source_file            wm4009sup1.cif
_cod_data_source_block           I
_cod_database_code               1542884
_shelx_space_group_comment
;
The symmetry employed for this shelxl refinement is uniquely defined
by the following loop, which should always be used as a source of
symmetry information in preference to the above space-group names.
They are only intended as comments.
;
_shelx_estimated_absorpt_t_min   0.211
_shelx_estimated_absorpt_t_max   0.403
_shelx_hkl_file
;
   1   0   0  314.67    6.73
   1   0   0  310.72    6.79
   2   0   0  601.75   13.20
   2   0   0  619.17   13.36
   3   0   0  264.57    5.96
  -4   0   0    0.63    0.23
   4   0   0    0.62    0.19
   5   0   0    3.55    0.44
  -5   0   0    4.16    0.27
  -5   0   0    4.81    0.42
  -5   0   0    3.46    0.36
  -6   0   0   19.78    0.86
  -6   0   0   19.06    0.68
  -7   0   0    7.40    0.32
  -7   0   0    7.17    0.34
  -7   0   0    6.54    0.32
   0  -1   0   -0.02    0.01
   0   1   0   -0.01    0.01
   1  -1   0   14.50    0.41
   1  -1   0   15.56    0.39
   1   1   0   15.11    0.43
   2  -1   0   18.97    0.61
   2  -1   0   19.30    0.59
   2   1   0   19.10    0.61
   2   1   0   20.14    0.63
  -3  -1   0  293.89    6.42
   3  -1   0  282.68    6.42
   3   1   0  286.50    6.44
  -4  -1   0   71.27    1.80
   4  -1   0   73.14    2.11
  -4  -1   0   78.04    2.44
   4   1   0   75.80    2.12
  -4   1   0   82.23    2.31
  -5  -1   0   26.56    0.80
  -5  -1   0   27.92    1.01
   5  -1   0   22.91    1.12
  -5  -1   0   25.26    1.02
  -5   1   0   21.13    1.47
  -5   1   0   25.98    0.78
  -5   1   0   26.58    1.01
  -5   1   0   26.61    1.03
  -6  -1   0   34.13    1.19
  -6  -1   0   38.17    1.08
  -6  -1   0   36.62    1.29
  -6   1   0   37.26    1.25
  -6   1   0   37.38    1.07
  -7  -1   0    1.66    0.18
  -7  -1   0    1.89    0.17
  -7  -1   0    1.58    0.18
  -7   1   0    1.73    0.16
  -7   1   0    1.40    0.15
  -7   1   0    1.72    0.25
  -7   1   0    1.62    0.16
   0  -2   0    8.32    0.28
   0   2   0    8.40    0.28
   1  -2   0    6.35    0.24
   1  -2   0    7.34    0.24
  -1  -2   0    7.58    0.29
   1   2   0    7.14    0.28
   2  -2   0    2.32    0.18
   2  -2   0    2.03    0.18
   2   2   0    2.52    0.22
   3  -2   0    6.35    0.38
  -3  -2   0    6.63    0.47
   3   2   0    6.99    0.41
   4  -2   0    0.36    0.16
  -4  -2   0    0.60    0.26
  -4  -2   0    0.47    0.11
   4   2   0    0.40    0.17
  -5  -2   0    2.62    0.35
  -5  -2   0    1.89    0.22
  -5  -2   0    2.18    0.34
  -5   2   0    1.79    0.41
  -5   2   0    1.82    0.34
  -5   2   0    2.30    0.28
  -6  -2   0    0.04    0.09
  -6  -2   0    0.06    0.10
  -6  -2   0    0.20    0.14
  -6   2   0    0.05    0.12
  -6   2   0   -0.08    0.07
  -7  -2   0    0.02    0.10
  -7  -2   0    0.13    0.08
  -7  -2   0    0.10    0.08
  -7  -2   0    0.13    0.10
  -7   2   0    0.06    0.13
  -7   2   0    0.05    0.07
   0  -3   0    0.09    0.07
   0   3   0   -0.01    0.05
  -1  -3   0   16.94    0.52
   1  -3   0   17.05    0.49
   1   3   0   18.10    0.54
   2  -3   0    1.79    0.16
   2  -3   0    1.72    0.17
   2   3   0    1.80    0.20
  -3  -3   0  163.65    4.18
   3  -3   0  160.81    3.76
   3   3   0  160.51    3.82
   4  -3   0   18.58    0.79
  -4  -3   0   17.71    0.60
  -4  -3   0   18.64    1.30
   4   3   0   19.31    0.86
  -4   3   0   18.44    0.73
  -5  -3   0    0.22    0.10
  -5  -3   0    0.07    0.16
  -5  -3   0    0.05    0.13
  -5   3   0    0.06    0.19
  -5   3   0    0.13    0.13
  -5   3   0    0.12    0.20
  -6  -3   0    8.61    0.43
  -6  -3   0    8.80    0.43
  -6  -3   0    9.49    0.60
  -6   3   0    9.23    0.42
  -6   3   0    9.27    0.54
  -7  -3   0    7.16    0.40
  -7  -3   0    8.74    0.36
  -7  -3   0    8.72    0.36
  -7  -3   0    7.91    0.40
  -7   3   0    8.26    0.33
  -7   3   0    8.76    0.46
   0  -4   0  654.69   14.48
   0   4   0  644.79   14.31
   1  -4   0   14.47    0.46
  -1  -4   0   13.45    0.48
   1   4   0   14.50    0.49
   2  -4   0   33.03    0.92
   2   4   0   33.06    0.99
   3  -4   0    0.26    0.12
  -3  -4   0    0.11    0.16
   3   4   0    0.20    0.12
  -4  -4   0  126.91    3.03
  -4  -4   0  133.20    3.05
   4  -4   0  135.28    3.33
   4   4   0  135.30    3.42
  -4   4   0  134.50    3.24
  -4   4   0  130.05    3.26
  -5  -4   0   31.80    0.97
  -5  -4   0   33.95    1.00
  -5  -4   0   31.33    1.25
  -5   4   0   32.70    1.14
  -6  -4   0   88.31    2.16
  -6  -4   0   87.20    2.49
  -6  -4   0   89.16    2.19
  -6   4   0   85.84    2.12
  -6   4   0   85.14    2.34
  -7  -4   0   27.94    0.81
  -7  -4   0   29.03    0.81
  -7  -4   0   26.97    0.89
  -7   4   0   29.14    0.94
  -7   4   0   27.27    0.75
   1  -5   0   14.22    0.50
  -1  -5   0   13.66    0.52
   1   5   0   14.12    0.53
  -1   5   0   13.74    0.56
   2  -5   0   41.17    1.13
   2   5   0   41.60    1.21
   3  -5   0   46.08    1.33
   3   5   0   44.69    1.40
  -4  -5   0   30.56    0.90
  -4  -5   0   30.09    0.90
   4  -5   0   31.52    1.13
  -4  -5   0   29.90    0.89
  -4   5   0   29.09    1.07
  -4   5   0   31.74    1.05
   4   5   0   31.03    1.20
  -5  -5   0    2.39    0.27
  -5  -5   0    2.42    0.27
  -5   5   0    2.28    0.29
  -5   5   0    2.31    0.24
  -6  -5   0   11.43    0.52
  -6  -5   0   11.72    0.70
  -6  -5   0   11.66    0.51
  -6   5   0   12.32    0.62
  -6   5   0   12.25    0.49
  -7  -5   0    0.20    0.09
  -7  -5   0    0.23    0.09
  -7  -5   0    0.14    0.10
  -7   5   0    0.11    0.12
  -7   5   0    0.04    0.05
   0  -6   0   25.45    0.81
   0   6   0   24.50    0.78
  -1  -6   0   15.42    0.60
   1  -6   0   16.85    0.59
  -1   6   0   15.55    0.55
   1   6   0   17.85    0.64
   2  -6   0    0.29    0.12
   2   6   0    0.25    0.12
   3  -6   0    0.33    0.14
   3   6   0    0.32    0.15
   4  -6   0   30.60    1.13
  -4  -6   0   29.69    0.91
  -4  -6   0   28.75    0.87
  -4  -6   0   31.27    0.91
  -4   6   0   27.97    1.00
   4   6   0   29.85    1.20
  -4   6   0   29.69    1.05
  -5  -6   0    2.04    0.25
  -5  -6   0    1.84    0.24
  -5   6   0    1.67    0.20
  -5   6   0    2.34    0.29
  -6  -6   0    9.34    0.45
  -6  -6   0    9.23    0.44
  -6   6   0    8.44    0.39
  -6   6   0    8.62    0.49
  -7  -6   0    7.78    0.33
  -7  -6   0    7.61    0.40
  -7  -6   0    7.34    0.33
  -7   6   0    7.63    0.29
  -7   6   0    7.54    0.41
   0  -7   0    0.03    0.10
   0   7   0   -0.05    0.09
  -1  -7   0   39.45    1.19
   1  -7   0   41.05    1.17
   1   7   0   40.54    1.21
   2  -7   0   20.69    0.77
   2   7   0   19.18    0.79
   3  -7   0  193.24    4.57
   3   7   0  193.79    4.69
  -4  -7   0   73.85    1.86
  -4  -7   0   75.22    1.91
   4  -7   0   73.33    2.15
  -4  -7   0   74.46    1.88
   4   7   0   76.14    2.29
  -4   7   0   73.87    2.05
  -4   7   0   71.40    1.76
  -4   7   0   71.45    1.99
  -5  -7   0    8.35    0.44
  -5  -7   0    8.58    0.45
  -5   7   0    9.19    0.57
  -5   7   0    8.19    0.39
  -6  -7   0   37.61    1.14
  -6  -7   0   39.25    1.13
  -6   7   0   37.55    1.06
  -6   7   0   38.63    1.22
  -7  -7   0    1.26    0.15
  -7  -7   0    0.90    0.16
  -7  -7   0    1.08    0.15
  -7   7   0    1.17    0.18
  -7   7   0    1.25    0.21
   0  -8   0  417.23    9.03
   0   8   0  399.74    8.97
   1  -8   0   81.62    2.05
  -1  -8   0   77.27    2.08
   1   8   0   76.12    2.07
   2  -8   0    1.95    0.26
   2   8   0    2.11    0.28
   3  -8   0   19.15    0.82
  -3  -8   0   18.80    0.64
  -3  -8   0   18.71    0.68
   3   8   0   19.37    0.90
  -4  -8   0   23.75    0.83
   4  -8   0   24.04    1.06
  -4  -8   0   25.05    0.82
  -4  -8   0   25.58    0.84
  -4  -8   0   24.37    0.80
  -4   8   0   22.81    0.89
  -4   8   0   25.31    0.97
  -4   8   0   23.35    0.72
   4   8   0   24.32    1.16
  -5  -8   0    6.42    0.39
  -5  -8   0    6.51    0.38
  -5   8   0    6.80    0.49
  -5   8   0    6.34    0.35
  -6  -8   0   28.15    0.91
  -6  -8   0   27.37    0.88
  -6   8   0   27.67    0.97
  -6   8   0   28.77    0.84
  -7  -8   0    8.41    0.35
  -7  -8   0   10.51    0.51
  -7   8   0    8.60    0.42
   0  -9   0   -0.04    0.08
   0   9   0    0.09    0.10
  -1  -9   0   46.72    1.47
   1  -9   0   48.05    1.45
   1   9   0   50.18    1.48
   2  -9   0   15.75    0.73
   2   9   0   14.97    0.75
  -3  -9   0    4.72    0.34
  -3  -9   0    5.56    0.32
   3  -9   0    5.40    0.44
  -3  -9   0    4.38    0.37
   3   9   0    5.15    0.46
  -4  -9   0    0.31    0.14
   4  -9   0    0.27    0.20
  -4  -9   0    0.18    0.12
  -4  -9   0    0.32    0.13
  -4  -9   0    0.77    0.17
  -4  -9   0    0.30    0.12
  -4   9   0    0.04    0.12
  -4   9   0    0.27    0.10
  -4   9   0    0.79    0.22
  -5  -9   0    6.60    0.40
  -5  -9   0    7.05    0.42
  -5   9   0    7.50    0.51
  -5   9   0    6.89    0.36
  -6  -9   0    0.77    0.16
  -6  -9   0    0.81    0.17
  -6   9   0    0.99    0.20
  -6   9   0    0.63    0.14
   0 -10   0  200.16    4.75
   1 -10   0   49.24    1.52
   1  10   0   48.51    1.52
   2 -10   0   81.23    2.26
  -2 -10   0   80.21    2.10
   2  10   0   77.25    2.31
  -3 -10   0   25.88    0.89
   3 -10   0   26.15    1.08
  -3 -10   0   24.84    0.80
  -3 -10   0   24.65    0.81
  -3 -10   0   24.23    0.79
  -3 -10   0   24.74    0.81
   3 -10   0   25.49    0.79
  -3  10   0   25.94    0.76
   3  10   0   26.26    0.80
   3  10   0   23.05    1.11
  -3  10   0   24.48    0.88
  -4 -10   0    3.03    0.31
  -4 -10   0    3.23    0.28
  -4 -10   0    2.89    0.27
  -4 -10   0    3.22    0.32
  -4 -10   0    2.51    0.29
  -4  10   0    2.82    0.34
   4  10   0    2.46    0.27
  -4  10   0    2.81    0.35
  -4  10   0    2.44    0.23
  -5 -10   0    0.49    0.15
  -5 -10   0    0.26    0.13
  -5 -10   0    0.60    0.16
  -5  10   0    0.33    0.19
  -5  10   0    0.37    0.13
  -6 -10   0    1.92    0.24
  -6 -10   0    1.94    0.23
  -6  10   0    2.01    0.23
  -6  10   0    2.13    0.30
  -6  10   0    1.91    0.21
   0 -11   0   -0.04    0.11
   1 -11   0   36.64    1.28
   1  11   0   35.38    1.28
  -2 -11   0   19.33    0.74
   2 -11   0   19.89    0.91
  -2 -11   0   18.78    0.81
   2  11   0   19.92    0.64
   2  11   0   20.20    0.96
   3 -11   0  138.87    3.21
  -3 -11   0  135.48    3.24
  -3 -11   0  140.67    3.37
   3 -11   0  136.18    3.67
  -3 -11   0  136.51    3.26
  -3 -11   0  139.46    3.25
   3  11   0  132.76    3.77
  -3  11   0  136.70    3.16
   3  11   0  142.98    3.23
  -4 -11   0   64.73    1.84
  -4 -11   0   62.72    1.72
  -4 -11   0   65.19    1.76
  -4 -11   0   66.20    1.74
  -4  11   0   64.28    1.67
   4  11   0   66.43    1.74
  -5 -11   0   12.24    0.66
  -5 -11   0   12.86    0.58
  -5 -11   0   13.12    0.59
  -5 -11   0   13.75    0.59
  -5  11   0   12.78    0.69
  -5  11   0   13.10    0.53
   5  11   0   13.35    0.58
  -6 -11   0   24.39    0.78
  -6 -11   0   24.41    0.79
  -6  11   0   24.81    0.84
  -6  11   0   25.22    0.83
   6  11   0   22.78    0.78
  -6  11   0   24.18    0.72
   0 -12   0  431.66    9.82
   1 -12   0  140.03    3.65
  -1 -12   0  137.91    3.32
   1  12   0  138.35    3.16
  -1  12   0  138.31    3.16
  -2 -12   0   70.94    1.81
  -2 -12   0   72.89    1.83
  -2 -12   0   73.02    1.90
   2 -12   0   74.18    2.21
   2  12   0   70.74    2.00
  -2  12   0   72.23    1.78
   2  12   0   73.98    1.80
   2  12   0   70.64    2.26
  -2  12   0   71.97    1.79
  -3 -12   0   31.40    1.09
   3 -12   0   32.21    0.97
   3 -12   0   35.03    1.74
  -3 -12   0   31.18    0.99
  -3 -12   0   30.66    0.99
  -3  12   0   30.73    0.93
   3  12   0   31.29    0.96
   3  12   0   28.07    1.33
  -4 -12   0    1.97    0.27
  -4 -12   0    1.76    0.26
  -4 -12   0    1.71    0.25
  -4 -12   0    1.59    0.28
   4  12   0    1.87    0.24
  -4  12   0    2.69    0.24
  -5 -12   0    1.05    0.21
  -5 -12   0    1.58    0.23
  -5 -12   0    0.79    0.18
  -5 -12   0    0.59    0.16
  -5  12   0    0.57    0.19
  -5  12   0    0.94    0.17
   5  12   0    0.57    0.15
  -6 -12   0    4.53    0.29
  -6 -12   0    4.86    0.29
  -6  12   0    4.92    0.32
  -6  12   0    4.79    0.30
  -6  12   0    4.29    0.25
   0 -13   0    0.11    0.13
   0  13   0    0.07    0.09
   0  13   0    0.06    0.08
   1 -13   0    7.08    0.59
  -1 -13   0    7.45    0.45
  -1 -13   0    7.21    0.38
  -1 -13   0    7.54    0.37
  -1  13   0    7.61    0.35
  -1  13   0    7.84    0.37
   1  13   0    6.21    0.41
  -1  13   0    8.01    0.35
   1  13   0    7.44    0.39
  -1  13   0    7.56    0.37
   1  13   0    8.13    0.35
   2 -13   0   19.09    0.70
  -2 -13   0   19.64    0.77
   2 -13   0   19.37    0.98
  -2 -13   0   18.80    0.68
  -2 -13   0   23.06    0.85
  -2  13   0   19.42    0.67
  -2  13   0   19.43    0.67
   2  13   0   20.24    0.68
   2  13   0   19.50    0.69
  -3 -13   0    6.05    0.38
   3 -13   0    6.12    0.37
  -3 -13   0    6.66    0.40
  -3 -13   0    6.86    0.48
  -3  13   0    6.36    0.36
   3  13   0    6.75    0.38
  -3  13   0    5.79    0.37
  -4 -13   0    9.54    0.48
  -4 -13   0    8.43    0.47
  -4 -13   0    9.21    0.55
  -4 -13   0    9.35    0.49
  -4  13   0    9.00    0.43
   4  13   0    9.23    0.47
  -5 -13   0   13.26    0.55
  -5 -13   0    9.00    0.58
  -5 -13   0   12.49    0.54
  -5 -13   0   11.22    0.53
   5  13   0   11.99    0.53
  -5  13   0   12.45    0.50
  -6 -13   0    3.45    0.24
  -6 -13   0    3.17    0.28
  -6  13   0    3.11    0.22
  -6  13   0    3.62    0.21
   0 -14   0   27.76    0.87
   0  14   0   29.77    0.92
   0  14   0   30.71    1.05
   0  14   0   29.06    0.91
  -1 -14   0   15.12    0.58
  -1 -14   0   14.34    0.68
  -1 -14   0   14.65    0.60
   1 -14   0   14.12    0.87
  -1  14   0   15.05    0.58
   1  14   0   14.83    0.63
  -1  14   0   14.28    0.56
   1  14   0   14.75    0.59
   1  14   0   15.20    0.53
  -2 -14   0    5.59    0.41
  -2 -14   0    5.98    0.37
  -2 -14   0    5.71    0.44
   2 -14   0    5.33    0.36
   2  14   0    5.13    0.32
   2  14   0    5.56    0.39
  -2  14   0    5.98    0.34
  -2  14   0    5.41    0.33
   2  14   0    4.88    0.33
  -3 -14   0    4.18    0.33
  -3 -14   0    4.46    0.36
  -3 -14   0    4.77    0.41
  -3  14   0    4.31    0.31
  -3  14   0    4.42    0.31
   3  14   0    4.73    0.33
  -4 -14   0   16.86    0.67
  -4 -14   0   15.40    0.74
  -4 -14   0   16.80    0.69
   4  14   0   17.23    0.67
  -4  14   0   17.48    0.65
  -5 -14   0    0.51    0.14
  -5 -14   0    0.75    0.17
  -5 -14   0    0.45    0.15
  -5  14   0    0.37    0.12
   5  14   0    0.59    0.14
   0 -15   0    0.06    0.10
   0 -15   0   -0.02    0.10
   0  15   0   -0.02    0.10
   0  15   0    0.29    0.16
   1 -15   0   11.38    0.81
   1 -15   0   13.02    0.58
  -1 -15   0   13.64    0.56
  -1 -15   0   12.99    0.65
  -1 -15   0   12.32    0.55
  -1  15   0   12.84    0.53
   1  15   0   12.32    0.47
   1  15   0   13.03    0.55
  -1  15   0   12.11    0.53
  -2 -15   0    9.03    0.50
  -2 -15   0    8.75    0.55
  -2 -15   0    8.08    0.46
   2 -15   0    9.30    0.48
  -2  15   0    9.04    0.45
  -2  15   0    8.17    0.42
   2  15   0    8.89    0.43
   2  15   0    8.74    0.50
   2  15   0    8.14    0.43
  -3 -15   0   48.95    1.43
  -3 -15   0   48.61    1.38
  -3 -15   0   47.97    1.56
   3 -15   0   48.52    1.39
  -3  15   0   48.80    1.36
   3  15   0   50.91    1.39
   3  15   0   47.49    1.46
  -3  15   0   47.56    1.34
  -4 -15   0   22.74    0.79
  -4 -15   0   22.72    0.81
  -4 -15   0   22.21    0.90
  -4  15   0   22.63    0.77
   4  15   0   21.85    0.79
   4  15   0   21.71    0.85
  -5 -15   0    4.22    0.29
  -5 -15   0    4.02    0.29
   5  15   0    3.98    0.32
  -5  15   0    4.65    0.28
   5  15   0    4.15    0.29
   0 -16   0    6.84    0.39
   0 -16   0    6.71    0.42
   0  16   0    7.90    0.48
   0  16   0    7.32    0.42
  -1 -16   0    0.59    0.20
  -1 -16   0    0.71    0.17
  -1 -16   0    0.82    0.18
   1 -16   0    0.98    0.20
   1  16   0    0.63    0.13
   1  16   0    0.77    0.19
  -1  16   0    0.97    0.20
  -1  16   0    0.56    0.16
  -2 -16   0    5.31    0.37
  -2 -16   0    5.02    0.38
   2 -16   0    4.74    0.36
  -2 -16   0    5.59    0.45
  -2  16   0    5.07    0.35
  -2  16   0    4.62    0.33
   2  16   0    4.85    0.39
   2  16   0    5.73    0.33
   2  16   0    5.35    0.46
   3 -16   0    9.64    0.49
  -3 -16   0    9.97    0.60
  -3 -16   0    9.95    0.52
  -3  16   0    9.95    0.48
  -3  16   0    9.61    0.46
   3  16   0    9.35    0.52
   3  16   0   10.46    0.49
  -4 -16   0   10.42    0.56
  -4 -16   0   10.22    0.48
  -4 -16   0    9.95    0.50
   4  16   0   10.20    0.53
   4  16   0   10.04    0.48
  -4  16   0   10.95    0.48
  -5 -16   0   15.21    0.55
  -5 -16   0   15.67    0.56
  -5  16   0   15.52    0.53
   5  16   0   14.44    0.53
   5  16   0   14.43    0.58
   0 -17   0    0.11    0.11
   0  17   0    0.04    0.10
   0  17   0    0.14    0.15
   0  17   0    0.06    0.13
  -1 -17   0   14.04    0.72
  -1 -17   0   13.42    0.51
  -1 -17   0   14.22    0.62
  -1 -17   0   14.20    0.59
   1 -17   0   14.46    0.65
   1  17   0   12.89    0.63
  -1  17   0   12.80    0.57
  -1  17   0   13.04    0.58
   1  17   0   13.33    0.59
  -2 -17   0    0.27    0.12
  -2 -17   0    0.16    0.13
   2 -17   0    0.11    0.13
  -2 -17   0    0.19    0.13
  -2 -17   0    0.34    0.19
  -2  17   0    0.00    0.10
   2  17   0    0.05    0.09
  -2  17   0    0.26    0.13
  -3 -17   0    4.27    0.34
   3 -17   0    3.85    0.31
   3 -17   0    3.72    0.28
  -3 -17   0    3.66    0.38
  -3  17   0    3.70    0.29
   3  17   0    3.52    0.27
  -3  17   0    3.53    0.29
  -4 -17   0    2.41    0.27
   4 -17   0    2.88    0.24
  -4 -17   0    2.48    0.33
  -4  17   0    2.61    0.24
   4  17   0    2.91    0.23
  -5 -17   0    0.15    0.09
   5  17   0    0.11    0.08
  -5  17   0    0.19    0.09
   0 -18   0    5.59    0.34
   0 -18   0    6.13    0.42
   0  18   0    5.40    0.37
  -1 -18   0    2.25    0.37
  -1 -18   0    1.67    0.24
   1 -18   0    1.43    0.24
  -1  18   0    1.69    0.25
  -1  18   0    1.76    0.25
   1  18   0    1.50    0.24
   1  18   0    1.79    0.31
  -2 -18   0    0.54    0.17
  -2 -18   0    0.14    0.16
   2 -18   0    0.21    0.13
   2 -18   0    0.55    0.16
   2  18   0    0.33    0.11
  -2  18   0    0.25    0.14
  -2  18   0    0.27    0.12
  -3 -18   0    0.79    0.22
  -3 -18   0    0.21    0.13
   3 -18   0    0.44    0.14
   3 -18   0    0.11    0.10
  -3  18   0    0.15    0.10
  -3  18   0    0.19    0.11
   3  18   0    0.72    0.14
  -4 -18   0   16.45    0.67
   4 -18   0   16.91    0.58
  -4 -18   0   18.44    0.63
  -4  18   0   17.51    0.60
   4  18   0   16.32    0.55
   0 -19   0    0.02    0.09
   0 -19   0    0.13    0.12
   0  19   0   -0.03    0.10
  -1 -19   0    4.25    0.41
   1 -19   0    4.75    0.32
   1 -19   0    4.65    0.37
  -1 -19   0    4.94    0.34
  -1 -19   0    4.05    0.40
   1  19   0    4.57    0.37
   1  19   0    5.11    0.35
  -1  19   0    4.80    0.35
   2 -19   0    4.81    0.32
  -2 -19   0    4.95    0.43
  -2 -19   0    5.03    0.34
   2 -19   0    4.81    0.36
   2  19   0    4.70    0.43
  -2  19   0    4.60    0.32
  -2  19   0    4.24    0.31
  -3 -19   0   17.01    0.75
   3 -19   0   17.63    0.66
  -3 -19   0   18.05    0.66
   3 -19   0   18.44    0.64
  -3  19   0   18.37    0.64
  -3  19   0   18.27    0.64
   3  19   0   17.73    0.56
   4 -19   0    9.06    0.38
  -4 -19   0    9.58    0.41
  -4  19   0    9.42    0.39
   0 -20   0   17.80    0.72
   0 -20   0   18.42    0.61
   0  20   0   19.59    0.71
  -1 -20   0   17.34    0.69
   1 -20   0   15.75    0.68
  -1 -20   0   15.44    0.75
   1 -20   0   15.69    0.60
   1  20   0   16.45    0.63
  -1  20   0   16.99    0.65
   2 -20   0    3.08    0.25
  -2 -20   0    3.28    0.27
  -2 -20   0    3.33    0.41
   2 -20   0    3.53    0.31
   2  20   0    2.83    0.31
  -2  20   0    2.95    0.27
  -2  20   0    2.76    0.25
   3 -20   0    0.86    0.15
   3 -20   0    1.30    0.18
  -3 -20   0    1.04    0.20
  -3 -20   0    1.54    0.20
  -3  20   0    1.27    0.19
   3  20   0    0.84    0.19
  -3  20   0    1.40    0.20
   0 -21   0    0.02    0.10
   0  21   0    0.22    0.11
  -1 -21   0   10.10    0.57
   1 -21   0   10.55    0.51
   1 -21   0   11.03    0.43
  -1  21   0   10.83    0.48
   1  21   0   10.18    0.44
  -2 -21   0    0.03    0.12
   2 -21   0   -0.06    0.08
  -2 -21   0    0.17    0.10
   2 -21   0    0.06    0.11
  -2  21   0    0.23    0.12
   3 -21   0    9.01    0.39
   0 -22   0   63.44    1.66
   0 -22   0   62.77    1.65
   0  22   0   67.23    1.64
   1 -22   0   37.00    0.94
   1 -22   0   37.14    1.08
  -1  22   0   36.83    1.04
   2 -22   0   35.73    1.04
   2 -22   0   35.66    1.12
  -2  22   0   37.72    1.00
  -7   0   1    0.06    0.14
  -7   0   1    0.02    0.06
  -6   0   1   -0.02    0.16
  -6   0   1    0.11    0.11
  -6   0   1    0.01    0.07
  -6   0   1    0.12    0.11
  -6   0   1    0.17    0.21
  -5   0   1    0.03    0.07
  -5   0   1    0.04    0.09
  -5   0   1    0.26    0.19
  -5   0   1    0.11    0.15
  -5   0   1    0.08    0.14
   5   0  -1    0.01    0.09
   4   0  -1    0.06    0.08
   3   0  -1    0.06    0.07
   2   0  -1    0.03    0.04
   2   0  -1    0.03    0.03
   1   0  -1   -0.04    0.04
   1   0  -1   -0.05    0.03
   0   0   1   -0.18    0.07
   0   0  -1   -0.22    0.06
  -1   0  -1   -0.38    0.11
   1   0   1   -0.40    0.11
   2   0   1   -0.21    0.13
  -3   0  -1    0.11    0.14
   3   0   1   -0.06    0.12
  -4   0  -1   -0.05    0.09
   4   0   1   -0.09    0.13
  -5   0  -1    0.07    0.12
  -5   0  -1    0.10    0.09
  -6   0  -1    0.02    0.10
  -6   0  -1    0.06    0.09
  -7   0  -1    0.02    0.08
  -7   0  -1    0.07    0.08
  -7   0  -1    0.10    0.07
  -7  -1   1   31.89    0.85
  -7   1   1   31.80    0.83
  -7   1   1   30.10    1.02
  -6  -1   1    0.65    0.19
  -6  -1   1    0.77    0.14
  -6  -1   1    0.69    0.20
  -6  -1   1    0.75    0.22
  -6  -1   1    0.99    0.28
  -6   1   1    1.04    0.29
  -6   1   1    1.17    0.28
  -6   1   1    0.81    0.19
  -6   1   1    0.52    0.12
  -6   1   1    0.95    0.19
  -5  -1   1    1.40    0.25
  -5  -1   1    1.58    0.18
  -5  -1   1    1.26    0.27
  -5  -1   1    1.36    0.38
   5  -1  -1    1.68    0.35
  -5  -1   1    1.30    0.27
   5   1  -1    1.09    0.21
  -5   1   1    1.10    0.25
  -5   1   1    1.76    0.28
  -5   1   1    1.48    0.29
  -5   1   1    1.21    0.22
  -5   1   1    1.39    0.29
   4  -1  -1    0.13    0.10
   4   1  -1    0.13    0.09
   3  -1  -1   90.94    2.11
   3   1  -1   90.03    2.12
   2   1  -1   61.02    1.41
   2   1  -1   62.15    1.41
   1   1  -1  335.48    7.13
   1   1  -1  314.08    7.07
   0  -1   1  118.64    2.57
   0  -1  -1  112.14    2.57
   0   1  -1  115.37    2.55
   0   1   1  114.16    2.54
  -1  -1  -1    2.74    0.22
   1  -1   1    3.06    0.22
   1   1   1    2.41    0.22
  -1   1  -1    2.21    0.20
   2  -1   1    0.84    0.19
   2   1   1    1.07    0.21
  -3  -1  -1    9.91    0.89
   3  -1   1   12.41    0.63
   3   1   1   12.54    0.65
  -3   1  -1   13.11    0.79
   4  -1   1  103.74    2.81
  -4  -1  -1   99.19    2.37
  -4  -1  -1   96.32    2.39
   4   1   1  100.44    2.79
  -4   1  -1   99.64    2.58
  -5  -1  -1    6.61    0.37
  -5   1  -1    6.12    0.49
  -5   1  -1    6.90    0.37
  -6  -1  -1   20.89    0.72
  -6  -1  -1   19.94    0.92
  -6   1  -1   20.29    0.71
  -6   1  -1   21.12    0.91
  -7  -1  -1    0.59    0.13
  -7  -1  -1    0.62    0.11
  -7  -1  -1    0.51    0.13
  -7   1  -1    0.53    0.13
  -7   1  -1    0.78    0.13
  -7   1  -1    0.91    0.14
  -7   1  -1    0.59    0.15
  -7   1  -1    0.90    0.18
  -7  -2   1    7.53    0.31
  -7   2   1    6.57    0.27
  -7   2   1    6.39    0.43
  -6  -2   1   47.99    1.54
  -6  -2   1   48.57    1.29
  -6  -2   1   48.40    1.50
  -6   2   1   44.75    2.07
  -6   2   1   49.46    1.62
  -6   2   1   47.56    1.50
  -6   2   1   46.35    1.35
  -6   2   1   49.54    1.37
  -6   2   1   48.09    1.25
  -5  -2   1    7.57    0.35
  -5  -2   1    8.15    0.50
  -5  -2   1    8.27    0.74
  -5  -2   1    6.95    0.49
  -5  -2   1    7.81    0.46
  -5  -2   1    8.05    0.51
  -5   2   1    9.12    0.64
  -5   2   1    8.20    0.44
  -5   2   1    7.81    0.46
   5   2  -1    6.92    0.45
  -5   2   1    7.47    0.51
  -5   2   1    8.76    0.56
  -4  -2   1   90.72    2.41
   4  -2  -1   84.00    2.19
  -4   2   1   94.67    2.57
   4   2  -1   88.64    2.26
   3  -2  -1    1.88    0.17
   3   2  -1    1.85    0.19
   2  -2  -1  261.43    5.79
   2  -2  -1  278.07    5.81
   2   2  -1  268.94    5.90
   2   2  -1  279.81    5.89
   1  -2  -1  132.72    3.02
   1   2  -1  145.46    3.07
   0  -2   1  163.07    3.75
   0  -2  -1  172.39    3.79
   0   2  -1  174.31    3.75
   0   2   1  173.52    3.74
   1  -2   1  917.07   19.89
  -1  -2  -1  854.89   20.09
  -1   2  -1  926.19   20.08
   1   2   1  928.66   19.79
   2  -2   1  125.23    2.93
   2   2   1  119.77    2.96
   3  -2   1  379.93    8.42
  -3   2  -1  371.96    8.72
   3   2   1  372.80    8.47
   4  -2   1   20.28    0.93
  -4  -2  -1   17.46    0.64
  -4  -2  -1   17.80    0.63
   4   2   1   18.93    0.92
  -4   2  -1   17.65    0.84
  -4   2  -1   16.97    0.77
  -5  -2  -1    1.14    0.18
  -5   2  -1    1.10    0.27
  -5   2  -1    1.52    0.22
  -6  -2  -1    5.35    0.34
  -6  -2  -1    5.58    0.34
  -6   2  -1    5.48    0.46
  -6   2  -1    5.05    0.32
  -7  -2  -1   37.58    0.97
  -7  -2  -1   36.61    0.98
  -7  -2  -1   35.39    1.08
  -7   2  -1   34.45    1.03
  -7   2  -1   36.40    0.95
  -7   2  -1   36.70    0.96
  -7   2  -1   34.81    1.00
  -7   2  -1   35.68    1.02
  -7  -3   1    1.73    0.16
  -7  -3   1    1.73    0.18
  -7   3   1    1.70    0.27
  -6  -3   1    5.94    0.47
  -6  -3   1    5.68    0.44
  -6  -3   1    5.50    0.32
  -6  -3   1    5.58    0.32
  -6   3   1    5.24    0.33
  -6   3   1    5.48    0.71
  -6   3   1    5.24    0.34
  -6   3   1    5.25    0.28
  -6   3   1    5.13    0.44
  -6   3   1    6.11    0.61
  -5  -3   1   27.74    0.98
  -5  -3   1   26.69    1.49
  -5  -3   1   27.44    1.02
  -5  -3   1   27.31    0.81
  -5  -3   1   25.59    0.99
  -5   3   1   26.02    0.95
  -5   3   1   25.74    1.03
   5   3  -1   25.08    1.00
  -5   3   1   26.93    0.88
  -4  -3   1   18.53    0.57
  -4  -3   1   19.51    0.96
   4  -3  -1   17.23    0.67
  -4   3   1   19.79    0.65
   4   3  -1   19.35    0.74
   3  -3  -1  108.35    2.53
  -3  -3   1  114.73    2.66
   3   3  -1  109.94    2.64
   2  -3  -1   93.69    2.02
   2  -3  -1   85.40    2.01
   2   3  -1   93.33    2.12
   1  -3  -1  322.39    7.19
  -1  -3   1  340.39    7.27
   1  -3  -1  326.94    7.23
   1   3  -1  340.94    7.52
   0  -3   1   44.85    1.15
   0  -3  -1   47.49    1.18
   0   3  -1   45.58    1.14
   0   3   1   46.53    1.13
   1  -3   1   22.84    0.69
  -1  -3  -1   21.96    0.71
  -1   3  -1   21.03    0.69
   1   3   1   23.05    0.72
   2  -3   1   14.52    0.59
   2   3   1   14.41    0.61
   3  -3   1   70.91    2.01
   3   3   1   70.33    2.04
  -3   3  -1   74.83    2.32
   4  -3   1  114.32    3.07
  -4  -3  -1  112.73    2.68
  -4  -3  -1  108.48    2.69
   4   3   1  115.87    3.14
  -4   3  -1  110.93    2.94
  -5  -3  -1   45.01    1.28
  -5   3  -1   44.71    1.51
  -5   3  -1   43.93    1.22
  -6  -3  -1   40.36    1.18
  -6  -3  -1   41.10    1.16
  -6   3  -1   39.13    1.15
  -6   3  -1   38.55    1.37
  -7  -3  -1    7.74    0.41
  -7  -3  -1    8.63    0.35
  -7  -3  -1    8.20    0.34
  -7   3  -1    7.14    0.34
  -7   3  -1    8.50    0.41
  -7   3  -1    7.52    0.35
  -7   3  -1    7.94    0.32
  -7   3  -1    8.45    0.33
  -7  -4   1    0.03    0.08
  -7  -4   1    0.02    0.08
  -7  -4   1    0.07    0.07
  -7  -4   1    0.01    0.07
  -7   4   1    0.12    0.14
  -6  -4   1    4.97    0.42
  -6  -4   1    5.32    0.32
  -6  -4   1    5.41    0.33
  -6  -4   1    5.69    0.45
  -6   4   1    5.26    0.46
  -6   4   1    5.32    0.34
  -6   4   1    5.51    0.32
  -6   4   1    5.27    0.28
  -5  -4   1    0.28    0.12
  -5  -4   1    0.88    0.24
  -5  -4   1    0.64    0.19
  -5  -4   1    0.44    0.18
  -5  -4   1    0.39    0.12
  -5   4   1    0.30    0.12
  -5   4   1    0.39    0.21
  -5   4   1    0.28    0.13
   4  -4  -1    9.29    0.45
  -4  -4   1    9.07    0.37
  -4  -4   1    9.69    0.76
   4   4  -1    9.86    0.53
  -4   4   1    9.67    0.42
  -3  -4   1    9.72    0.61
   3  -4  -1    9.70    0.39
   3   4  -1    9.72    0.46
   2  -4  -1    0.05    0.06
   2  -4  -1    0.18    0.07
   2   4  -1    0.06    0.09
   1  -4  -1   16.07    0.50
  -1  -4   1   14.94    0.52
   1   4  -1   16.04    0.53
   0  -4  -1   11.13    0.43
   0  -4   1   10.79    0.42
   0   4   1   10.58    0.40
   0   4  -1   11.15    0.42
  -1  -4  -1    0.25    0.13
   1  -4   1    0.35    0.13
   1   4   1    0.15    0.11
  -1   4  -1    0.45    0.13
   2  -4   1    0.13    0.12
   2   4   1    0.09    0.13
   3  -4   1    8.30    0.51
   3   4   1    8.86    0.55
  -4  -4  -1    0.20    0.10
  -4  -4  -1    0.13    0.11
   4  -4   1    0.11    0.14
  -4   4  -1    0.29    0.17
   4   4   1    0.19    0.16
  -4   4  -1    0.29    0.10
  -4   4  -1    0.35    0.16
  -5  -4  -1    0.09    0.10
  -5  -4  -1    0.21    0.12
  -5   4  -1    0.09    0.09
  -5   4  -1    0.09    0.14
  -6  -4  -1    1.40    0.21
  -6  -4  -1    1.31    0.21
  -6   4  -1    0.73    0.15
  -6   4  -1    0.80    0.23
  -7  -4  -1    1.61    0.17
  -7  -4  -1    1.33    0.16
  -7  -4  -1    1.30    0.20
  -7   4  -1    1.67    0.23
  -7   4  -1    1.31    0.14
  -7   4  -1    1.37    0.15
  -7   4  -1    1.37    0.14
  -7  -5   1   32.80    1.01
  -7  -5   1   35.99    0.97
  -7  -5   1   36.36    0.96
  -7  -5   1   35.82    1.01
  -7   5   1   36.94    1.14
  -6  -5   1    2.61    0.38
  -6  -5   1    2.88    0.24
  -6  -5   1    2.67    0.25
  -6   5   1    3.74    0.43
  -6   5   1    2.80    0.23
  -6   5   1    2.49    0.25
  -5  -5   1    1.23    0.29
  -5  -5   1    1.17    0.18
  -5  -5   1    2.43    0.32
  -5  -5   1    1.15    0.18
  -5   5   1    1.28    0.23
  -5   5   1    1.05    0.20
  -5   5   1    1.11    0.29
   4  -5  -1    1.35    0.22
  -4  -5   1    1.41    0.26
  -4  -5   1    1.15    0.15
  -4   5   1    0.80    0.15
  -4   5   1    1.40    0.27
  -4   5   1    1.15    0.25
   4   5  -1    1.19    0.26
   3  -5  -1  125.03    2.87
  -3  -5   1  120.83    3.42
   3   5  -1  123.21    3.01
   2  -5  -1   72.99    1.73
   2   5  -1   70.06    1.81
  -1  -5   1  224.54    5.11
   1  -5  -1  230.85    5.08
   1   5  -1  234.39    5.12
   0  -5  -1  327.73    7.25
   0  -5   1  326.21    7.24
   0   5   1  334.48    7.21
   0   5  -1  333.76    7.22
   1  -5   1   15.93    0.60
  -1  -5  -1   14.60    0.60
  -1   5  -1   16.40    0.58
   1   5   1   15.57    0.60
   2  -5   1   14.25    0.61
   2   5   1   13.96    0.65
   3  -5   1   19.35    0.84
   3   5   1   19.03    0.88
   4  -5   1   68.94    2.11
  -4  -5  -1   70.81    1.79
  -4  -5  -1   68.91    1.76
  -4  -5  -1   69.63    1.82
   4   5   1   69.60    2.22
  -4   5  -1   68.67    1.89
  -4   5  -1   68.01    1.71
  -5  -5  -1    5.62    0.37
  -5  -5  -1    6.24    0.38
  -5   5  -1    6.18    0.35
  -5   5  -1    6.63    0.51
  -6  -5  -1   14.65    0.60
  -6  -5  -1   15.20    0.60
  -6   5  -1   14.82    0.58
  -6   5  -1   14.73    0.73
  -7  -5  -1    1.02    0.14
  -7  -5  -1    1.07    0.18
  -7  -5  -1    1.28    0.15
  -7   5  -1    1.58    0.23
  -7   5  -1    1.05    0.11
  -7   5  -1    1.11    0.13
  -7  -6   1   22.60    0.80
  -7  -6   1   24.63    0.79
  -7  -6   1   26.53    0.75
  -7  -6   1   25.79    0.74
  -7   6   1   25.61    0.87
  -6  -6   1   82.77    2.04
  -6  -6   1   79.72    2.34
  -6  -6   1   84.52    2.07
  -6   6   1   84.95    2.26
  -6   6   1   80.97    2.02
  -6   6   1   78.04    2.08
  -5  -6   1  100.28    2.47
  -5  -6   1  103.78    2.51
  -5  -6   1  101.12    2.87
  -5   6   1  105.76    2.59
  -5   6   1  104.87    2.82
  -4  -6   1  215.16    4.88
   4  -6  -1  219.16    5.09
  -4  -6   1  206.62    4.91
  -4  -6   1  221.47    4.90
  -4   6   1  237.59    5.02
  -4   6   1  220.59    5.13
  -4   6   1  215.87    5.14
   4   6  -1  222.88    5.28
   3  -6  -1  312.10    6.76
   3   6  -1  298.22    6.92
   2  -6  -1    1.37    0.17
   2   6  -1    1.14    0.19
   1  -6  -1  322.93    7.02
  -1  -6   1  316.46    7.05
   1   6  -1  318.94    7.05
   0  -6   1   11.63    0.51
   0  -6  -1   11.83    0.51
   0   6   1   11.67    0.47
   0   6  -1   12.05    0.50
   1  -6   1    0.39    0.16
  -1  -6  -1    0.10    0.13
   1   6   1    0.33    0.15
   2  -6   1    8.45    0.47
   2   6   1    6.97    0.47
   3  -6   1   16.16    0.77
   3   6   1   16.38    0.81
   4  -6   1   10.12    0.67
  -4  -6  -1   10.05    0.47
  -4  -6  -1    9.08    0.44
  -4  -6  -1    9.10    0.45
  -4  -6  -1   10.04    0.50
   4   6   1   10.35    0.71
  -4   6  -1    9.94    0.42
  -4   6  -1    9.27    0.52
  -5  -6  -1   10.98    0.52
  -5  -6  -1   11.51    0.53
  -5  -6  -1   11.49    0.54
  -5   6  -1   11.01    0.68
  -5   6  -1   11.95    0.50
  -6  -6  -1    2.64    0.25
  -6  -6  -1    2.49    0.28
  -6   6  -1    2.65    0.31
  -6   6  -1    2.43    0.22
  -6   6  -1    2.72    0.25
  -7  -6  -1   37.88    1.05
  -7  -6  -1   36.67    0.96
  -7   6  -1   36.42    1.05
  -7  -7   1   12.12    0.44
  -7  -7   1   10.07    0.49
  -7  -7   1   11.50    0.43
  -7  -7   1   11.42    0.47
  -7   7   1   11.86    0.53
  -6  -7   1   13.46    0.56
  -6  -7   1   13.37    0.54
  -6  -7   1   12.64    0.73
  -6   7   1   14.47    0.68
  -6   7   1   12.71    0.56
  -6   7   1   13.77    0.52
  -5  -7   1    1.03    0.18
  -5  -7   1    1.05    0.18
  -5   7   1    1.43    0.24
  -4  -7   1    6.10    0.33
   4  -7  -1    6.29    0.42
  -4  -7   1    6.15    0.33
  -4  -7   1    6.08    0.33
  -4   7   1    6.24    0.37
  -4   7   1    5.90    0.47
   4   7  -1    6.30    0.50
   3  -7  -1    0.10    0.10
   3   7  -1    0.05    0.10
   2  -7  -1    1.49    0.19
   2   7  -1    0.97    0.19
   1  -7  -1   86.17    2.14
  -1  -7   1   85.22    2.17
   1   7  -1   84.38    2.16
   0  -7   1   48.24    1.36
   0  -7  -1   45.05    1.34
   0   7   1   47.42    1.31
   0   7  -1   45.25    1.30
   1  -7   1    2.03    0.25
  -1  -7  -1    1.90    0.25
   1   7   1    1.80    0.24
   2  -7   1   35.19    1.18
   2   7   1   35.61    1.22
  -3  -7  -1    4.43    0.39
  -3  -7  -1    4.09    0.30
   3  -7   1    3.98    0.38
   3   7   1    3.72    0.41
  -4  -7  -1    3.00    0.30
   4  -7   1    3.07    0.40
  -4  -7  -1    3.26    0.27
  -4  -7  -1    3.04    0.27
  -4  -7  -1    3.18    0.27
  -4   7  -1    3.97    0.42
   4   7   1    3.42    0.43
  -4   7  -1    3.23    0.25
  -5  -7  -1    2.02    0.26
  -5  -7  -1    1.57    0.24
  -5  -7  -1    1.50    0.23
  -5   7  -1    1.68    0.32
  -5   7  -1    1.66    0.23
  -6  -7  -1    3.07    0.26
  -6  -7  -1    3.26    0.27
  -6   7  -1    2.78    0.25
  -6   7  -1    3.18    0.25
  -6   7  -1    2.64    0.31
  -7  -7  -1    1.23    0.15
  -7   7  -1    1.39    0.25
  -7  -8   1    0.88    0.16
  -7  -8   1    1.01    0.14
  -7  -8   1    0.92    0.15
  -7   8   1    1.02    0.19
  -6  -8   1   29.11    0.90
  -6  -8   1   28.95    0.92
  -6   8   1   27.93    0.92
  -6   8   1   28.10    1.02
  -6   8   1   28.46    0.85
  -5  -8   1    0.76    0.17
  -5  -8   1    0.99    0.19
  -5   8   1    1.44    0.25
  -4  -8   1   29.45    0.90
  -4  -8   1   27.45    0.87
  -4  -8   1   27.74    0.86
   4  -8  -1   29.33    1.06
  -4   8   1   28.80    0.97
   4   8  -1   28.47    1.20
  -3  -8   1    5.70    0.33
  -3  -8   1    6.57    0.32
   3  -8  -1    6.52    0.41
   3   8  -1    6.06    0.47
   2  -8  -1    0.09    0.10
   2   8  -1   -0.02    0.10
  -1  -8   1    0.27    0.14
   1  -8  -1    0.05    0.10
   1   8  -1    0.20    0.14
   0  -8   1   32.24    1.07
   0  -8  -1   33.29    1.08
   0   8   1   30.51    1.00
   0   8  -1   32.23    1.04
   1  -8   1   30.25    1.03
  -1  -8  -1   30.08    1.07
   1   8   1   30.58    1.07
   2  -8   1    1.22    0.24
   2   8   1    1.17    0.27
  -3  -8  -1   28.31    0.88
   3  -8   1   29.23    1.15
  -3  -8  -1   28.49    0.95
   3   8   1   27.41    1.18
  -4  -8  -1    1.37    0.21
  -4  -8  -1    1.34    0.26
  -4  -8  -1    1.09    0.20
  -4  -8  -1    1.02    0.19
  -4   8  -1    1.12    0.23
  -4   8  -1    1.14    0.19
  -5  -8  -1    2.09    0.26
  -5  -8  -1    1.86    0.27
  -5  -8  -1    1.49    0.23
  -5  -8  -1    1.77    0.25
  -5   8  -1    1.46    0.29
  -5   8  -1    1.78    0.24
  -6  -8  -1    0.40    0.12
  -6  -8  -1    0.63    0.15
  -6   8  -1    0.39    0.17
  -6   8  -1    0.57    0.14
  -7  -9   1    9.68    0.37
  -7   9   1    9.47    0.44
  -6  -9   1    0.12    0.10
  -6  -9   1    0.13    0.11
  -6   9   1    0.10    0.10
  -6   9   1    0.16    0.09
  -6   9   1   -0.04    0.14
  -5  -9   1   14.77    0.61
  -5  -9   1   15.30    0.60
  -5   9   1   15.41    0.66
  -5   9   1   13.95    0.51
  -4  -9   1    3.32    0.27
  -4  -9   1    3.71    0.29
  -4  -9   1    3.75    0.28
   4  -9  -1    3.37    0.36
  -4   9   1    3.88    0.34
  -4   9   1    3.20    0.22
   4   9  -1    3.26    0.41
  -3  -9   1  161.22    3.72
   3  -9  -1  166.57    3.96
  -3  -9   1  161.12    3.77
   3   9  -1  164.15    4.12
   2  -9  -1   76.29    2.06
   2   9  -1   76.83    2.13
   1  -9  -1  164.65    3.96
   1   9  -1  165.24    3.98
   0  -9  -1  194.67    4.50
   0  -9   1  182.54    4.47
   0   9  -1  183.89    4.41
  -1  -9  -1   17.36    0.80
   1  -9   1   18.24    0.78
   1   9   1   18.57    0.79
   2  -9   1    1.28    0.27
   2   9   1    1.76    0.35
  -3  -9  -1   52.11    1.44
  -3  -9  -1   55.16    1.44
  -3  -9  -1   51.70    1.44
   3  -9   1   54.42    1.80
  -3  -9  -1   53.60    1.55
   3   9   1   53.54    1.41
  -3   9  -1   55.07    1.39
  -3   9  -1   53.17    1.53
   3   9   1   55.10    1.88
  -4  -9  -1  131.32    3.20
  -4  -9  -1  127.57    3.08
  -4  -9  -1  126.06    3.06
   4   9   1  125.18    3.03
  -4   9  -1  126.97    2.99
  -4   9  -1  125.18    3.18
  -5  -9  -1   29.78    0.99
  -5  -9  -1   28.20    0.97
  -5  -9  -1   30.00    0.97
  -5  -9  -1   29.35    0.96
  -5  -9  -1   30.90    1.00
  -5   9  -1   29.29    0.92
   5   9   1   28.69    0.97
  -6  -9  -1   40.92    1.17
  -6  -9  -1   42.24    1.15
   6   9   1   37.48    1.14
  -6   9  -1   40.84    1.12
  -6 -10   1    4.72    0.32
  -6 -10   1    4.54    0.31
  -6  10   1    4.84    0.32
  -6  10   1    4.47    0.27
  -6  10   1    4.47    0.36
  -5 -10   1    1.25    0.21
  -5 -10   1    1.30    0.22
  -5  10   1    1.33    0.18
  -5  10   1    2.28    0.28
  -4 -10   1    3.60    0.30
  -4 -10   1    3.15    0.27
  -4 -10   1    3.41    0.28
  -4 -10   1    3.55    0.29
  -4  10   1    3.18    0.31
  -4  10   1    3.22    0.23
   3 -10  -1    1.30    0.26
  -3 -10   1    1.46    0.23
  -3 -10   1    1.70    0.22
  -3 -10   1    1.49    0.20
  -3 -10   1    1.26    0.18
   3  10  -1    1.48    0.31
  -3  10   1    1.53    0.18
   2 -10  -1  187.54    4.51
  -2 -10   1  189.38    4.39
   2  10  -1  188.29    4.61
   1 -10  -1   94.54    2.60
   1  10  -1  101.73    2.63
   0 -10  -1  224.08    5.41
   0 -10   1  232.83    5.43
   1 -10   1  325.55    7.37
   1  10   1  315.55    7.40
  -2 -10  -1  153.99    3.67
   2 -10   1  150.87    3.97
   2  10   1  158.14    4.00
  -3 -10  -1  194.47    4.35
  -3 -10  -1  190.84    4.37
  -3 -10  -1  192.07    4.37
   3 -10   1  194.38    4.86
  -3 -10  -1  186.18    4.49
   3  10   1  177.47    4.90
  -3  10  -1  192.04    4.29
   3  10   1  194.63    4.33
  -3  10  -1  188.42    4.45
  -4 -10  -1   32.74    1.03
  -4 -10  -1   32.53    1.14
  -4 -10  -1   32.14    1.04
  -4 -10  -1   30.45    1.03
  -4  10  -1   32.71    1.13
  -4  10  -1   31.57    0.98
   4  10   1   32.33    1.02
  -5 -10  -1   13.80    0.61
  -5 -10  -1   13.96    0.61
  -5 -10  -1   14.48    0.63
  -5 -10  -1   13.51    0.59
  -5 -10  -1   14.33    0.60
  -5  10  -1   14.54    0.58
   5  10   1   14.11    0.61
  -6 -10  -1    2.95    0.25
  -6 -10  -1    2.91    0.24
  -6  10  -1    2.75    0.28
  -6  10  -1    3.35    0.23
   6  10   1    2.71    0.24
  -6 -11   1    0.17    0.10
  -6 -11   1    0.06    0.10
  -6  11   1    0.21    0.10
  -6  11   1    0.08    0.12
  -6  11   1    0.11    0.08
  -5 -11   1    1.08    0.20
  -5 -11   1    1.03    0.20
  -5  11   1    1.61    0.28
  -5  11   1    1.24    0.18
  -5  11   1    0.99    0.20
  -4 -11   1    1.17    0.20
  -4 -11   1    1.33    0.22
  -4 -11   1    1.47    0.25
  -4 -11   1    1.28    0.21
  -4  11   1    0.99    0.21
  -4  11   1    1.05    0.16
  -3 -11   1    0.22    0.11
  -3 -11   1    0.32    0.14
  -3 -11   1    0.30    0.13
  -3 -11   1    0.42    0.13
   3 -11  -1    0.38    0.18
   3  11  -1    0.67    0.23
   3  11  -1    0.38    0.12
  -3  11   1    0.42    0.11
  -2 -11   1    1.07    0.19
  -2 -11   1    1.05    0.18
   2 -11  -1    0.95    0.22
   2  11  -1    1.46    0.30
   2  11  -1    1.09    0.21
   1 -11  -1   38.28    1.35
   1  11  -1   38.78    1.35
   0 -11  -1    0.04    0.10
   0 -11   1    0.04    0.12
   1 -11   1    0.12    0.14
  -2 -11  -1    0.32    0.12
  -2 -11  -1    0.33    0.16
  -2 -11  -1    0.14    0.11
   2 -11   1    0.25    0.16
   2 -11   1    0.55    0.13
  -2  11  -1    0.34    0.12
   2  11   1    0.54    0.20
   2  11   1    0.21    0.09
  -3 -11  -1    6.88    0.40
   3 -11   1    7.17    0.38
  -3 -11  -1    6.35    0.55
  -3 -11  -1    6.85    0.47
   3 -11   1    6.83    0.60
  -3 -11  -1    6.21    0.37
  -3 -11  -1    6.23    0.39
   3  11   1    5.59    0.58
  -3  11  -1    7.09    0.45
   3  11   1    6.83    0.38
  -3  11  -1    6.57    0.37
  -3  11  -1    6.80    0.36
  -4 -11  -1    0.07    0.14
  -4 -11  -1    0.14    0.12
  -4 -11  -1    0.17    0.13
  -4 -11  -1    0.14    0.10
  -4 -11  -1    0.19    0.12
  -4  11  -1    0.06    0.11
   4  11   1    0.18    0.12
  -4  11  -1    0.18    0.16
  -5 -11  -1    8.87    0.47
  -5 -11  -1    9.43    0.47
  -5 -11  -1    9.37    0.49
  -5 -11  -1    9.63    0.48
  -5  11  -1    9.12    0.44
   5  11   1    9.07    0.48
  -6 -11  -1    0.24    0.10
  -6 -11  -1    0.13    0.08
  -6  11  -1    0.01    0.07
  -6  11  -1    0.17    0.12
  -6  11  -1   -0.01    0.08
   6  11   1    0.04    0.09
  -6 -12   1   11.02    0.47
  -6 -12   1   11.89    0.47
  -6  12   1    8.76    0.38
  -6  12   1   11.02    0.43
   6  12  -1   10.46    0.46
  -6  12   1   11.10    0.49
  -6  12   1   11.21    0.40
  -5 -12   1    0.91    0.19
  -5 -12   1    0.50    0.15
  -5 -12   1    0.50    0.15
  -5  12   1    0.80    0.20
  -5  12   1    0.87    0.21
   5  12  -1    0.51    0.15
  -5  12   1    0.61    0.14
  -4 -12   1    2.98    0.28
  -4 -12   1    2.80    0.31
  -4 -12   1    2.63    0.33
  -4 -12   1    3.13    0.33
  -4  12   1    3.34    0.34
   4  12  -1    2.96    0.29
  -4  12   1    2.89    0.24
  -3 -12   1    0.10    0.11
  -3 -12   1    0.05    0.09
  -3 -12   1   -0.07    0.10
   3 -12  -1   -0.08    0.12
  -3 -12   1   -0.11    0.09
   3  12  -1   -0.01    0.15
  -3  12   1    0.08    0.09
   3  12  -1    0.03    0.09
  -2 -12   1   36.60    1.14
  -2 -12   1   35.42    1.02
  -2 -12   1   35.38    1.06
   2 -12  -1   35.43    1.32
  -2 -12   1   35.18    1.02
   2  12  -1   37.53    1.02
  -2  12   1   35.32    0.99
   2  12  -1   34.82    1.37
  -2  12   1   33.85    1.02
   1 -12  -1    7.83    0.56
  -1 -12   1    8.63    0.45
   1  12  -1    8.86    0.36
   0 -12   1  159.40    4.06
   0 -12  -1  157.72    4.10
   1 -12   1   92.58    2.28
  -1 -12  -1   94.21    2.40
   1 -12   1   94.46    2.70
   1  12   1   95.69    2.22
  -1  12  -1   93.46    2.31
   2 -12   1   45.57    1.26
  -2 -12  -1   44.73    1.27
  -2 -12  -1   44.07    1.24
   2 -12   1   44.22    1.67
  -2 -12  -1   45.53    1.41
  -2 -12  -1   45.12    1.37
  -2  12  -1   44.69    1.23
  -2  12  -1   43.90    1.21
   2  12   1   43.65    1.25
  -2  12  -1   46.00    1.35
   2  12   1   47.64    1.25
  -3 -12  -1   94.59    2.37
   3 -12   1   94.56    2.34
  -3 -12  -1   93.73    2.36
  -3 -12  -1   95.78    2.53
  -3  12  -1   93.58    2.46
  -3  12  -1   92.26    2.32
   3  12   1   97.63    2.35
  -3  12  -1   93.18    2.31
  -4 -12  -1    7.13    0.50
  -4 -12  -1    5.94    0.39
  -4 -12  -1    6.14    0.41
  -4 -12  -1    6.96    0.42
  -4  12  -1    6.02    0.44
  -4  12  -1    6.06    0.38
   4  12   1    6.92    0.40
  -5 -12  -1    2.55    0.26
  -5 -12  -1    2.62    0.30
  -5 -12  -1    2.87    0.27
  -5 -12  -1    2.95    0.27
  -5  12  -1    2.93    0.26
   5  12   1    2.80    0.30
  -6 -12  -1    0.65    0.14
  -6 -12  -1    1.05    0.16
  -6  12  -1    0.89    0.17
  -6  12  -1    1.01    0.18
   6  12   1    0.71    0.14
  -6  12  -1    0.98    0.14
  -6 -13   1    0.49    0.13
  -6 -13   1    0.77    0.14
   6  13  -1    0.71    0.15
  -6  13   1    0.65    0.12
  -5 -13   1    2.30    0.27
  -5 -13   1    2.34    0.28
  -5 -13   1    1.96    0.25
  -5  13   1    2.17    0.21
  -5  13   1    2.27    0.28
   5  13  -1    2.08    0.25
  -4 -13   1    1.03    0.21
  -4 -13   1    1.25    0.21
  -4 -13   1    1.12    0.23
  -4 -13   1    1.58    0.28
   4  13  -1    0.97    0.19
  -4  13   1    1.14    0.18
  -3 -13   1   67.49    1.81
  -3 -13   1   70.44    1.94
  -3 -13   1   69.65    1.84
  -3 -13   1   67.79    1.80
  -3  13   1   69.88    1.75
   3  13  -1   67.14    1.78
  -2 -13   1   47.50    1.30
  -2 -13   1   44.20    1.27
  -2 -13   1   50.32    1.36
   2 -13  -1   46.35    1.68
  -2 -13   1   47.15    1.42
  -2  13   1   45.59    1.27
   2  13  -1   47.29    1.38
   2  13  -1   48.17    1.28
   2  13  -1   44.69    1.70
  -2  13   1   46.62    1.27
  -1 -13   1   71.64    1.75
  -1 -13   1   71.79    1.82
   1 -13  -1   70.25    2.22
  -1 -13   1   70.39    1.84
  -1 -13   1   75.61    1.97
   1  13  -1   73.68    1.78
  -1  13   1   70.84    1.81
  -1  13   1   74.07    1.82
   1  13  -1   74.58    1.83
   1  13  -1   72.41    1.90
   0 -13   1   86.82    2.07
   0 -13   1   88.67    2.23
   0 -13   1   85.75    2.13
   0 -13  -1   77.05    2.52
   0  13  -1   84.47    2.17
   0  13   1   89.12    2.11
   0  13  -1   86.66    2.09
   0  13   1   86.57    2.19
   0  13  -1   85.11    2.00
   1 -13   1    2.05    0.24
  -1 -13  -1    1.98    0.24
  -1 -13  -1    2.26    0.31
   1 -13   1    2.64    0.45
  -1  13  -1    1.72    0.22
  -1  13  -1    1.94    0.25
  -1  13  -1    2.31    0.25
  -1  13  -1    2.26    0.30
   1  13   1    2.05    0.21
   1  13   1    2.45    0.25
  -2 -13  -1    0.72    0.17
  -2 -13  -1    0.81    0.22
  -2 -13  -1    0.80    0.21
   2 -13   1    0.80    0.16
   2 -13   1    0.82    0.28
  -2  13  -1    0.78    0.16
  -2  13  -1    1.40    0.25
   2  13   1    1.23    0.21
  -2  13  -1    1.99    0.25
   2  13   1    0.79    0.16
  -3 -13  -1   19.40    0.73
  -3 -13  -1   20.83    0.88
   3 -13   1   20.20    0.73
  -3 -13  -1   19.61    0.76
   3  13   1   19.35    0.72
  -3  13  -1   19.57    0.71
  -3  13  -1   18.90    0.71
  -3  13  -1   20.51    0.82
  -4 -13  -1   62.41    1.71
  -4 -13  -1   62.90    1.74
  -4 -13  -1   64.60    1.87
  -4  13  -1   61.93    1.68
  -4  13  -1   63.87    1.79
   4  13   1   61.30    1.69
  -5 -13  -1   12.51    0.52
  -5 -13  -1   11.65    0.53
  -5 -13  -1   11.15    0.52
  -5 -13  -1   11.43    0.52
   5  13   1   12.57    0.53
  -5  13  -1   12.60    0.51
  -6 -13  -1   16.47    0.54
  -6  13  -1   16.15    0.51
  -6 -14   1   12.49    0.46
  -6  14   1   11.46    0.45
   6  14  -1   11.70    0.51
  -5 -14   1   15.86    0.64
  -5 -14   1   17.19    0.64
  -5 -14   1   15.82    0.63
  -5  14   1   17.09    0.76
  -5  14   1   17.02    0.58
   5  14  -1   16.79    0.64
  -4 -14   1   31.60    1.10
  -4 -14   1   31.00    1.00
  -4 -14   1   30.33    1.00
  -4 -14   1   30.23    1.02
  -4  14   1   31.74    0.94
   4  14  -1   28.82    0.97
  -3 -14   1    8.84    0.46
   3 -14  -1    9.11    0.46
  -3 -14   1    8.32    0.45
  -3 -14   1    8.99    0.54
   3  14  -1    7.85    0.43
   3  14  -1    9.11    0.53
  -3  14   1    9.40    0.44
  -2 -14   1    0.57    0.15
  -2 -14   1    0.22    0.15
  -2 -14   1    0.40    0.17
  -2 -14   1    0.44    0.15
  -2  14   1    0.39    0.13
   2  14  -1    0.22    0.11
  -2  14   1    0.20    0.12
   2  14  -1    0.32    0.16
  -1 -14   1    3.98    0.25
  -1 -14   1    4.24    0.36
  -1 -14   1    3.98    0.28
  -1 -14   1    4.20    0.31
   1 -14  -1    4.02    0.46
   1  14  -1    3.98    0.35
  -1  14   1    4.44    0.30
   1  14  -1    4.59    0.27
   1  14  -1    4.46    0.30
  -1  14   1    4.13    0.30
   0 -14   1    0.55    0.17
   0 -14   1    0.30    0.11
   0 -14  -1    0.62    0.15
   0 -14   1    0.49    0.14
   0  14  -1    0.34    0.09
   0  14   1    0.42    0.13
   0  14   1    0.68    0.19
   0  14  -1    0.28    0.12
   0  14  -1    0.36    0.17
   0  14   1    0.44    0.14
   1 -14   1   22.26    0.77
  -1 -14  -1   21.45    0.74
   1 -14   1   20.08    1.07
  -1 -14  -1   21.57    0.87
   1  14   1   20.54    0.66
  -1  14  -1   21.09    0.73
  -1  14  -1   22.15    0.70
  -1  14  -1   20.88    0.72
  -1  14  -1   21.28    0.69
  -1  14  -1   20.71    0.81
   1  14   1   21.24    0.75
  -2 -14  -1    8.63    0.51
  -2 -14  -1    7.83    0.44
   2 -14   1    8.11    0.44
  -2 -14  -1    8.48    0.54
  -2  14  -1    7.65    0.42
  -2  14  -1    7.77    0.48
  -2  14  -1    8.14    0.42
   2  14   1    8.20    0.40
   2  14   1    8.02    0.44
  -3 -14  -1    9.74    0.49
  -3 -14  -1   10.45    0.52
  -3 -14  -1   10.90    0.62
   3 -14   1    9.59    0.46
   3 -14   1   10.24    0.50
  -3  14  -1    9.65    0.48
   3  14   1    9.56    0.47
  -3  14  -1    9.58    0.54
  -3  14  -1    9.75    0.48
  -4 -14  -1    0.11    0.12
  -4 -14  -1    0.15    0.14
  -4 -14  -1    0.11    0.11
  -4  14  -1    0.15    0.11
   4  14   1    0.14    0.10
  -5 -14  -1    0.39    0.14
  -5 -14  -1    0.54    0.13
  -5 -14  -1    0.64    0.15
  -5  14  -1    0.45    0.13
   5  14   1    0.54    0.14
  -5 -15   1    1.66    0.23
  -5 -15   1    1.72    0.22
  -5 -15   1    1.67    0.21
   5  15  -1    1.94    0.23
  -5  15   1    1.90    0.28
   5  15  -1    1.67    0.25
  -5  15   1    2.08    0.22
  -4 -15   1    9.70    0.49
  -4 -15   1   10.00    0.50
  -4 -15   1    9.98    0.56
   4  15  -1    9.59    0.55
   4  15  -1    9.70    0.48
  -4  15   1   10.42    0.46
  -3 -15   1    2.01    0.33
  -3 -15   1    1.66    0.26
   3 -15  -1    2.16    0.27
  -3 -15   1    2.19    0.29
  -3  15   1    2.37    0.27
   3  15  -1    1.90    0.25
  -3  15   1    2.03    0.26
   3  15  -1    1.69    0.31
  -2 -15   1    1.31    0.22
  -2 -15   1    1.78    0.26
  -2 -15   1    0.82    0.21
  -2 -15   1    1.25    0.21
  -2  15   1    1.87    0.25
  -2  15   1    1.22    0.20
   2  15  -1    0.92    0.21
   2  15  -1    1.57    0.21
  -1 -15   1   12.06    0.62
  -1 -15   1   11.48    0.46
  -1 -15   1   11.53    0.52
  -1 -15   1   11.41    0.54
  -1  15   1   11.86    0.52
  -1  15   1   12.65    0.54
   1  15  -1   11.95    0.52
   1  15  -1   11.48    0.58
   1  15  -1   11.58    0.47
   0 -15   1    8.02    0.50
   0 -15   1    8.42    0.46
   0 -15   1    7.87    0.41
   0  15   1    8.29    0.44
   0  15  -1    7.88    0.47
   0  15   1    8.09    0.47
   0  15  -1    8.77    0.44
   0  15   1    8.38    0.43
   0  15  -1    8.87    0.57
   1 -15   1    0.79    0.17
  -1 -15  -1    1.00    0.19
  -1 -15  -1    0.76    0.23
  -1  15  -1    1.41    0.22
  -1  15  -1    1.00    0.23
   1  15   1    1.22    0.16
  -1  15  -1    1.24    0.21
   1  15   1    1.02    0.20
  -2 -15  -1   10.56    0.57
  -2 -15  -1   11.07    0.54
   2 -15   1   10.58    0.47
  -2 -15  -1   10.35    0.62
   2 -15   1   11.21    0.53
   2  15   1    9.89    0.51
  -2  15  -1   10.81    0.57
   2  15   1   10.73    0.47
  -2  15  -1   11.08    0.51
  -2  15  -1   10.30    0.49
  -3 -15  -1    1.56    0.25
   3 -15   1    2.30    0.26
   3 -15   1    1.85    0.24
  -3 -15  -1    1.50    0.29
   3  15   1    1.92    0.24
  -3  15  -1    2.28    0.28
  -3  15  -1    2.70    0.35
  -3  15  -1    2.63    0.29
  -4 -15  -1    1.41    0.22
   4 -15   1    1.27    0.19
  -4 -15  -1    1.43    0.26
  -4 -15  -1    1.10    0.20
   4  15   1    1.37    0.20
  -4  15  -1    1.47    0.22
  -5 -15  -1    7.47    0.35
  -5 -15  -1    7.55    0.37
  -5 -15  -1    6.76    0.34
  -5  15  -1    7.78    0.36
   5  15   1    7.16    0.36
  -5 -16   1   14.47    0.54
  -5 -16   1   13.92    0.54
   5  16  -1   14.87    0.62
  -5  16   1   14.44    0.64
  -5  16   1   14.20    0.50
   5  16  -1   14.61    0.53
  -4 -16   1   40.91    1.32
  -4 -16   1   41.13    1.24
  -4 -16   1   43.34    1.24
   4  16  -1   42.66    1.33
  -4  16   1   41.45    1.18
   4  16  -1   43.73    1.22
   3 -16  -1   51.36    1.47
  -3 -16   1   51.81    1.61
  -3 -16   1   52.13    1.48
  -3 -16   1   49.54    1.44
   3  16  -1   51.91    1.56
  -3  16   1   51.29    1.42
   3  16  -1   51.40    1.42
  -3  16   1   49.18    1.38
  -2 -16   1    5.31    0.44
   2 -16  -1    5.79    0.40
  -2 -16   1    5.60    0.33
  -2 -16   1    6.22    0.36
  -2 -16   1    5.81    0.39
   2  16  -1    5.20    0.43
   2  16  -1    5.52    0.34
  -2  16   1    4.95    0.35
  -2  16   1    5.43    0.36
  -1 -16   1   38.12    1.06
  -1 -16   1   39.38    1.16
  -1 -16   1   38.37    1.20
  -1 -16   1   40.76    1.34
   1  16  -1   37.32    1.24
   1  16  -1   38.94    1.07
  -1  16   1   40.08    1.19
  -1  16   1   37.43    1.15
   1  16  -1   39.11    1.16
   0 -16   1    5.72    0.35
   0 -16   1    6.15    0.45
   0 -16   1    5.88    0.34
   0 -16   1    6.16    0.40
   0  16   1    6.52    0.41
   0  16   1    5.75    0.38
   0  16  -1    6.04    0.47
   0  16  -1    5.74    0.44
   0  16  -1    5.79    0.37
   0  16   1    5.90    0.39
   1 -16   1    0.17    0.12
  -1 -16  -1    0.13    0.18
  -1 -16  -1    0.08    0.12
  -1 -16  -1    0.34    0.13
   1 -16   1    0.21    0.13
  -1  16  -1    0.26    0.17
   1  16   1    0.12    0.14
  -1  16  -1    0.41    0.15
   1  16   1    0.01    0.09
  -1  16  -1    0.26    0.12
  -2 -16  -1    0.30    0.18
  -2 -16  -1    0.47    0.16
   2 -16   1    0.14    0.12
   2 -16   1    0.45    0.14
  -2 -16  -1    0.34    0.17
   2  16   1    0.27    0.11
   2  16   1    0.40    0.16
  -2  16  -1    0.35    0.14
  -2  16  -1    0.39    0.14
  -2  16  -1    0.22    0.14
   3 -16   1    4.35    0.34
   3 -16   1    4.42    0.31
  -3 -16  -1    4.56    0.36
  -3 -16  -1    4.08    0.40
  -3  16  -1    4.41    0.33
   3  16   1    4.31    0.30
  -3  16  -1    4.36    0.33
  -4 -16  -1    3.49    0.29
   4 -16   1    3.38    0.26
  -4 -16  -1    2.26    0.30
   4  16   1    3.12    0.25
  -4  16  -1    3.57    0.28
  -5 -16  -1    2.48    0.24
   5  16   1    1.64    0.18
  -5  16  -1    2.49    0.21
  -5 -17   1    0.14    0.10
  -5 -17   1    0.22    0.12
   5  17  -1    0.18    0.10
  -5  17   1    0.02    0.08
   5  17  -1    0.03    0.12
  -4 -17   1    1.08    0.19
  -4 -17   1    0.78    0.19
  -4 -17   1    0.64    0.17
   4  17  -1    0.85    0.20
   4  17  -1    0.86    0.16
  -4  17   1    0.71    0.15
  -3 -17   1   24.92    0.98
  -3 -17   1   23.76    0.85
   3 -17  -1   24.30    0.86
  -3  17   1   23.08    0.79
   3  17  -1   23.26    0.91
  -3  17   1   24.01    0.82
   3  17  -1   24.78    0.81
  -2 -17   1   31.41    1.00
  -2 -17   1   29.18    1.12
   2 -17  -1   28.69    1.01
   2  17  -1   27.36    1.02
   2  17  -1   28.04    0.89
  -2  17   1   28.77    0.94
  -2  17   1   29.65    0.96
  -1 -17   1   31.94    1.43
  -1 -17   1   34.65    1.14
  -1 -17   1   37.82    1.29
   1 -17  -1   38.22    1.20
  -1 -17   1   36.67    1.12
   1  17  -1   36.40    1.20
   1  17  -1   36.28    0.99
  -1  17   1   37.43    1.14
   1  17  -1   36.41    1.11
  -1  17   1   34.79    1.10
   0 -17   1   44.68    1.28
   0 -17   1   44.43    1.27
   0 -17  -1   44.09    1.37
   0 -17   1   46.51    1.39
   0  17  -1   47.58    1.39
   0  17   1   46.03    1.35
   0  17  -1   45.63    1.41
   0  17  -1   46.79    1.33
  -1 -17  -1    0.10    0.11
   1 -17   1    0.52    0.15
  -1 -17  -1    0.29    0.17
   1 -17   1    0.30    0.14
  -1  17  -1    0.30    0.16
   1  17   1    0.28    0.13
   1  17   1    0.40    0.19
  -1  17  -1    0.76    0.17
  -1  17  -1    0.36    0.15
  -2 -17  -1   -0.12    0.12
   2 -17   1   -0.09    0.08
   2 -17   1    0.10    0.11
  -2 -17  -1    0.04    0.11
  -2 -17  -1    0.11    0.12
   2  17   1    0.02    0.12
  -2  17  -1   -0.04    0.09
  -2  17  -1    0.13    0.11
   2  17   1    0.07    0.08
  -3 -17  -1    5.30    0.37
  -3 -17  -1    4.47    0.40
   3 -17   1    4.50    0.34
   3 -17   1    4.92    0.32
  -3  17  -1    4.85    0.33
   3  17   1    5.18    0.30
  -3  17  -1    4.71    0.33
   4 -17   1   16.45    0.58
  -4 -17  -1   15.03    0.66
  -4 -17  -1   16.94    0.62
  -4  17  -1   15.79    0.59
   4  17   1   15.46    0.54
   4 -18  -1    8.21    0.38
  -4 -18   1    9.28    0.43
  -4 -18   1    8.64    0.46
   4  18  -1    8.02    0.44
   4  18  -1    8.11    0.37
  -4  18   1    8.36    0.39
  -3 -18   1    5.45    0.37
  -3 -18   1    5.76    0.44
   3 -18  -1    5.69    0.37
   3  18  -1    5.80    0.32
   3  18  -1    5.02    0.38
  -3  18   1    5.54    0.33
  -3  18   1    5.12    0.34
   2 -18  -1    1.02    0.21
  -2 -18   1    1.19    0.22
  -2 -18   1    1.34    0.30
   2  18  -1    1.09    0.17
  -2  18   1    1.14    0.20
   2  18  -1    1.26    0.25
  -2  18   1    1.27    0.22
  -1 -18   1    0.27    0.15
  -1 -18   1    0.12    0.15
  -1 -18   1    0.24    0.14
   1 -18  -1    0.28    0.14
  -1 -18   1    0.26    0.18
   1  18  -1    0.11    0.16
  -1  18   1    0.19    0.13
  -1  18   1    0.39    0.14
   1  18  -1    0.12    0.17
   1  18  -1    0.09    0.13
   0 -18   1    1.59    0.25
   0 -18   1    1.57    0.21
   0 -18  -1    1.79    0.27
   0  18  -1    1.92    0.30
   0  18   1    1.42    0.24
   0  18  -1    2.15    0.25
   0  18  -1    1.32    0.23
   0  18  -1    2.02    0.24
   1 -18   1    0.44    0.16
  -1 -18  -1    0.47    0.20
  -1 -18  -1    0.62    0.13
  -1 -18  -1    0.55    0.16
   1 -18   1    0.54    0.14
   1  18   1    0.41    0.16
   1  18   1    0.66    0.19
  -1  18  -1    0.43    0.15
  -2 -18  -1    2.61    0.21
  -2 -18  -1    2.19    0.20
  -2 -18  -1    2.37    0.37
   2 -18   1    2.93    0.32
   2 -18   1    2.71    0.28
  -2 -18  -1    2.60    0.30
   2  18   1    2.00    0.49
  -2  18  -1    2.25    0.26
  -2  18  -1    2.50    0.29
   3 -18   1    0.21    0.10
  -3 -18  -1    0.29    0.13
   3 -18   1    0.13    0.11
  -3 -18  -1    0.15    0.13
  -3  18  -1    0.03    0.10
   3  18   1    0.24    0.08
  -3  18  -1    0.08    0.11
  -4 -18  -1    0.65    0.16
   4 -18   1    0.58    0.13
  -4 -18  -1    0.58    0.14
  -4  18  -1    0.83    0.15
   4  18   1    0.70    0.11
  -4  18  -1    0.57    0.14
  -4 -19   1    1.39    0.22
  -4 -19   1    0.95    0.16
   4 -19  -1    1.75    0.19
   4  19  -1    1.47    0.16
  -4  19   1    1.36    0.18
   3 -19  -1   22.83    0.78
  -3 -19   1   22.85    0.78
   3 -19  -1   23.56    0.74
  -3 -19   1   22.19    0.86
   3  19  -1   21.61    0.66
  -3  19   1   22.70    0.74
  -3  19   1   22.78    0.74
   3  19  -1   19.33    0.78
  -2 -19   1    3.68    0.31
  -2 -19   1    3.97    0.38
   2 -19  -1    3.91    0.34
  -2  19   1    4.31    0.32
  -2  19   1    4.08    0.30
   1 -19  -1    0.05    0.11
  -1 -19   1    0.24    0.13
  -1 -19   1    0.01    0.13
  -1 -19   1    0.22    0.15
   1  19  -1    0.22    0.13
  -1  19   1   -0.05    0.10
   1  19  -1    0.13    0.15
  -1  19   1   -0.06    0.09
   0 -19   1    3.47    0.36
   0 -19   1    4.00    0.27
   0 -19  -1    3.84    0.33
   0  19   1    3.91    0.32
   0  19  -1    4.57    0.33
   1 -19   1    3.53    0.36
  -1 -19  -1    2.67    0.35
   1 -19   1    2.80    0.28
  -1 -19  -1    2.97    0.39
  -1  19  -1    2.79    0.30
   1  19   1    3.02    0.31
  -2 -19  -1    1.02    0.18
  -2 -19  -1    0.73    0.21
   2 -19   1    1.01    0.20
   2 -19   1    1.10    0.18
  -2  19  -1    0.84    0.18
  -2  19  -1    1.10    0.19
  -3 -19  -1    4.83    0.31
  -3 -19  -1    4.50    0.37
   3 -19   1    4.48    0.28
   3 -19   1    4.95    0.32
  -3  19  -1    4.80    0.31
  -3  19  -1    4.81    0.31
   3  19   1    4.25    0.38
  -4 -19  -1   14.99    0.51
  -4  19  -1   14.42    0.50
   3 -20  -1    0.25    0.10
  -3 -20   1    0.09    0.12
   3 -20  -1    0.10    0.11
  -3 -20   1    0.13    0.11
  -3  20   1    0.25    0.11
  -3  20   1    0.37    0.11
   2 -20  -1    4.72    0.31
  -2 -20   1    4.78    0.40
   2 -20  -1    5.17    0.36
  -2 -20   1    4.96    0.33
   2  20  -1    4.17    0.38
  -2  20   1    4.79    0.31
  -2  20   1    4.73    0.32
   1 -20  -1    7.19    0.37
   1 -20  -1    6.54    0.42
  -1 -20   1    7.13    0.37
  -1 -20   1    6.96    0.37
  -1 -20   1    6.34    0.47
  -1 -20   1    5.98    0.37
   1  20  -1    6.93    0.35
   1  20  -1    6.85    0.35
   1  20  -1    6.92    0.39
  -1  20   1    6.43    0.39
   0 -20  -1   46.20    1.23
   0 -20   1   45.06    1.37
   0 -20  -1   46.02    1.35
   0  20   1   47.81    1.33
   0  20  -1   47.30    1.32
   1 -20   1   35.42    1.00
  -1 -20  -1   35.91    1.11
   1 -20   1   34.90    1.12
  -1 -20  -1   31.15    1.19
  -1  20  -1   36.93    1.08
   1  20   1   36.08    1.06
   2 -20   1   19.42    0.73
   2 -20   1   19.41    0.66
  -2 -20  -1   20.21    0.66
  -2 -20  -1   18.77    0.81
  -2  20  -1   20.61    0.70
   2  20   1   19.45    0.60
   2  20   1   19.79    0.59
  -3 -20  -1   27.92    0.94
   3 -20   1   28.68    0.81
  -3 -20  -1   27.94    0.81
   3 -20   1   27.75    0.84
   3  20   1   26.07    0.81
  -3  20  -1   27.00    0.81
  -3  20  -1   28.20    0.83
   3 -21  -1    7.90    0.39
  -3 -21   1    8.47    0.37
   3 -21  -1    8.07    0.35
  -3  21   1    7.84    0.35
   2 -21  -1   13.94    0.56
   2 -21  -1   13.29    0.50
  -2 -21   1   13.12    0.62
  -2 -21   1   13.01    0.50
  -2  21   1   11.95    0.48
  -2  21   1   13.13    0.51
   2  21  -1   12.99    0.45
   2  21  -1   12.70    0.45
  -1 -21   1   14.40    0.69
   1 -21  -1   14.52    0.61
   1 -21  -1   15.20    0.54
  -1  21   1   15.17    0.58
   0 -21   1    9.67    0.49
   0 -21  -1   10.23    0.48
   0 -21   1    9.32    0.52
   0  21  -1   10.18    0.45
   0  21   1    9.65    0.46
   1 -21   1    0.39    0.14
   1 -21   1    0.44    0.11
  -1 -21  -1    0.62    0.13
  -1 -21  -1    0.54    0.19
  -1 -21  -1    0.54    0.12
   1  21   1    0.54    0.14
  -1  21  -1    0.49    0.15
   2 -21   1    2.08    0.24
  -2 -21  -1    2.04    0.29
   2 -21   1    1.96    0.19
  -2  21  -1    1.87    0.23
   2 -22  -1    3.14    0.25
   2 -22  -1    2.95    0.20
  -2  22   1    3.16    0.23
  -1 -22   1    9.76    0.73
   1 -22  -1   10.88    0.47
   1 -22  -1   10.33    0.38
  -1  22   1   11.16    0.45
   0 -22   1    2.20    0.24
   0 -22   1    2.40    0.23
   0 -22  -1    2.07    0.26
   0 -22   1    2.58    0.21
   0 -22  -1    2.73    0.26
   0  22   1    2.92    0.23
   0  22  -1    2.83    0.23
   1 -22   1    5.95    0.35
  -1  22  -1    5.78    0.32
  -2  22  -1   11.22    0.59
  -7   0   2   14.30    0.64
  -6   0   2    4.07    0.44
  -6   0   2    5.11    0.25
  -6   0   2    4.76    0.57
  -6   0   2    4.38    0.24
  -6   0   2    5.34    0.46
  -5   0   2    0.25    0.09
  -5   0   2    0.48    0.17
  -5   0   2    0.14    0.15
  -5   0   2    0.23    0.17
  -5   0   2    0.25    0.08
  -5   0   2    0.40    0.12
  -4   0   2    9.58    0.35
   4   0  -2    9.80    0.33
   3   0  -2   57.37    1.31
   2   0  -2  181.87    4.08
   2   0  -2  194.51    4.05
   1   0  -2   10.25    0.35
   1   0  -2    9.43    0.37
   0   0  -2  302.26    6.69
   0   0   2  306.21    6.67
  -1   0  -2  943.43   22.03
   1   0   2 1000.00   21.55
   2   0   2  486.14   10.79
   3   0   2  470.55   10.66
  -4   0  -2  263.28    6.04
  -4   0  -2  268.89    6.00
   4   0   2  275.21    6.58
  -5   0  -2   46.61    1.34
  -6   0  -2   15.35    0.60
  -7   0  -2    0.37    0.13
  -7   0  -2    0.31    0.10
  -7  -1   2    1.23    0.37
  -7  -1   2    1.08    0.26
  -7   1   2    1.16    0.25
  -6  -1   2   12.93    0.48
  -6  -1   2   13.84    0.47
  -6  -1   2   11.87    0.95
  -6  -1   2   14.15    0.53
  -6  -1   2   13.78    0.71
  -6  -1   2   12.34    0.63
  -6   1   2   14.44    0.76
  -6   1   2   13.87    0.67
  -6   1   2   12.99    0.89
  -6   1   2   13.15    0.44
  -5  -1   2    2.93    0.36
  -5  -1   2    2.39    0.21
  -5  -1   2    2.57    0.24
  -5  -1   2    3.00    0.39
  -5  -1   2    2.40    0.17
  -5  -1   2    2.36    0.31
  -5  -1   2    2.56    0.29
  -5   1   2    2.51    0.34
  -5   1   2    3.15    0.36
  -5   1   2    2.50    0.18
  -5   1   2    2.55    0.34
  -5   1   2    2.76    0.21
  -4  -1   2    1.22    0.13
  -4   1   2    1.02    0.12
   4   1  -2    0.96    0.13
   3   1  -2   45.75    1.12
   2  -1  -2  242.98    5.29
   2  -1  -2  255.08    5.27
   2   1  -2  256.14    5.33
   2   1  -2  234.51    5.33
   1  -1  -2    0.29    0.09
   1  -1  -2    0.16    0.08
   1   1  -2    0.57    0.11
   0  -1  -2  333.79    7.24
   0  -1   2  313.58    7.19
   0   1   2  328.04    7.17
   0   1  -2  339.41    7.21
   1  -1   2   14.84    0.60
  -1   1  -2   13.43    0.58
   1   1   2   12.81    0.58
   2   1   2    5.44    0.44
   3  -1   2    1.44    0.31
   3   1   2    1.17    0.29
   4  -1   2   60.79    2.04
  -4  -1  -2   61.73    1.59
  -4  -1  -2   59.54    1.64
  -4   1  -2   58.26    1.54
  -4   1  -2   60.20    1.61
   4   1   2   58.90    2.02
  -5  -1  -2   22.65    0.82
  -5   1  -2   24.04    0.83
  -6  -1  -2   20.57    0.72
  -6  -1  -2   20.90    0.73
  -6   1  -2   20.45    0.73
  -7  -1  -2   34.95    0.93
  -7   1  -2   35.49    0.92
  -7  -2   2    1.39    0.28
  -7   2   2    1.34    0.24
  -6  -2   2    0.27    0.17
  -6  -2   2    0.10    0.19
  -6  -2   2    0.05    0.15
  -6  -2   2    0.19    0.10
  -6  -2   2    0.12    0.11
  -6  -2   2    0.08    0.07
  -6   2   2    0.06    0.17
  -6   2   2    0.05    0.18
  -6   2   2    0.12    0.19
  -5  -2   2    0.15    0.10
  -5  -2   2    0.00    0.09
  -5  -2   2    0.00    0.13
  -5  -2   2    0.00    0.13
  -5  -2   2    0.00    0.12
  -5  -2   2   -0.01    0.05
  -5  -2   2   -0.01    0.13
  -5   2   2    0.01    0.15
  -5   2   2    0.02    0.06
  -5   2   2   -0.03    0.06
  -5   2   2    0.18    0.17
  -5   2   2    0.14    0.18
  -4  -2   2    0.04    0.07
   4   2  -2    0.03    0.07
  -4   2   2    0.06    0.05
   3   2  -2    5.10    0.26
   2  -2  -2    0.68    0.08
   2  -2  -2    0.65    0.09
   2   2  -2    0.59    0.12
   1  -2  -2   -0.34    0.11
   1  -2  -2   -0.46    0.09
   1   2  -2   -0.03    0.12
   0  -2   2   -0.30    0.13
   0  -2  -2   -0.29    0.14
   0   2   2   -0.24    0.12
   0   2  -2   -0.45    0.11
   1  -2   2   22.38    0.79
  -1  -2  -2   21.80    0.81
  -1   2  -2   22.40    0.79
   1   2   2   21.76    0.79
   2  -2   2    0.20    0.14
   2   2   2    0.26    0.15
   3  -2   2   16.95    0.82
   3   2   2   14.74    0.81
  -4  -2  -2    4.32    0.30
  -4  -2  -2    4.60    0.34
   4  -2   2    4.77    0.50
  -4   2  -2    4.92    0.33
  -4   2  -2    5.49    0.31
   4   2   2    5.12    0.53
  -5  -2  -2    1.98    0.26
  -5  -2  -2    2.39    0.28
  -5   2  -2    2.01    0.26
  -6  -2  -2    3.52    0.28
  -6  -2  -2    3.94    0.29
  -6   2  -2    3.57    0.27
  -7  -2  -2    0.63    0.12
  -7   2  -2    0.54    0.11
  -7  -3   2   26.08    0.96
  -7  -3   2   25.27    0.70
  -7   3   2   26.39    0.94
  -6  -3   2   83.11    2.24
  -6  -3   2   80.86    1.93
  -6  -3   2   81.01    2.13
  -6  -3   2   77.17    2.05
  -6   3   2   77.34    2.18
  -6   3   2   80.97    2.32
  -6   3   2   80.81    2.59
  -5  -3   2    5.19    0.38
  -5  -3   2    5.03    0.37
  -5  -3   2    4.85    0.26
  -5  -3   2    4.83    0.39
  -5  -3   2    5.55    0.41
  -5  -3   2    5.34    0.59
   5   3  -2    4.69    0.33
  -5   3   2    4.86    0.38
  -5   3   2    5.19    0.27
  -5   3   2    5.11    0.41
  -5   3   2    4.98    0.42
  -4  -3   2   52.56    1.55
  -4  -3   2   52.69    1.44
  -4  -3   2   50.58    1.27
   4   3  -2   55.63    1.49
  -4   3   2   58.24    1.33
  -4   3   2   51.97    1.25
   3   3  -2   17.87    0.62
   2  -3  -2  171.23    3.78
   2  -3  -2  171.31    3.81
   2   3  -2  178.92    3.89
   1  -3  -2    7.91    0.37
   1   3  -2    7.60    0.35
   0  -3  -2  421.17    9.38
   0  -3   2  418.73    9.32
   0   3   2  431.58    9.29
   0   3  -2  444.18    9.33
  -1  -3  -2   44.80    1.36
  -1  -3  -2   45.67    1.37
   1  -3   2   48.51    1.37
   1   3   2   47.61    1.34
  -1   3  -2   47.09    1.35
   2  -3   2   48.97    1.52
   2   3   2   50.07    1.53
   3  -3   2   64.88    1.95
   3   3   2   61.89    1.99
   4  -3   2   17.02    0.93
  -4  -3  -2   17.98    0.71
  -4  -3  -2   16.99    0.64
  -4  -3  -2   15.02    0.62
   4   3   2   16.22    0.95
  -4   3  -2   17.70    0.67
  -4   3  -2   16.55    0.60
  -5  -3  -2    0.24    0.13
  -5  -3  -2    0.26    0.12
  -5   3  -2    0.35    0.13
  -5   3  -2    0.68    0.17
  -6  -3  -2    2.77    0.25
  -6  -3  -2    2.83    0.25
  -6   3  -2    2.73    0.25
  -7  -3  -2   10.99    0.39
  -7   3  -2   11.49    0.39
  -7  -4   2    0.11    0.07
  -7   4   2    0.13    0.15
  -6  -4   2   72.73    1.80
  -6  -4   2   74.47    2.06
  -6  -4   2   75.25    2.04
  -6   4   2   70.68    2.03
  -6   4   2   74.59    2.20
  -6   4   2   71.73    2.46
  -5  -4   2   71.44    1.74
  -5  -4   2   72.63    1.99
  -5  -4   2   71.89    1.98
  -5  -4   2   70.09    2.58
  -5  -4   2   70.55    1.96
  -5   4   2   70.20    2.05
  -5   4   2   74.12    1.69
  -5   4   2   73.04    2.06
  -5   4   2   69.86    1.78
  -5   4   2   72.72    1.95
  -4  -4   2  140.97    3.78
  -4  -4   2  140.43    3.36
  -4  -4   2  135.52    3.14
  -4   4   2  142.79    3.14
  -4   4   2  132.87    3.69
   4   4  -2  147.79    3.42
  -4   4   2  147.97    3.56
  -3  -4   2  498.24   10.84
   3  -4  -2  483.76   10.46
   3   4  -2  489.40   10.66
   2  -4  -2  264.37    5.77
  -2  -4   2  258.33    6.13
  -2  -4   2  271.38    6.03
   2   4  -2  265.96    5.86
  -1  -4   2  375.76    8.73
   1  -4  -2  409.82    8.76
   1  -4  -2  414.56    8.77
   1   4  -2  408.71    8.74
   0  -4  -2  196.59    4.53
   0  -4   2  196.26    4.49
   0  -4  -2  200.31    4.53
   0   4  -2  204.31    4.49
   0   4   2  188.13    4.43
   1  -4   2   42.66    1.23
  -1  -4  -2   40.28    1.27
   1   4   2   41.58    1.23
  -1   4  -2   37.89    1.23
   2  -4   2    1.79    0.27
   2   4   2    1.74    0.31
   3  -4   2   39.27    1.41
  -3  -4  -2   36.51    1.15
   3   4   2   38.85    1.44
  -4  -4  -2   44.69    1.27
   4  -4   2   45.05    1.67
  -4  -4  -2   45.70    1.35
  -4  -4  -2   41.74    1.25
  -4   4  -2   44.72    1.22
   4   4   2   41.95    1.70
  -4   4  -2   44.07    1.28
  -4   4  -2   45.07    1.37
  -5  -4  -2   -0.07    0.10
  -5  -4  -2    0.10    0.11
  -5  -4  -2    0.36    0.15
  -5  -4  -2    0.10    0.10
  -5   4  -2    0.14    0.12
  -6  -4  -2    0.19    0.11
  -6  -4  -2    0.23    0.11
  -6   4  -2    0.24    0.11
  -7  -4  -2    8.90    0.34
  -7  -5   2    1.96    0.16
  -7   5   2    2.30    0.31
  -6  -5   2    8.99    0.53
  -6  -5   2    8.99    0.54
  -6  -5   2    8.68    0.40
  -6  -5   2    8.38    0.40
  -6   5   2    9.20    0.55
  -6   5   2    8.17    0.71
  -6   5   2    8.04    0.62
  -5  -5   2    0.96    0.15
  -5  -5   2    0.47    0.11
  -5  -5   2    0.74    0.19
  -5  -5   2    0.56    0.18
  -5   5   2    0.69    0.12
  -5   5   2    0.59    0.20
  -5   5   2    0.74    0.24
  -5   5   2    0.38    0.22
  -5   5   2    0.61    0.13
  -4  -5   2    0.44    0.10
  -4  -5   2    0.48    0.15
  -4  -5   2    0.51    0.16
  -4  -5   2    0.52    0.23
   4  -5  -2    0.50    0.11
  -4   5   2    0.57    0.11
  -4   5   2    0.43    0.18
   4   5  -2    0.65    0.18
  -4   5   2    0.39    0.17
   3  -5  -2   22.28    0.66
  -3  -5   2   22.55    1.00
   3   5  -2   21.80    0.79
   2  -5  -2   62.71    1.56
   2   5  -2   62.25    1.63
   1  -5  -2   38.05    1.09
  -1  -5   2   34.06    1.05
   1   5  -2   38.11    1.07
   0  -5  -2   37.77    1.17
   0  -5   2   39.81    1.15
   0   5  -2   39.70    1.14
   0   5   2   36.24    1.09
  -1  -5  -2   25.24    0.92
   1  -5   2   23.80    0.87
   1   5   2   23.44    0.88
  -1   5  -2   23.33    0.87
   2  -5   2    2.82    0.32
   2   5   2    3.00    0.33
  -3  -5  -2    7.11    0.41
   3  -5   2    6.97    0.55
   3   5   2    7.11    0.57
   4  -5   2   15.57    0.90
  -4  -5  -2   16.13    0.70
  -4  -5  -2   15.96    0.64
  -4  -5  -2   15.91    0.64
  -4  -5  -2   16.68    0.63
  -4   5  -2   17.07    0.62
   4   5   2   17.12    1.02
  -4   5  -2   16.79    0.72
  -5  -5  -2    0.38    0.15
  -5  -5  -2    0.34    0.14
  -5  -5  -2    0.36    0.15
  -5  -5  -2    0.74    0.17
  -5   5  -2    0.34    0.14
  -6  -5  -2    5.09    0.32
  -6  -5  -2    5.52    0.33
  -6   5  -2    5.28    0.33
  -7  -6   2    0.23    0.08
  -7   6   2    0.26    0.15
  -6  -6   2   10.18    0.43
  -6  -6   2    9.67    0.43
  -6  -6   2    9.97    0.59
  -6   6   2    9.33    0.77
  -6   6   2   10.24    0.57
  -5  -6   2   13.32    0.52
  -5  -6   2   14.67    0.66
  -5  -6   2   15.04    0.75
  -5  -6   2   14.17    0.53
  -5   6   2   15.03    0.51
  -5   6   2   14.42    0.76
  -5   6   2   13.60    0.64
  -5   6   2   13.79    0.73
  -5   6   2   14.45    0.58
  -4  -6   2    9.40    0.53
  -4  -6   2    9.90    0.38
  -4  -6   2    9.02    0.46
  -4  -6   2    8.26    0.36
   4  -6  -2    9.81    0.42
   4   6  -2    9.64    0.55
  -4   6   2    8.68    0.50
  -4   6   2    9.66    0.53
  -4   6   2   10.29    0.40
  -3  -6   2   87.73    3.06
   3  -6  -2  110.33    2.46
   3   6  -2  110.97    2.63
   2  -6  -2    4.58    0.29
   2   6  -2    4.15    0.31
   1  -6  -2   63.48    1.67
  -1  -6   2   58.06    1.74
   1   6  -2   64.75    1.67
   0  -6  -2   22.80    0.86
   0  -6   2   23.79    0.84
   0   6  -2   24.17    0.83
   0   6   2   24.63    0.81
   1  -6   2    8.89    0.50
  -1  -6  -2    8.77    0.52
   1   6   2    8.70    0.49
  -1   6  -2    7.87    0.50
   2  -6   2   12.49    0.67
   2   6   2   11.56    0.67
  -3  -6  -2   10.47    0.52
  -3  -6  -2   10.53    0.46
   3  -6   2   10.67    0.69
   3   6   2   10.40    0.71
  -3   6  -2    9.17    0.70
  -4  -6  -2    0.38    0.15
  -4  -6  -2    0.88    0.22
  -4  -6  -2    0.97    0.20
  -4  -6  -2    0.98    0.20
   4   6   2    0.75    0.17
  -4   6  -2    1.62    0.28
   4   6   2    0.71    0.35
  -4   6  -2    1.10    0.20
  -5  -6  -2    1.98    0.26
  -5  -6  -2    1.67    0.24
  -5  -6  -2    1.38    0.23
  -5  -6  -2    1.60    0.26
  -5   6  -2    1.53    0.23
   5   6   2    1.64    0.24
  -6  -6  -2    0.53    0.14
  -6  -6  -2    0.59    0.14
  -6   6  -2    0.65    0.14
   6   6   2    0.67    0.15
  -7  -7   2   11.43    0.40
  -7  -7   2   11.99    0.42
  -7  -7   2   11.24    0.41
  -7  -7   2   10.60    0.40
  -7   7   2   11.89    0.54
  -6  -7   2   31.89    0.94
  -6  -7   2   30.74    0.94
  -6  -7   2   31.30    1.17
  -6   7   2   32.17    1.09
  -6   7   2   29.83    1.50
  -5  -7   2    0.18    0.14
  -5  -7   2    0.21    0.15
  -5  -7   2    0.28    0.11
  -5  -7   2    0.42    0.13
  -5   7   2    0.05    0.14
  -5   7   2    0.55    0.24
  -5   7   2    0.33    0.11
  -5   7   2    0.18    0.12
   4  -7  -2   10.07    0.47
  -4  -7   2   10.38    0.49
  -4  -7   2   10.50    0.42
  -4  -7   2   10.99    0.43
  -4   7   2   10.20    0.55
  -4   7   2    9.75    0.57
  -4   7   2   10.77    0.44
   4   7  -2   11.04    0.63
   3  -7  -2   49.50    1.35
   3   7  -2   49.11    1.50
   2  -7  -2  187.75    4.31
   2   7  -2  187.11    4.40
   1  -7  -2   39.43    1.21
   1   7  -2   38.24    1.19
   0  -7  -2  270.53    6.21
   0  -7   2  268.55    6.18
   0   7  -2  272.05    6.13
  -1  -7  -2   64.49    1.93
   1  -7   2   67.60    1.90
   1   7   2   65.68    1.88
   2  -7   2    5.50    0.45
   2   7   2    5.64    0.47
  -3  -7  -2   25.69    0.91
   3  -7   2   26.05    1.14
  -3  -7  -2   25.39    0.80
  -3  -7  -2   24.14    0.82
  -3  -7  -2   24.31    0.81
  -3   7  -2   24.06    0.88
   3   7   2   25.83    0.79
   3   7   2   25.78    1.17
  -3   7  -2   24.74    0.77
  -4  -7  -2   54.50    1.61
  -4  -7  -2   53.20    1.49
  -4  -7  -2   53.73    1.52
  -4  -7  -2   52.58    1.50
  -4   7  -2   54.82    1.47
  -4   7  -2   56.18    1.62
   4   7   2   52.74    1.48
  -5  -7  -2    5.41    0.38
  -5  -7  -2    6.10    0.38
  -5  -7  -2    5.55    0.37
  -5  -7  -2    5.77    0.38
   5   7   2    5.80    0.37
  -5   7  -2    5.65    0.37
  -6  -7  -2   16.75    0.60
  -6  -7  -2   15.86    0.60
  -6   7  -2   16.92    0.62
   6   7   2   16.40    0.61
  -7  -8   2    1.50    0.16
  -7  -8   2    1.32    0.16
  -7  -8   2    1.70    0.15
  -7  -8   2    1.53    0.17
  -7   8   2    1.38    0.22
  -6  -8   2   23.79    0.80
  -6  -8   2   25.05    1.03
  -6  -8   2   24.91    0.80
  -6   8   2   25.04    0.92
  -5  -8   2   11.46    0.50
  -5  -8   2   11.42    0.70
  -5  -8   2   11.47    0.50
  -5   8   2   12.54    0.51
  -5   8   2   11.53    0.58
  -5   8   2   12.89    0.59
   4  -8  -2   49.06    1.42
  -4  -8   2   48.93    1.30
  -4  -8   2   47.60    1.27
  -4  -8   2   51.66    1.31
  -4   8   2   48.76    1.35
  -4   8   2   49.74    1.39
  -4   8   2   46.44    1.51
  -4   8   2   46.90    1.47
   4   8  -2   49.87    1.65
   3  -8  -2   84.01    2.13
  -3  -8   2   81.74    1.96
  -3  -8   2   81.40    2.02
   3   8  -2   82.23    2.29
   2  -8  -2  101.86    2.55
  -2   8   2   99.42    2.77
   2   8  -2  101.59    2.63
   1  -8  -2   37.34    1.22
   1   8  -2   37.56    1.21
   0  -8  -2    6.67    0.48
   0  -8   2    6.44    0.45
   0   8  -2    6.69    0.43
  -1  -8  -2   92.39    2.59
   1  -8   2   93.50    2.54
   1   8   2   96.29    2.54
   2  -8   2   59.85    1.90
   2   8   2   61.88    1.93
  -3  -8  -2   55.17    1.25
  -3  -8  -2   54.55    1.45
  -3  -8  -2   52.85    1.46
  -3  -8  -2   54.62    1.58
  -3  -8  -2   54.07    1.47
   3  -8   2   52.41    1.87
  -3  -8  -2   55.45    1.24
   3   8   2   52.87    1.42
  -3   8  -2   53.47    1.54
   3   8   2   53.07    1.91
  -3   8  -2   51.21    1.42
  -3   8  -2   54.44    1.41
  -4  -8  -2   91.13    2.30
  -4  -8  -2   88.64    2.31
  -4  -8  -2   91.36    2.43
  -4  -8  -2   88.65    2.32
  -4   8  -2   93.89    2.44
  -4   8  -2   92.12    2.27
   4   8   2   89.80    2.28
  -5  -8  -2    3.90    0.33
  -5  -8  -2    3.30    0.31
  -5  -8  -2    3.50    0.30
  -5  -8  -2    3.82    0.31
   5   8   2    3.82    0.31
  -5   8  -2    3.38    0.29
  -6  -8  -2    4.88    0.30
  -6  -8  -2    4.72    0.29
  -6   8  -2    4.82    0.29
   6   8   2    4.64    0.30
  -7  -9   2    7.88    0.35
  -7  -9   2    7.72    0.33
  -7  -9   2    7.64    0.33
  -7   9   2    7.73    0.40
  -6  -9   2   13.86    0.75
  -6  -9   2   14.71    0.56
  -6  -9   2   14.38    0.58
  -6   9   2   14.78    0.66
  -5  -9   2   21.00    0.75
  -5  -9   2   20.51    0.73
  -5   9   2   21.61    0.77
  -5   9   2   20.56    0.81
  -5   9   2   21.78    0.85
  -4  -9   2    4.28    0.29
  -4  -9   2    3.89    0.28
   4  -9  -2    4.02    0.34
  -4  -9   2    3.97    0.29
   4   9  -2    4.26    0.57
  -4   9   2    4.00    0.31
  -4   9   2    4.09    0.30
  -3  -9   2    0.22    0.10
  -3  -9   2    0.20    0.09
  -3  -9   2    0.11    0.10
   3  -9  -2    0.30    0.13
  -3   9   2    0.30    0.11
   3   9  -2    0.70    0.22
   2  -9  -2    3.04    0.30
   2   9  -2    3.06    0.33
   1  -9  -2   10.33    0.59
   1   9  -2   11.00    0.60
   0  -9   2    0.43    0.17
   0  -9  -2    0.67    0.20
   0   9  -2    0.66    0.20
  -1  -9  -2   33.09    1.27
   1  -9   2   32.01    1.21
  -2  -9  -2   11.80    0.58
   2  -9   2   12.80    0.75
   2   9   2   12.95    0.51
   2   9   2   12.87    0.76
  -3  -9  -2   19.73    0.70
  -3  -9  -2   16.76    0.89
   3  -9   2   18.80    1.04
  -3  -9  -2   19.93    0.81
  -3  -9  -2   20.78    0.74
  -3  -9  -2   20.04    0.53
  -3  -9  -2   19.69    0.52
   3   9   2   19.45    1.06
  -3   9  -2   19.33    0.68
   3   9   2   20.15    0.69
  -3   9  -2   17.55    0.67
  -3   9  -2   19.55    0.78
  -4  -9  -2    1.03    0.21
  -4  -9  -2    1.28    0.28
  -4  -9  -2    0.66    0.17
  -4  -9  -2    0.92    0.19
   4   9   2    0.95    0.19
  -4   9  -2    1.21    0.26
  -4   9  -2    0.87    0.18
  -5  -9  -2    9.29    0.48
  -5  -9  -2   10.17    0.51
  -5  -9  -2    9.52    0.50
  -5  -9  -2    9.24    0.47
   5   9   2    9.10    0.48
  -5   9  -2   10.08    0.48
  -6  -9  -2    0.72    0.14
  -6  -9  -2    0.84    0.15
  -6  -9  -2    0.64    0.13
   6   9   2    0.97    0.16
  -6   9  -2    0.63    0.13
  -6 -10   2    1.77    0.22
  -6 -10   2    1.92    0.23
  -6  10   2    2.07    0.30
  -5 -10   2    1.11    0.20
  -5 -10   2    1.07    0.19
  -5  10   2    1.31    0.25
  -5  10   2    1.14    0.20
  -4 -10   2    0.72    0.17
  -4 -10   2    0.48    0.14
  -4 -10   2    0.53    0.14
  -4  10   2    0.63    0.13
  -4  10   2    0.46    0.14
  -4  10   2    0.73    0.18
   3 -10  -2   26.71    1.01
  -3 -10   2   28.07    0.89
  -3 -10   2   25.31    0.80
  -3 -10   2   28.35    0.85
  -3 -10   2   26.88    0.82
  -3  10   2   25.30    0.76
  -3  10   2   27.42    0.96
   3  10  -2   27.22    1.13
  -2 -10   2   23.62    0.78
  -2 -10   2   22.43    0.67
   2 -10  -2   22.89    0.93
   2  10  -2   23.30    0.98
   1 -10  -2    0.41    0.16
   1  10  -2    0.74    0.21
   0 -10  -2   13.99    0.76
   0 -10   2   15.00    0.76
   1 -10   2  118.28    3.19
   2 -10   2   15.04    0.85
   2 -10   2   13.81    0.53
  -2 -10  -2   13.24    0.63
   2 -10   2   13.07    0.50
  -2 -10  -2   13.98    0.56
   2  10   2   14.19    0.52
  -2  10  -2   12.70    0.51
  -2  10  -2   13.89    0.52
  -2  10  -2   12.77    0.59
   2  10   2   14.77    0.91
  -3 -10  -2   74.58    1.91
   3 -10   2   72.99    2.46
  -3 -10  -2   75.85    1.95
  -3 -10  -2   74.87    2.08
   3  10   2   72.30    2.48
  -3  10  -2   73.60    1.89
  -3  10  -2   72.30    1.90
  -3  10  -2   75.62    2.03
   3  10   2   74.14    1.89
  -4 -10  -2   28.74    0.99
  -4 -10  -2   29.67    1.10
  -4 -10  -2   27.03    0.96
  -4 -10  -2   29.69    0.97
   4  10   2   29.94    0.97
  -4  10  -2   28.80    1.05
  -4  10  -2   28.92    0.95
  -4  10  -2   28.36    0.94
  -5 -10  -2    0.31    0.15
  -5 -10  -2    0.29    0.13
  -5 -10  -2    0.28    0.14
  -5 -10  -2    0.11    0.12
  -5 -10  -2    0.07    0.09
  -5  10  -2    0.10    0.11
   5  10   2    0.30    0.13
  -6 -10  -2    5.97    0.31
  -6 -10  -2    5.87    0.30
  -6 -10  -2    5.35    0.30
   6  10   2    6.11    0.31
  -6  10  -2    5.83    0.30
  -6 -11   2   18.36    0.67
  -6 -11   2   19.38    0.67
  -6  11   2   19.45    0.73
  -5 -11   2    0.45    0.14
  -5 -11   2    0.33    0.13
  -5  11   2    0.28    0.12
  -5  11   2    0.33    0.16
  -4 -11   2    4.90    0.35
  -4 -11   2    4.57    0.33
  -4 -11   2    4.51    0.33
  -4 -11   2    4.78    0.32
  -4  11   2    4.81    0.27
  -4  11   2    4.73    0.34
  -4  11   2    4.88    0.38
  -3 -11   2   20.86    0.70
  -3 -11   2   20.78    0.72
  -3 -11   2   20.85    0.70
   3 -11  -2   21.13    0.92
  -3 -11   2   21.14    0.78
   3  11  -2   20.23    1.01
   3  11  -2   20.98    0.70
  -3  11   2   20.58    0.65
   2 -11  -2   99.42    2.71
  -2 -11   2   99.78    2.45
  -2 -11   2   97.84    2.35
  -2 -11   2   93.12    2.28
  -2 -11   2   98.77    2.30
  -2 -11   2  106.53    2.54
  -2 -11   2   94.35    2.33
   2  11  -2   96.87    2.74
   2  11  -2  100.35    2.33
   2  11  -2   98.36    2.43
  -2  11   2   95.63    2.48
   1 -11  -2   22.46    1.00
  -1 -11   2   21.97    0.78
   1  11  -2   22.31    0.98
   0 -11  -2  135.20    3.61
  -1 -11  -2   24.51    0.89
   1 -11   2   25.02    1.10
   1 -11   2   23.48    0.72
   1  11   2   23.93    0.71
   2 -11   2    1.75    0.36
   2 -11   2    2.42    0.26
  -2 -11  -2    1.88    0.29
  -2 -11  -2    2.29    0.28
  -2 -11  -2    2.64    0.29
   2 -11   2    2.41    0.24
   2  11   2    1.89    0.25
  -2  11  -2    1.82    0.27
   2  11   2    2.21    0.23
  -2  11  -2    2.55    0.28
  -2  11  -2    2.01    0.23
   3 -11   2    1.62    0.22
  -3 -11  -2    1.93    0.33
  -3 -11  -2    1.37    0.22
  -3 -11  -2    1.75    0.27
   3 -11   2    1.77    0.23
  -3  11  -2    2.23    0.28
  -3  11  -2    1.55    0.24
   3  11   2    1.68    0.23
  -3  11  -2    2.01    0.30
  -4 -11  -2   35.38    1.10
  -4 -11  -2   35.80    1.12
  -4 -11  -2   36.34    1.27
  -4 -11  -2   36.14    1.16
  -4  11  -2   33.56    1.08
   4  11   2   34.09    1.10
  -4  11  -2   35.82    1.21
  -4  11  -2   35.99    1.10
  -5 -11  -2   15.31    0.63
  -5 -11  -2   16.39    0.66
  -5 -11  -2   16.83    0.63
  -5 -11  -2   15.93    0.63
  -5  11  -2   16.31    0.62
   5  11   2   16.10    0.64
  -6 -11  -2   12.57    0.45
  -6 -11  -2   12.40    0.45
  -6  11  -2   12.23    0.45
   6  11   2   11.35    0.44
  -6 -12   2    0.69    0.15
  -6 -12   2    0.56    0.13
  -6  12   2    0.49    0.19
  -5 -12   2    0.38    0.14
  -5 -12   2    0.23    0.12
  -5  12   2    0.42    0.11
  -5  12   2    0.33    0.14
  -4 -12   2    0.18    0.11
  -4 -12   2    0.15    0.13
  -4 -12   2    0.46    0.17
  -4 -12   2    0.21    0.12
  -4  12   2    0.38    0.16
   4  12  -2    0.30    0.12
  -4  12   2    0.40    0.12
  -3 -12   2    2.40    0.32
  -3 -12   2    1.65    0.22
  -3 -12   2    1.93    0.24
  -3 -12   2    1.83    0.24
   3  12  -2    1.57    0.37
  -3  12   2    1.99    0.23
   3  12  -2    1.85    0.23
  -2 -12   2    0.21    0.13
  -2 -12   2    0.15    0.10
   2 -12  -2    0.19    0.13
  -2 -12   2    0.34    0.12
  -2 -12   2    0.24    0.10
  -2 -12   2    0.31    0.11
  -2  12   2    0.15    0.10
   2  12  -2    0.12    0.12
   2  12  -2    0.57    0.22
   2  12  -2    0.15    0.10
  -1 -12   2    3.09    0.28
  -1 -12   2    2.73    0.23
  -1 -12   2    2.57    0.19
  -1 -12   2    3.62    0.32
   1 -12  -2    2.76    0.36
   1  12  -2    3.28    0.22
  -1  12   2    2.94    0.24
   1  12  -2    2.81    0.31
   0 -12   2   43.73    1.24
   0 -12   2   44.83    1.37
   0 -12   2   46.39    1.34
   0 -12  -2   44.10    1.66
   0 -12   2   45.41    1.18
   0  12  -2   44.73    1.15
   0  12   2   46.48    1.30
   0  12  -2   43.85    1.28
   0  12  -2   44.30    1.21
   0  12   2   43.45    1.22
   1 -12   2  121.13    3.33
   1 -12   2  119.57    2.74
   1 -12   2  115.17    2.81
  -1 -12  -2  117.57    2.78
  -1 -12  -2  116.58    2.96
   1  12   2  117.41    2.80
  -1  12  -2  118.64    2.78
  -1  12  -2  114.48    2.87
  -1  12  -2  115.47    2.88
   1  12   2  119.23    2.70
  -1  12  -2  115.75    2.77
   2 -12   2  115.86    3.45
   2 -12   2  120.70    2.88
  -2 -12  -2  124.74    3.10
  -2 -12  -2  120.40    2.90
  -2 -12  -2  117.11    2.86
   2 -12   2  120.28    2.82
  -2  12  -2  118.20    2.86
  -2  12  -2  118.70    2.98
  -2  12  -2  119.59    2.85
   2  12   2  122.29    2.82
   2  12   2  116.69    2.87
  -3 -12  -2   70.22    1.90
  -3 -12  -2   73.38    1.94
   3 -12   2   73.52    1.91
  -3 -12  -2   73.74    2.12
   3 -12   2   72.60    1.87
  -3 -12  -2   74.32    1.97
  -3  12  -2   73.51    1.91
  -3  12  -2   74.76    1.93
   3  12   2   73.12    1.90
  -3  12  -2   72.72    2.03
  -4 -12  -2   74.79    1.97
  -4 -12  -2   76.51    2.03
   4 -12   2   73.32    1.93
  -4 -12  -2   77.75    2.15
  -4 -12  -2   75.18    1.99
   4  12   2   72.84    1.96
  -4  12  -2   76.15    1.98
  -4  12  -2   74.01    1.97
  -4  12  -2   78.30    2.09
  -5 -12  -2   12.23    0.51
  -5 -12  -2   11.54    0.53
  -5 -12  -2   11.20    0.51
   5  12   2   11.95    0.51
  -5  12  -2   12.20    0.51
  -6 -13   2    4.73    0.29
  -6 -13   2    4.44    0.28
   6  13  -2    5.14    0.35
   6  13  -2    3.86    0.27
  -5 -13   2    0.92    0.18
  -5 -13   2    0.98    0.19
  -5  13   2    0.82    0.19
  -5  13   2    1.28    0.18
   5  13  -2    0.90    0.18
  -4 -13   2   13.81    0.64
  -4 -13   2   14.75    0.63
  -4 -13   2   14.08    0.60
  -4 -13   2   15.15    0.61
  -4  13   2   14.27    0.54
   4  13  -2   14.10    0.59
  -4  13   2   13.99    0.72
  -3 -13   2    5.21    0.35
  -3 -13   2    5.01    0.34
  -3 -13   2    4.86    0.39
  -3 -13   2    5.89    0.37
  -3  13   2    4.72    0.31
   3  13  -2    5.12    0.33
   3  13  -2    5.16    0.41
  -2 -13   2    7.87    0.47
  -2 -13   2    7.65    0.37
  -2 -13   2    7.66    0.39
  -2 -13   2    7.49    0.39
   2 -13  -2    7.14    0.56
  -2 -13   2    7.07    0.36
   2  13  -2    6.29    0.57
  -2  13   2    7.43    0.37
  -2  13   2    7.40    0.38
   2  13  -2    7.75    0.38
   2  13  -2    7.57    0.46
  -1 -13   2    0.26    0.14
  -1 -13   2    0.22    0.10
   1 -13  -2    0.25    0.19
  -1 -13   2    0.37    0.15
  -1 -13   2    0.02    0.10
  -1  13   2    0.22    0.12
  -1  13   2    0.50    0.14
   1  13  -2    0.40    0.13
   1  13  -2    0.07    0.13
   1  13  -2    0.17    0.09
   0 -13   2    3.05    0.29
   0 -13  -2    1.83    0.37
   0 -13   2    2.72    0.33
   0 -13   2    2.51    0.21
   0 -13   2    2.90    0.30
   0  13   2    3.10    0.30
   0  13   2    3.09    0.31
   0  13  -2    2.48    0.19
   0  13  -2    3.01    0.34
   0  13  -2    3.25    0.25
   0  13   2    3.21    0.31
  -1 -13  -2    5.98    0.35
   1 -13   2    5.56    0.68
  -1 -13  -2    5.27    0.43
   1 -13   2    6.56    0.38
   1 -13   2    6.17    0.33
   1  13   2    5.86    0.30
  -1  13  -2    6.05    0.35
  -1  13  -2    6.26    0.36
  -1  13  -2    6.02    0.40
  -1  13  -2    6.01    0.42
  -2 -13  -2    0.19    0.12
   2 -13   2    0.27    0.13
  -2 -13  -2    0.21    0.16
   2 -13   2    0.26    0.11
  -2  13  -2    0.35    0.13
  -2  13  -2    0.15    0.13
  -2  13  -2    0.05    0.12
   2  13   2    0.33    0.14
   2  13   2    0.60    0.13
  -3 -13  -2   21.70    0.81
   3 -13   2   20.89    0.75
   3 -13   2   20.65    0.77
  -3 -13  -2   20.69    0.93
   3  13   2   21.08    0.75
  -3  13  -2   21.18    0.86
  -3  13  -2   21.38    0.77
  -3  13  -2   21.22    0.79
   4 -13   2    3.86    0.29
  -4 -13  -2    3.80    0.33
  -4 -13  -2    4.08    0.31
  -4 -13  -2    4.42    0.40
   4  13   2    3.86    0.31
  -4  13  -2    3.58    0.31
  -4  13  -2    4.24    0.32
  -4  13  -2    3.94    0.36
   5 -13   2    7.04    0.35
  -5 -13  -2    6.42    0.36
  -5 -13  -2    6.73    0.35
  -5 -13  -2    6.57    0.37
   5  13   2    6.61    0.35
  -5  13  -2    7.30    0.37
  -6 -14   2    8.91    0.38
   6  14  -2    8.61    0.44
  -5 -14   2    6.92    0.40
  -5 -14   2    7.21    0.39
  -5 -14   2    6.85    0.37
  -5  14   2    6.80    0.43
   5  14  -2    6.39    0.37
   5  14  -2    7.08    0.46
  -5  14   2    6.78    0.32
  -4 -14   2   13.63    0.64
  -4 -14   2   13.56    0.59
  -4 -14   2   13.92    0.61
  -4 -14   2   13.81    0.59
   4  14  -2   13.80    0.59
   4  14  -2   13.46    0.68
  -4  14   2   13.84    0.54
  -3 -14   2   58.78    1.63
  -3 -14   2   61.35    1.77
  -3 -14   2   60.09    1.65
  -3 -14   2   58.79    1.67
   3  14  -2   59.74    1.62
   3  14  -2   60.22    1.76
  -3  14   2   60.35    1.59
  -2 -14   2    6.56    0.45
  -2 -14   2    6.98    0.38
  -2 -14   2    7.30    0.39
  -2 -14   2    6.55    0.33
  -2 -14   2    6.62    0.33
   2  14  -2    6.05    0.43
  -2  14   2    6.44    0.37
  -2  14   2    6.62    0.37
   2  14  -2    6.81    0.37
  -1 -14   2    8.69    0.46
   1 -14  -2    9.31    0.71
  -1 -14   2    8.63    0.37
  -1 -14   2    9.15    0.44
  -1 -14   2    9.62    0.53
   1  14  -2    9.10    0.50
   1  14  -2    8.53    0.44
   1  14  -2    9.48    0.41
  -1  14   2    8.87    0.44
  -1  14   2    9.26    0.44
   0 -14   2    3.74    0.28
   0 -14   2    3.37    0.34
   0 -14   2    4.18    0.32
   0 -14   2    3.77    0.26
   0  14  -2    4.34    0.36
   0  14   2    3.66    0.30
   0  14   2    3.91    0.31
   0  14   2    3.74    0.32
   0  14  -2    3.61    0.24
   0  14  -2    4.32    0.30
   1 -14   2   28.80    0.96
   1 -14   2   30.69    0.92
  -1 -14  -2   29.16    0.93
  -1 -14  -2   28.29    1.09
   1  14   2   29.24    0.83
  -1  14  -2   30.10    0.94
   1  14   2   29.60    0.96
  -1  14  -2   31.11    0.97
  -1  14  -2   28.36    0.93
  -1  14  -2   30.41    1.05
   2 -14   2    1.95    0.27
   2 -14   2    1.47    0.20
  -2 -14  -2    1.41    0.24
  -2 -14  -2    1.53    0.28
  -2 -14  -2    1.61    0.32
  -2  14  -2    1.45    0.22
   2  14   2    1.60    0.20
   2  14   2    2.12    0.28
  -2  14  -2    1.95    0.30
   3 -14   2   33.82    1.07
  -3 -14  -2   32.98    1.09
  -3 -14  -2   34.33    1.26
   3 -14   2   33.63    1.03
  -3  14  -2   33.10    1.14
  -3  14  -2   32.50    1.07
   3  14   2   33.30    1.02
  -3  14  -2   33.93    1.06
   4 -14   2   19.13    0.70
  -4 -14  -2   19.99    0.78
  -4 -14  -2   20.81    0.77
  -4 -14  -2   19.86    0.85
  -4  14  -2   21.58    0.75
   4  14   2   19.65    0.71
  -4  14  -2   19.64    0.78
  -4  14  -2   19.95    0.73
  -5 -14  -2    0.00    0.08
  -5 -14  -2    0.09    0.10
   5 -14   2    0.00    0.07
  -5 -14  -2   -0.09    0.07
  -5  14  -2   -0.03    0.07
   5  14   2   -0.02    0.08
  -5 -15   2    1.97    0.24
  -5 -15   2    1.93    0.23
  -5 -15   2    2.05    0.25
  -5  15   2    2.39    0.20
   5  15  -2    2.37    0.25
  -5  15   2    2.63    0.27
   5  15  -2    2.72    0.33
  -4 -15   2    4.19    0.33
   4 -15  -2    4.09    0.31
  -4 -15   2    4.14    0.33
  -4 -15   2    4.63    0.37
  -4 -15   2    4.41    0.33
  -4  15   2    4.31    0.29
   4  15  -2    4.68    0.40
   4  15  -2    4.33    0.32
  -3 -15   2    9.81    0.49
  -3 -15   2    9.46    0.49
  -3 -15   2   10.27    0.58
  -3  15   2   10.07    0.47
   3  15  -2    9.86    0.58
   3  15  -2    9.19    0.47
  -2 -15   2   44.51    1.43
  -2 -15   2   46.03    1.31
  -2 -15   2   42.73    1.27
   2  15  -2   44.60    1.25
  -2  15   2   44.17    1.27
   2  15  -2   43.85    1.40
  -2  15   2   45.65    1.29
  -1 -15   2   28.94    0.98
  -1 -15   2   29.80    0.95
  -1 -15   2   26.57    1.14
  -1 -15   2   29.99    1.08
  -1  15   2   30.74    0.97
  -1  15   2   28.88    0.94
   1  15  -2   30.76    0.89
   1  15  -2   29.17    0.94
   1  15  -2   30.29    1.06
   0 -15   2   70.88    1.97
   0 -15   2   67.01    1.83
   0 -15   2   68.86    1.73
   0 -15   2   67.40    1.76
   0  15   2   65.91    1.79
   0  15  -2   67.14    1.79
   0  15   2   71.43    1.71
   0  15   2   68.46    1.72
   0  15  -2   67.10    1.91
   0  15   2   67.64    1.81
   0  15  -2   68.00    1.66
  -1 -15  -2   36.60    1.31
   1 -15   2   37.02    1.18
   1 -15   2   38.92    1.11
  -1 -15  -2   38.59    1.13
  -1  15  -2   39.97    1.06
  -1  15  -2   35.47    1.11
   1  15   2   39.07    1.18
  -1  15  -2   39.93    1.28
   1  15   2   37.84    1.29
  -1  15  -2   37.72    1.15
  -1  15  -2   38.52    1.06
  -2 -15  -2    6.72    0.52
  -2 -15  -2    7.34    0.44
   2 -15   2    7.45    0.40
   2 -15   2    8.04    0.45
  -2 -15  -2    7.46    0.48
   2  15   2    7.51    0.37
  -2  15  -2    7.09    0.49
  -2  15  -2    7.68    0.43
  -2  15  -2    7.14    0.42
   2  15   2    7.71    0.44
  -3 -15  -2    6.35    0.41
   3 -15   2    6.24    0.40
  -3 -15  -2    6.26    0.49
   3 -15   2    6.07    0.37
  -3  15  -2    6.45    0.40
   3  15   2    6.61    0.36
  -3  15  -2    6.40    0.45
  -3  15  -2    6.14    0.40
   4 -15   2    5.38    0.33
  -4 -15  -2    5.38    0.41
  -4 -15  -2    5.19    0.35
  -4  15  -2    5.32    0.37
  -4  15  -2    4.92    0.33
   4  15   2    4.74    0.30
  -4  15  -2    5.34    0.34
   5 -15   2    2.49    0.19
  -5 -15  -2    2.07    0.21
   5  15   2    2.46    0.18
  -5  15  -2    2.54    0.21
  -5 -16   2   18.99    0.64
  -5 -16   2   16.89    0.64
  -5 -16   2   18.36    0.63
  -5  16   2   19.94    0.59
   5  16  -2   17.72    0.62
   5  16  -2   18.08    0.71
  -5  16   2   18.25    0.73
  -4 -16   2   27.06    0.97
  -4 -16   2   27.29    0.89
  -4 -16   2   26.75    0.90
   4 -16  -2   26.33    0.87
   4  16  -2   28.21    1.01
  -4  16   2   28.12    0.85
   4  16  -2   26.59    0.87
  -3 -16   2   41.46    1.37
  -3 -16   2   41.60    1.24
  -3 -16   2   42.71    1.27
   3  16  -2   41.42    1.22
  -3  16   2   42.16    1.23
   3  16  -2   42.88    1.38
  -2 -16   2   62.53    1.71
  -2 -16   2   64.07    1.88
   2  16  -2   64.19    1.66
   2  16  -2   61.39    1.81
  -2  16   2   63.87    1.71
  -2  16   2   62.94    1.70
  -1 -16   2   52.83    1.52
  -1 -16   2   51.21    1.59
  -1 -16   2   50.19    1.44
  -1 -16   2   51.35    1.60
   1  16  -2   51.94    1.37
   1  16  -2   54.38    1.59
  -1  16   2   51.72    1.46
  -1  16   2   51.25    1.46
   1  16  -2   51.75    1.44
   0 -16   2   12.86    0.52
   0 -16   2   12.36    0.54
   0 -16   2   12.79    0.60
   0 -16   2   12.52    0.66
   0  16  -2   13.60    0.57
   0  16   2   11.78    0.55
   0  16   2   12.58    0.58
   0  16  -2   13.88    0.66
   0  16  -2   11.39    0.65
   1 -16   2    2.77    0.32
  -1 -16  -2    3.15    0.45
   1 -16   2    3.18    0.27
  -1 -16  -2    3.29    0.32
  -1  16  -2    2.87    0.31
  -1  16  -2    2.47    0.33
   1  16   2    2.96    0.37
   1  16   2    3.33    0.36
  -2 -16  -2    0.14    0.16
   2 -16   2    0.10    0.10
  -2 -16  -2    0.30    0.14
   2 -16   2    0.53    0.17
  -2 -16  -2    0.35    0.16
   2  16   2    0.20    0.16
  -2  16  -2    0.32    0.15
  -2  16  -2    0.26    0.12
   2  16   2    0.28    0.10
  -2  16  -2    0.33    0.17
  -3 -16  -2    0.00    0.12
   3 -16   2    0.09    0.10
   3 -16   2    0.15    0.13
  -3 -16  -2    0.11    0.15
  -3  16  -2    0.00    0.14
  -3  16  -2    0.16    0.12
   3  16   2    0.24    0.10
  -3  16  -2   -0.03    0.10
   4 -16   2    0.49    0.12
  -4 -16  -2    0.57    0.16
  -4 -16  -2    0.44    0.15
  -4  16  -2    0.39    0.13
  -4  16  -2    0.53    0.15
  -4  16  -2    0.50    0.14
   4  16   2    0.52    0.12
  -5 -17   2    1.15    0.16
  -5 -17   2    1.60    0.20
  -5  17   2    1.01    0.19
  -5  17   2    1.37    0.17
   5  17  -2    1.27    0.16
   5  17  -2    1.28    0.21
   4 -17  -2    0.08    0.10
  -4 -17   2    0.07    0.11
  -4 -17   2    0.33    0.15
  -4 -17   2    0.23    0.12
   4  17  -2    0.29    0.11
  -4  17   2    0.21    0.10
   4  17  -2    0.02    0.13
  -3 -17   2    0.33    0.17
   3 -17  -2    0.31    0.13
  -3 -17   2    0.34    0.19
  -3 -17   2    0.21    0.14
   3  17  -2    0.03    0.14
   3  17  -2    0.10    0.10
  -3  17   2    0.37    0.14
  -2 -17   2    0.39    0.19
  -2 -17   2    0.29    0.14
  -2  17   2    0.13    0.13
   2  17  -2    0.19    0.12
  -2  17   2    0.51    0.16
   2  17  -2    0.31    0.18
  -1 -17   2    1.16    0.26
  -1 -17   2    1.10    0.24
  -1 -17   2    0.56    0.16
  -1 -17   2    0.34    0.16
   1  17  -2    0.40    0.16
  -1  17   2    0.63    0.18
  -1  17   2    0.46    0.17
   1  17  -2    0.62    0.13
   1  17  -2    0.60    0.20
   0 -17   2    4.56    0.36
   0 -17   2    4.06    0.40
   0 -17   2    3.74    0.27
   0 -17   2    3.77    0.32
   0  17  -2    4.14    0.44
   0  17   2    4.05    0.35
   0  17  -2    3.68    0.32
   0  17  -2    4.39    0.41
   1 -17   2    1.17    0.24
   1 -17   2    1.04    0.18
  -1 -17  -2    1.04    0.19
  -1 -17  -2    0.68    0.22
  -1  17  -2    1.11    0.22
   1  17   2    1.16    0.23
  -1  17  -2    1.32    0.27
   1  17   2    0.84    0.21
   2 -17   2    3.04    0.34
  -2 -17  -2    3.76    0.31
   2 -17   2    2.99    0.30
  -2 -17  -2    3.32    0.30
  -2 -17  -2    3.00    0.41
  -2  17  -2    3.75    0.31
   2  17   2    2.95    0.31
   2  17   2    2.48    0.38
  -2  17  -2    3.57    0.39
  -2  17  -2    2.84    0.27
   3 -17   2    0.71    0.18
  -3 -17  -2    0.67    0.21
  -3 -17  -2    0.47    0.16
   3 -17   2    0.64    0.14
  -3  17  -2    0.76    0.20
  -3  17  -2    0.74    0.16
   3  17   2    0.62    0.11
  -3  17  -2    0.62    0.16
   4 -17   2    3.91    0.25
  -4 -17  -2    4.06    0.28
  -4 -17  -2    3.90    0.31
  -4  17  -2    3.91    0.26
  -4  17  -2    4.12    0.27
   4  17   2    3.50    0.20
  -4 -18   2   18.52    0.67
   4 -18  -2   17.88    0.63
  -4 -18   2   19.30    0.71
   4  18  -2   19.35    0.63
  -4  18   2   19.42    0.63
   4  18  -2   19.71    0.73
  -3 -18   2   60.38    1.65
  -3 -18   2   59.99    1.76
   3 -18  -2   60.15    1.65
  -3  18   2   61.97    1.61
   3  18  -2   59.76    1.56
   3  18  -2   59.79    1.72
   2 -18  -2   16.54    0.71
  -2 -18   2   17.10    0.80
  -2 -18   2   17.55    0.69
  -2  18   2   16.58    0.66
   2  18  -2   16.49    0.59
   2  18  -2   16.90    0.74
  -2  18   2   16.15    0.65
  -1 -18   2   17.98    0.75
  -1 -18   2   18.54    0.70
  -1 -18   2   18.05    0.83
  -1 -18   2   18.41    0.75
  -1  18   2   18.24    0.72
   1  18  -2   17.37    0.68
   1  18  -2   18.49    0.81
  -1  18   2   18.00    0.71
   0 -18   2   10.48    0.55
   0 -18   2   10.23    0.44
   0 -18   2   10.61    0.62
   0  18   2    9.88    0.53
   0  18  -2   11.71    0.54
   0  18  -2   10.81    0.51
   0  18  -2   10.49    0.59
   0  18  -2   10.33    0.51
   1 -18   2    4.87    0.31
   1 -18   2    4.85    0.37
  -1 -18  -2    4.59    0.42
   1  18   2    4.96    0.37
  -1  18  -2    5.25    0.40
  -1  18  -2    4.61    0.35
   2 -18   2    0.06    0.12
  -2 -18  -2    0.10    0.09
  -2 -18  -2    0.25    0.13
  -2 -18  -2   -0.10    0.11
   2 -18   2    0.06    0.09
  -2 -18  -2    0.08    0.09
   2  18   2   -0.09    0.10
  -2  18  -2    0.10    0.13
   2  18   2    0.21    0.15
  -2  18  -2    0.10    0.10
  -2  18  -2    0.03    0.10
  -3 -18  -2    8.53    0.42
   3 -18   2    8.68    0.40
  -3 -18  -2    9.20    0.52
   3 -18   2    9.23    0.43
  -3  18  -2    8.41    0.41
  -3  18  -2    9.16    0.43
   3  18   2    7.64    0.50
   4 -18   2    4.56    0.25
  -4 -18  -2    4.54    0.27
  -4  18  -2    4.20    0.26
  -4  18  -2    4.14    0.34
  -4 -19   2    0.59    0.14
   4  19  -2    0.73    0.12
  -4  19   2    0.50    0.12
   4  19  -2    0.70    0.16
  -3 -19   2    3.76    0.34
  -3 -19   2    4.16    0.31
   3 -19  -2    4.04    0.31
   3  19  -2    3.51    0.24
   3  19  -2    4.01    0.32
  -3  19   2    2.85    0.24
  -3  19   2    3.97    0.28
  -2 -19   2   17.84    0.69
   2 -19  -2   18.75    0.74
  -2 -19   2   17.45    0.80
  -2  19   2   18.59    0.68
  -2  19   2   18.09    0.68
   2  19  -2   18.23    0.58
   2  19  -2   18.54    0.76
  -1 -19   2   17.96    0.63
  -1 -19   2   18.18    0.62
   1 -19  -2   16.84    0.73
  -1 -19   2   19.68    0.70
  -1 -19   2   18.71    0.84
   1  19  -2   19.02    0.79
   1  19  -2   16.67    0.65
  -1  19   2   18.58    0.71
  -1  19   2   17.05    0.67
   1  19  -2   18.22    0.77
   0 -19  -2   26.59    0.93
   0 -19   2   28.28    0.97
   0 -19   2   26.55    1.04
   0  19  -2   26.97    0.89
   0  19   2   26.74    0.92
   0  19  -2   26.76    0.98
   1 -19   2   19.94    0.66
  -1 -19  -2   17.69    0.83
   1 -19   2   19.18    0.77
  -1 -19  -2   18.64    1.08
   1  19   2   19.98    0.73
  -1  19  -2   19.33    0.77
  -1  19  -2   18.59    0.71
  -2 -19  -2    5.03    0.41
  -2 -19  -2    4.67    0.31
   2 -19   2    5.44    0.37
   2 -19   2    5.41    0.31
   2  19   2    5.19    0.29
   2  19   2    5.12    0.29
  -2  19  -2    5.58    0.35
  -3 -19  -2    1.56    0.19
   3 -19   2    1.63    0.18
  -3 -19  -2    1.42    0.23
   3 -19   2    1.39    0.18
  -3  19  -2    1.95    0.23
  -3  19  -2    1.62    0.20
   3  19   2    1.37    0.19
   3 -20  -2    0.29    0.12
  -3 -20   2    0.34    0.13
   3 -20  -2    0.58    0.14
  -3 -20   2    0.21    0.14
  -3  20   2    0.41    0.11
   3  20  -2    0.34    0.13
  -3  20   2    0.26    0.10
  -2 -20   2    1.98    0.24
  -2 -20   2    2.27    0.34
   2 -20  -2    1.82    0.25
  -2  20   2    1.72    0.22
   2  20  -2    2.24    0.28
  -2  20   2    2.04    0.24
   2  20  -2    1.67    0.27
  -1 -20   2    0.17    0.15
  -1 -20   2    0.23    0.12
   1 -20  -2    0.09    0.10
  -1  20   2    0.04    0.10
   1  20  -2    0.15    0.14
   1  20  -2    0.05    0.11
   1  20  -2    0.01    0.10
   0 -20   2    3.66    0.35
   0 -20  -2    3.57    0.29
   0 -20   2    2.51    0.33
   0  20  -2    3.62    0.28
   0  20  -2    3.62    0.33
   0  20   2    4.33    0.31
   1 -20   2    5.08    0.27
   1 -20   2    5.30    0.37
  -1 -20  -2    4.87    0.36
   1  20   2    5.67    0.34
  -1  20  -2    5.48    0.35
   2 -20   2   14.58    0.58
  -2 -20  -2   12.53    0.62
   2 -20   2   14.15    0.49
  -2  20  -2   14.19    0.55
   3 -20   2    7.92    0.33
  -3  20  -2    8.07    0.36
  -3  21   2    0.61    0.15
   2 -21  -2    1.39    0.19
  -2 -21   2    1.84    0.21
   2 -21  -2    2.00    0.21
  -2 -21   2    2.48    0.31
  -2  21   2    2.08    0.19
  -2  21   2    2.02    0.22
   2  21  -2    1.75    0.26
   2  21  -2    1.74    0.21
   1 -21  -2    0.43    0.14
   1 -21  -2    0.41    0.12
  -1 -21   2    0.48    0.18
  -1  21   2    0.42    0.13
   0 -21   2    7.94    0.38
   0 -21  -2    7.99    0.40
   0 -21   2    7.50    0.42
   0  21   2    7.89    0.40
   0  21  -2    8.67    0.40
   1 -21   2    0.18    0.12
  -1 -21  -2    0.08    0.08
  -1 -21  -2    0.08    0.08
  -1  21  -2    0.04    0.10
   1  21   2    0.03    0.10
   2 -21   2    0.24    0.12
  -2  21  -2    0.34    0.13
   2 -22  -2    5.65    0.44
   1 -22  -2    4.39    0.23
   1 -22  -2    4.70    0.29
  -1  22   2    4.58    0.28
   0 -22   2   12.43    0.49
   0  22  -2   11.97    0.46
   0  22   2   12.31    0.47
   1 -22   2   37.12    1.04
  -1  22  -2   36.19    0.99
  -7   0   3   -0.07    0.14
  -7   0   3   -0.22    0.14
  -6   0   3    0.06    0.16
  -6   0   3    0.10    0.17
  -6   0   3   -0.03    0.13
  -6   0   3   -0.06    0.15
  -5   0   3    0.00    0.13
  -5   0   3   -0.04    0.13
  -5   0   3    0.06    0.13
  -4   0   3    0.11    0.11
  -4   0   3    0.03    0.10
  -4   0   3    0.11    0.11
  -4   0   3    0.05    0.05
   3   0  -3    0.11    0.07
   2   0  -3   -0.01    0.08
   1   0  -3   -0.17    0.08
   0   0   3    0.03    0.10
   0   0  -3   -0.06    0.11
   1   0   3    0.07    0.12
  -1   0  -3    0.01    0.11
   2   0   3    0.03    0.12
  -3   0  -3    0.05    0.11
  -3   0  -3   -0.08    0.06
   3   0   3   -0.05    0.13
  -4   0  -3   -0.06    0.08
  -4   0  -3   -0.19    0.09
  -4   0  -3   -0.08    0.11
  -5   0  -3    0.00    0.09
  -5   0  -3   -0.04    0.09
  -5   0  -3   -0.03    0.10
  -6   0  -3    0.06    0.08
   6   0   3    0.13    0.10
  -6   0  -3    0.10    0.10
  -7  -1   3    5.51    0.44
  -7  -1   3    4.61    0.36
  -7   1   3    4.54    0.43
  -7   1   3    5.03    0.40
  -6  -1   3   56.56    1.73
  -6  -1   3   57.24    1.66
  -6  -1   3   58.95    1.76
  -6  -1   3   54.16    2.02
  -6   1   3   54.40    1.72
  -6   1   3   57.32    1.77
  -6   1   3   53.79    1.65
  -5  -1   3   21.92    0.86
  -5  -1   3   21.35    0.81
  -5  -1   3   22.54    0.89
  -5  -1   3   21.86    0.68
  -5  -1   3   22.01    0.64
  -5   1   3   20.34    0.80
  -5   1   3   21.69    0.89
  -5   1   3   21.59    0.87
  -4  -1   3   23.77    0.98
  -4  -1   3   20.37    0.59
  -4  -1   3   19.29    0.73
  -4  -1   3   20.95    0.77
  -4   1   3   20.04    0.75
   4   1  -3   20.14    0.59
  -4   1   3   19.27    0.74
  -4   1   3   20.40    0.71
   3  -1  -3   38.04    0.99
   3   1  -3   39.05    1.01
   2  -1  -3    3.09    0.23
   2   1  -3    3.42    0.23
   1  -1  -3   10.00    0.48
   1   1  -3    9.89    0.46
   0  -1  -3   67.55    1.84
   0  -1   3   63.82    1.77
   0   1  -3   68.55    1.82
   0   1   3   65.27    1.76
  -1  -1  -3  328.95    7.55
   1  -1   3  340.95    7.50
   1   1   3  325.15    7.50
  -1   1  -3  327.08    7.50
   2  -1   3    0.50    0.18
   2   1   3    0.71    0.25
  -3  -1  -3  106.84    2.68
   3  -1   3  107.64    3.09
  -3  -1  -3  105.49    2.58
   3   1   3  111.46    3.12
  -4  -1  -3    8.03    0.44
  -4  -1  -3    8.22    0.43
  -4  -1  -3    8.47    0.49
  -4   1  -3    7.31    0.44
  -4   1  -3    8.35    0.44
   4   1   3    8.02    0.41
  -4   1  -3    7.94    0.46
  -5  -1  -3   12.58    0.56
  -5  -1  -3   11.34    0.53
  -5  -1  -3   11.84    0.54
  -5   1  -3   11.75    0.52
   5   1   3   11.21    0.50
  -5   1  -3   11.46    0.53
  -5   1  -3   12.04    0.55
  -6  -1  -3    0.05    0.08
   6  -1   3    0.02    0.09
  -6  -1  -3    0.05    0.09
  -6   1  -3   -0.02    0.07
   6   1   3    0.23    0.10
  -7  -2   3   32.96    1.14
  -7   2   3   34.05    1.19
  -7   2   3   33.95    1.12
  -6  -2   3    4.98    0.44
  -6  -2   3    4.07    0.39
  -6  -2   3    4.43    0.47
  -6  -2   3    4.49    0.21
  -6  -2   3    4.08    0.51
  -6   2   3    3.53    0.42
  -6   2   3    4.26    0.43
  -6   2   3    4.64    0.40
  -5  -2   3    3.31    0.18
  -5  -2   3    3.43    0.38
  -5  -2   3    3.54    0.35
  -5  -2   3    3.22    0.31
  -5  -2   3    3.64    0.37
  -5  -2   3    3.28    0.23
  -5  -2   3    3.57    0.26
  -5   2   3    3.77    0.43
  -5   2   3    2.90    0.36
  -5   2   3    3.53    0.33
  -4  -2   3    0.33    0.13
  -4  -2   3    0.33    0.13
  -4  -2   3    0.34    0.06
   4   2  -3    0.52    0.12
  -4   2   3    0.22    0.13
  -4   2   3    0.16    0.12
  -4   2   3    0.28    0.13
   3  -2  -3  225.79    5.07
   3   2  -3  239.50    5.16
  -2  -2   3   81.89    1.86
   2  -2  -3   79.61    1.97
   2   2  -3   77.66    1.94
   1  -2  -3   19.01    0.72
   1   2  -3   19.18    0.68
   0  -2  -3   34.74    1.15
   0  -2   3   35.26    1.10
   0   2   3   34.06    1.04
   0   2  -3   32.98    1.11
  -1  -2  -3   34.19    1.23
   1  -2   3   35.24    1.19
  -1   2  -3   35.22    1.22
   1   2   3   34.93    1.18
   2  -2   3   70.70    2.11
   2   2   3   71.79    2.14
  -3  -2  -3   79.32    2.13
  -3  -2  -3   80.40    2.03
   3  -2   3   84.95    2.54
   3   2   3   83.10    2.53
  -4  -2  -3  137.05    3.37
  -4  -2  -3  140.18    3.38
  -4  -2  -3  144.51    3.49
  -4   2  -3  145.87    3.40
   4   2   3  143.20    3.33
  -4   2  -3  137.20    3.37
  -4   2  -3  144.21    3.45
  -4   2  -3  146.19    3.39
  -5  -2  -3   11.65    0.54
  -5  -2  -3   11.81    0.54
  -5  -2  -3   11.10    0.53
  -5   2  -3   11.60    0.53
  -5   2  -3   12.29    0.56
   5   2   3   11.17    0.50
  -5   2  -3   11.41    0.58
  -6  -2  -3   45.39    1.20
  -6  -2  -3   42.21    1.20
   6   2   3   41.48    1.18
  -6   2  -3   43.91    1.22
  -7  -3   3    0.61    0.19
  -7   3   3    0.80    0.21
  -6  -3   3    3.88    0.44
  -6  -3   3    3.74    0.42
  -6  -3   3    3.09    0.19
  -6  -3   3    2.95    0.47
  -6  -3   3    3.51    0.25
  -6  -3   3    3.32    0.22
  -6   3   3    2.74    0.36
  -6   3   3    2.86    0.41
  -6   3   3    2.65    0.38
  -5  -3   3    0.32    0.17
  -5  -3   3    0.33    0.08
  -5  -3   3    0.43    0.12
  -5  -3   3    0.39    0.18
  -5  -3   3    0.36    0.12
  -5  -3   3    0.29    0.15
  -5  -3   3    0.39    0.19
  -5   3   3    0.45    0.17
  -5   3   3    0.33    0.18
  -5   3   3    1.20    0.26
  -4  -3   3    0.78    0.18
  -4  -3   3    1.03    0.11
  -4  -3   3    0.92    0.18
  -4   3   3    1.10    0.21
   4   3  -3    1.66    0.19
  -4   3   3    1.10    0.22
  -4   3   3    1.33    0.24
   3  -3  -3    1.92    0.16
   3   3  -3    2.23    0.21
  -2  -3   3    0.32    0.12
  -2  -3   3    0.39    0.18
   2  -3  -3    0.34    0.12
   2   3  -3    0.72    0.15
   1  -3  -3    6.44    0.41
   1   3  -3    6.74    0.38
   0  -3  -3   40.37    1.30
   0  -3   3   39.34    1.23
   0   3   3   38.13    1.16
   0   3  -3   40.61    1.25
  -1  -3  -3   99.28    2.67
   1  -3   3  102.19    2.64
   1   3   3   96.95    2.58
  -1   3  -3   99.22    2.64
   2  -3   3    5.82    0.47
   2   3   3    5.66    0.48
  -3  -3  -3   15.40    0.66
  -3  -3  -3   17.04    0.60
  -3  -3  -3   16.36    0.63
  -3  -3  -3   15.05    0.42
   3  -3   3   15.96    0.89
   3   3   3   15.19    0.56
  -3   3  -3   14.20    0.55
  -3   3  -3   14.48    0.62
   3   3   3   15.92    0.90
  -4  -3  -3    0.66    0.16
  -4  -3  -3    0.83    0.21
  -4  -3  -3    0.70    0.19
  -4   3  -3    0.97    0.20
  -4   3  -3    1.29    0.24
  -4   3  -3    0.87    0.19
   4   3   3    0.94    0.18
  -5  -3  -3   31.77    1.02
  -5  -3  -3   32.61    1.05
  -5  -3  -3   32.53    1.02
  -5  -3  -3   31.66    1.03
   5   3   3   32.11    0.99
  -5   3  -3   33.03    1.06
  -6  -3  -3   11.90    0.50
  -6  -3  -3   12.42    0.49
   6   3   3   12.08    0.48
  -7  -4   3    0.83    0.21
  -7   4   3    1.15    0.24
  -6  -4   3    0.04    0.15
  -6  -4   3    0.05    0.16
  -6  -4   3    0.00    0.09
  -6  -4   3   -0.07    0.05
  -6   4   3   -0.01    0.14
  -6   4   3    0.11    0.21
  -6   4   3    0.03    0.18
  -5  -4   3    4.55    0.38
  -5  -4   3    4.00    0.32
  -5  -4   3    3.58    0.49
  -5  -4   3    4.12    0.23
  -5  -4   3    3.63    0.34
  -5   4   3    4.48    0.46
  -5   4   3    4.01    0.35
  -5   4   3    4.22    0.40
  -4  -4   3    2.07    0.28
  -4  -4   3    1.53    0.20
  -4  -4   3    1.59    0.24
  -4  -4   3    1.68    0.13
  -4  -4   3    1.78    0.28
   4   4  -3    1.72    0.22
  -4   4   3    1.62    0.25
  -4   4   3    1.62    0.25
  -4   4   3    2.04    0.26
  -3  -4   3   23.21    0.90
   3  -4  -3   21.68    0.65
  -3  -4   3   22.15    1.02
   3   4  -3   21.70    0.77
  -2  -4   3   24.01    0.94
  -2  -4   3   24.34    1.11
   2  -4  -3   25.14    0.81
   2   4  -3   24.54    0.82
   1  -4  -3   12.61    0.59
   1   4  -3   12.37    0.56
   0  -4   3   31.79    1.07
   0  -4  -3   32.05    1.13
   0   4   3   31.64    1.12
   0   4  -3   34.74    1.11
  -1  -4  -3    0.16    0.14
  -1  -4  -3    0.19    0.14
   1  -4   3    0.59    0.21
   1   4   3    0.29    0.15
  -1   4  -3    0.14    0.13
   2  -4   3    1.83    0.37
   2   4   3    1.72    0.34
  -3  -4  -3    0.21    0.13
   3  -4   3    0.21    0.11
   3  -4   3    0.10    0.16
  -3  -4  -3    0.01    0.09
  -3  -4  -3    0.15    0.07
  -3  -4  -3    0.21    0.07
  -3  -4  -3    0.68    0.18
  -3   4  -3    0.14    0.12
   3   4   3    0.10    0.09
  -3   4  -3    0.20    0.11
  -3   4  -3    0.25    0.12
   3   4   3    0.25    0.18
  -4  -4  -3   18.47    0.73
  -4  -4  -3   19.54    0.72
  -4  -4  -3   19.88    0.74
  -4  -4  -3   19.56    0.82
  -4   4  -3   19.20    0.73
  -4   4  -3   19.87    0.73
   4   4   3   19.19    0.70
  -4   4  -3   20.93    0.80
  -4   4  -3   19.37    0.80
  -5  -4  -3    1.13    0.21
  -5  -4  -3    1.73    0.27
  -5  -4  -3    0.87    0.19
  -5  -4  -3    1.22    0.21
   5   4   3    1.37    0.20
  -5   4  -3    0.94    0.19
  -6  -4  -3    3.13    0.24
  -6  -4  -3    2.72    0.23
   6   4   3    3.03    0.23
  -6   4  -3    2.95    0.23
  -7  -5   3    4.93    0.22
  -7  -5   3    5.38    0.39
  -7   5   3    5.10    0.38
  -6  -5   3   71.52    1.99
  -6  -5   3   69.07    1.97
  -6  -5   3   67.64    1.69
  -6  -5   3   68.44    1.88
  -6   5   3   67.03    1.93
  -6   5   3   70.78    2.08
  -5  -5   3   24.83    0.92
  -5  -5   3   24.96    0.73
  -5  -5   3   23.81    1.33
  -5  -5   3   25.26    0.92
  -5  -5   3   24.45    0.94
  -5   5   3   23.89    0.97
  -5   5   3   23.54    0.96
  -5   5   3   23.57    0.89
  -4  -5   3   17.64    0.69
  -4  -5   3   18.07    0.73
  -4  -5   3   17.70    0.69
  -4  -5   3   18.18    0.54
  -4  -5   3   19.69    1.03
  -4   5   3   16.89    0.66
  -4   5   3   16.22    0.70
   4   5  -3   17.93    0.74
  -4   5   3   17.39    0.52
  -4   5   3   15.97    0.71
  -3  -5   3   62.20    1.95
   3  -5  -3   62.01    1.56
   3   5  -3   62.76    1.72
   2  -5  -3   20.95    0.76
   2   5  -3   20.73    0.77
   1  -5  -3    3.20    0.31
   1  -5  -3    3.43    0.33
   1   5  -3    3.37    0.30
   0  -5  -3  206.36    4.99
   0  -5   3  211.83    4.95
   0  -5  -3  206.04    4.98
   0   5  -3  215.55    4.93
  -1  -5  -3  283.96    6.94
   1  -5   3  295.28    6.90
   1   5   3  316.71    6.90
   2  -5   3   51.49    1.73
   2   5   3   49.87    1.70
   3  -5   3  130.78    3.05
   3  -5   3  129.89    3.62
  -3  -5  -3  135.11    3.27
  -3  -5  -3  133.61    2.93
  -3  -5  -3  133.74    3.12
  -3  -5  -3  132.31    3.13
  -3  -5  -3  131.72    2.92
  -3  -5  -3  130.20    3.08
  -3   5  -3  130.15    3.07
   3   5   3  128.86    3.68
  -3   5  -3  131.35    3.10
   3   5   3  130.25    3.05
  -3   5  -3  127.17    3.16
  -4  -5  -3   29.89    0.96
  -4  -5  -3   29.99    1.07
  -4  -5  -3   29.43    0.98
  -4  -5  -3   29.37    0.98
  -4   5  -3   29.65    1.06
  -4   5  -3   28.67    0.97
  -4   5  -3   30.77    0.97
   4   5   3   29.48    0.94
  -5  -5  -3    7.20    0.42
  -5  -5  -3    7.10    0.41
  -5  -5  -3    7.52    0.43
  -5  -5  -3    7.61    0.42
   5   5   3    7.45    0.41
  -5   5  -3    7.47    0.43
  -6  -5  -3    0.72    0.14
  -6  -5  -3    0.61    0.13
   6   5   3    0.57    0.12
  -6   5  -3    0.56    0.13
  -7  -6   3    1.75    0.14
  -7   6   3    1.40    0.23
  -6  -6   3    4.04    0.42
  -6  -6   3    3.72    0.34
  -6  -6   3    3.30    0.24
  -6   6   3    3.19    0.37
  -6   6   3    3.31    0.44
  -5  -6   3   84.67    2.23
  -5  -6   3   83.47    2.00
  -5  -6   3   80.44    1.98
  -5  -6   3   82.32    2.27
  -5  -6   3   83.38    2.21
  -5   6   3   80.27    2.28
  -5   6   3   82.23    2.19
  -5   6   3   83.43    2.33
  -4  -6   3   65.17    1.58
  -4  -6   3   65.78    1.77
  -4  -6   3   66.65    1.77
  -4  -6   3   65.53    1.85
  -4  -6   3   62.66    1.57
  -4   6   3   64.51    1.72
   4   6  -3   65.09    1.89
  -4   6   3   63.58    1.80
  -4   6   3   68.70    1.61
  -4   6   3   63.44    1.80
  -3  -6   3  676.86   14.27
   3  -6  -3  681.37   14.36
   3   6  -3  642.66   14.53
   2  -6  -3  452.41    9.89
  -2   6   3  439.40    9.93
   2   6  -3  455.70    9.93
   1  -6  -3  219.76    5.27
   1   6  -3  231.89    5.24
   0  -6  -3  458.80    9.90
   0  -6   3  430.80    9.79
   0   6  -3  427.72    9.78
  -1  -6  -3   70.89    2.14
   1  -6   3   69.82    2.10
   1   6   3   72.76    2.07
   2  -6   3   22.87    1.05
   2   6   3   23.15    1.07
  -3  -6  -3    3.95    0.22
  -3  -6  -3    3.87    0.35
  -3  -6  -3    3.71    0.30
   3  -6   3    2.89    0.42
  -3  -6  -3    4.33    0.24
  -3  -6  -3    3.81    0.29
  -3  -6  -3    3.81    0.30
   3  -6   3    4.18    0.27
  -3   6  -3    3.85    0.33
   3   6   3    3.87    0.27
  -3   6  -3    3.98    0.29
  -3   6  -3    3.70    0.29
   3   6   3    3.91    0.49
  -4  -6  -3    6.79    0.41
  -4  -6  -3    7.34    0.45
  -4  -6  -3    8.77    0.46
  -4  -6  -3    7.88    0.51
  -4   6  -3    7.27    0.48
  -4   6  -3    8.13    0.44
  -4   6  -3    7.70    0.45
   4   6   3    7.77    0.42
  -5  -6  -3    2.03    0.28
  -5  -6  -3    1.51    0.22
  -5  -6  -3    2.24    0.27
  -5  -6  -3    1.62    0.24
  -5   6  -3    1.86    0.26
  -5   6  -3    2.06    0.27
   5   6   3    1.80    0.24
   6  -6   3    7.71    0.39
  -6  -6  -3    8.90    0.38
  -6  -6  -3    7.44    0.36
  -6  -6  -3    7.34    0.36
   6   6   3    7.68    0.36
  -6   6  -3    7.96    0.38
  -7  -7   3    9.25    0.34
  -7   7   3    9.56    0.48
  -6  -7   3   14.89    0.54
  -6  -7   3   15.20    0.73
  -6  -7   3   14.96    0.55
  -6  -7   3   15.58    0.71
  -6   7   3   15.86    0.70
  -5  -7   3   30.17    1.14
  -5  -7   3   30.71    0.89
  -5  -7   3   32.20    0.92
  -5  -7   3   30.83    1.06
  -5   7   3   29.93    1.03
  -5   7   3   28.79    1.14
  -5   7   3   30.93    1.15
  -4  -7   3    2.85    0.27
  -4  -7   3    3.14    0.21
  -4  -7   3    2.84    0.32
  -4  -7   3    2.91    0.21
  -4   7   3    3.19    0.23
  -4   7   3    3.19    0.32
  -4   7   3    2.53    0.33
   4   7  -3    2.62    0.32
  -4   7   3    2.92    0.27
  -3  -7   3   18.99    0.65
   3  -7  -3   21.23    0.74
  -3  -7   3   20.21    0.62
  -3   7   3   19.52    0.68
   3   7  -3   20.43    0.85
   2  -7  -3    2.00    0.26
  -2   7   3    1.83    0.27
   2   7  -3    2.33    0.28
   1  -7  -3    0.19    0.13
   1   7  -3    0.25    0.14
   0  -7   3   92.74    2.51
   0  -7  -3   92.56    2.58
   0   7  -3   93.94    2.51
  -1  -7  -3   49.71    1.67
   1  -7   3   49.08    1.64
   2  -7   3   45.18    1.62
  -2  -7  -3   44.47    1.35
   2   7   3   44.32    1.59
   2   7   3   44.01    1.17
  -2   7  -3   42.66    1.17
  -3  -7  -3   38.27    1.27
  -3  -7  -3   38.08    0.99
  -3  -7  -3   38.63    1.12
   3  -7   3   36.91    1.57
  -3  -7  -3   39.45    1.17
  -3  -7  -3   39.42    1.00
   3  -7   3   37.34    1.09
  -3   7  -3   38.41    1.22
  -3   7  -3   36.33    1.12
   3   7   3   38.63    1.11
  -3   7  -3   37.87    1.11
   3   7   3   37.04    1.58
  -4  -7  -3   39.74    1.33
   4  -7   3   37.78    1.14
  -4  -7  -3   38.20    1.21
  -4  -7  -3   40.40    1.20
  -4  -7  -3   39.52    1.21
  -4   7  -3   38.64    1.19
  -4   7  -3   40.11    1.29
  -4   7  -3   40.89    1.19
   4   7   3   37.41    1.16
  -5  -7  -3    0.16    0.11
  -5  -7  -3    0.29    0.13
   5  -7   3    0.25    0.12
  -5  -7  -3    0.34    0.14
  -5  -7  -3    0.17    0.12
  -5   7  -3    0.30    0.14
   5   7   3    0.21    0.11
  -6  -7  -3    0.88    0.15
  -6  -7  -3    0.60    0.13
   6  -7   3    0.69    0.13
  -6  -7  -3    0.72    0.13
  -6  -7  -3    0.64    0.13
  -6   7  -3    0.72    0.13
   6   7   3    0.64    0.12
  -7  -8   3    2.56    0.17
  -7  -8   3    2.42    0.19
  -7   8   3    2.16    0.25
  -6  -8   3    0.08    0.09
  -6  -8   3    0.04    0.08
  -6  -8   3    0.05    0.13
  -6   8   3    0.01    0.12
  -5  -8   3    6.44    0.43
  -5  -8   3    6.27    0.50
  -5  -8   3    5.94    0.33
  -5  -8   3    5.83    0.34
  -5   8   3    6.47    0.55
  -5   8   3    6.61    0.43
  -5   8   3    6.07    0.33
  -5   8   3    6.35    0.32
  -4  -8   3    0.99    0.16
  -4  -8   3    1.10    0.17
  -4  -8   3    0.92    0.19
   4  -8  -3    1.29    0.20
  -4   8   3    1.21    0.27
   4   8  -3    0.94    0.25
  -4   8   3    1.08    0.18
  -4   8   3    1.10    0.22
   3  -8  -3   25.06    0.89
  -3  -8   3   24.78    0.76
  -3  -8   3   24.11    0.73
  -3  -8   3   23.83    0.78
  -3   8   3   25.13    1.04
  -3   8   3   24.33    0.83
   3   8  -3   24.12    0.99
   2  -8  -3   33.58    1.16
  -2   8   3   35.02    1.49
   2   8  -3   33.07    1.19
   1  -8  -3    5.61    0.45
   1   8  -3    5.95    0.44
   0  -8  -3   47.97    1.62
   0   8  -3   46.64    1.54
  -1  -8  -3    2.16    0.38
   1  -8   3    1.80    0.32
   2  -8   3    0.72    0.24
   2  -8   3    1.57    0.19
  -2  -8  -3    0.74    0.20
  -2  -8  -3    1.03    0.19
  -2   8  -3    0.89    0.18
  -2   8  -3    1.17    0.19
  -2   8  -3    1.35    0.23
   2   8   3    1.47    0.19
  -2   8  -3    1.29    0.18
  -3  -8  -3    2.26    0.26
  -3  -8  -3    1.83    0.30
  -3  -8  -3    2.02    0.19
  -3  -8  -3    2.45    0.30
   3  -8   3    2.95    0.29
  -3  -8  -3    1.96    0.20
   3  -8   3    1.98    0.45
   3   8   3    2.24    0.26
   3   8   3    2.87    0.55
  -3   8  -3    1.94    0.26
  -3   8  -3    2.57    0.34
  -3   8  -3    2.35    0.28
  -4  -8  -3   26.78    0.90
  -4  -8  -3   27.13    0.93
  -4  -8  -3   24.78    0.99
   4  -8   3   24.72    0.84
   4   8   3   25.68    0.87
  -4   8  -3   25.11    0.89
  -4   8  -3   26.10    0.99
  -4   8  -3   25.32    0.88
  -5  -8  -3    0.66    0.17
  -5  -8  -3    0.43    0.14
  -5  -8  -3    0.31    0.14
   5  -8   3    0.42    0.14
  -5  -8  -3    0.46    0.15
  -5   8  -3    0.47    0.15
   5   8   3    0.47    0.14
   6  -8   3    0.31    0.10
  -6  -8  -3    0.61    0.12
  -6  -8  -3    0.57    0.12
  -6  -8  -3    0.36    0.11
   6   8   3    0.43    0.10
  -6   8  -3    0.58    0.12
   7   9  -3    0.13    0.13
  -7   9   3    0.04    0.11
  -6  -9   3   35.68    1.04
  -6  -9   3   35.78    1.02
  -6  -9   3   36.29    1.29
  -6   9   3   36.75    1.16
  -5  -9   3    6.16    0.35
  -5  -9   3    5.14    0.32
  -5  -9   3    3.44    0.63
  -5   9   3    5.25    0.55
  -5   9   3    5.59    0.32
  -5   9   3    5.63    0.40
  -4  -9   3    8.01    0.40
  -4  -9   3    8.72    0.41
  -4  -9   3    8.49    0.40
  -4  -9   3    8.39    0.47
  -4   9   3    8.24    0.45
  -4   9   3    8.77    0.66
  -4   9   3    9.17    0.46
   3  -9  -3   28.08    1.00
  -3  -9   3   26.29    0.80
  -3  -9   3   28.14    0.82
  -3  -9   3   25.39    0.88
  -3  -9   3   27.69    0.87
  -3  -9   3   27.48    0.80
  -3   9   3   27.55    1.24
  -3   9   3   26.09    0.92
  -3   9   3   22.74    0.84
   3   9  -3   29.04    1.14
  -2  -9   3   15.19    0.60
   2  -9  -3   15.94    0.77
  -2  -9   3   16.69    0.62
   2   9  -3   15.47    0.78
   1  -9  -3    2.88    0.36
   1   9  -3    2.46    0.32
   0  -9  -3   87.06    2.51
   0   9  -3   80.23    2.39
   1  -9   3  133.53    3.57
   2  -9   3    7.51    0.40
  -2  -9  -3    8.77    0.51
  -2  -9  -3    8.04    0.42
   2  -9   3    8.11    0.38
   2  -9   3    7.85    0.66
  -2   9  -3    7.44    0.40
   2   9   3    7.92    0.42
  -2   9  -3    8.60    0.36
  -2   9  -3    7.69    0.40
   2   9   3    8.16    0.38
  -2   9  -3    8.48    0.47
  -2   9  -3    8.08    0.34
  -3  -9  -3   52.64    1.63
  -3  -9  -3   52.50    1.29
  -3  -9  -3   51.75    1.27
   3  -9   3   52.10    1.41
  -3  -9  -3   52.09    1.49
  -3  -9  -3   50.07    1.43
   3   9   3   51.51    1.42
  -3   9  -3   52.53    1.56
  -3   9  -3   52.00    1.46
  -3   9  -3   49.96    1.43
  -4  -9  -3    0.08    0.12
  -4  -9  -3    0.63    0.18
   4  -9   3    0.47    0.15
  -4  -9  -3    0.25    0.16
  -4   9  -3    0.16    0.16
  -4   9  -3    0.18    0.13
  -4   9  -3    0.14    0.13
   4   9   3    0.11    0.12
  -5  -9  -3   19.05    0.68
  -5  -9  -3   18.92    0.72
  -5  -9  -3   17.74    0.69
   5  -9   3   18.11    0.65
   5   9   3   16.79    0.66
  -5   9  -3   18.87    0.69
  -6  -9  -3    5.33    0.32
   6   9   3    5.60    0.27
  -6 -10   3   11.72    0.67
  -6 -10   3   12.06    0.49
  -6 -10   3   12.55    0.51
  -6  10   3   12.79    0.58
  -5 -10   3    0.71    0.15
  -5  10   3    0.40    0.18
  -5  10   3    0.42    0.13
  -4 -10   3    6.43    0.36
  -4 -10   3    6.51    0.37
  -4 -10   3    6.49    0.36
  -4  10   3    6.43    0.41
  -4  10   3    6.36    0.39
  -3 -10   3   38.07    1.13
  -3 -10   3   37.33    1.13
  -3 -10   3   38.21    1.07
  -3 -10   3   35.02    1.03
   3 -10  -3   36.81    1.28
  -3 -10   3   37.15    1.04
  -3  10   3   37.64    1.20
   3  10  -3   36.27    1.40
  -3  10   3   34.60    0.99
   2 -10  -3    0.58    0.20
  -2 -10   3    0.51    0.15
  -2 -10   3    0.55    0.13
  -2 -10   3    1.35    0.24
  -2 -10   3    0.42    0.12
   2  10  -3    0.36    0.14
   2  10  -3    0.72    0.15
   2  10  -3    0.82    0.25
   1 -10  -3   10.21    0.67
  -1 -10   3   10.06    0.50
   1  10  -3   10.73    0.65
   0 -10  -3    1.56    0.34
   0 -10   3    2.55    0.36
   1 -10   3   50.99    1.29
   1 -10   3   49.32    1.34
   1 -10   3   49.17    1.75
  -1 -10  -3   48.92    1.47
  -1  10  -3   47.11    1.22
   1  10   3   50.85    1.35
  -1  10  -3   47.01    1.40
   1  10   3   49.32    1.24
  -1  10  -3   47.18    1.31
   2 -10   3   57.27    1.49
   2 -10   3   54.73    2.05
  -2 -10  -3   56.39    1.69
  -2 -10  -3   55.68    1.54
   2 -10   3   56.99    1.54
  -2  10  -3   58.28    1.54
  -2  10  -3   56.95    1.34
  -2  10  -3   55.98    1.52
   2  10   3   55.50    1.53
  -2  10  -3   57.08    1.32
  -2  10  -3   54.01    1.60
   2  10   3   57.59    1.48
  -3 -10  -3  114.75    2.99
  -3 -10  -3  115.72    2.57
  -3 -10  -3  110.10    2.76
   3 -10   3  115.76    2.76
  -3 -10  -3  112.94    2.56
  -3 -10  -3  115.42    2.84
   3  10   3  115.18    2.77
  -3  10  -3  113.64    2.80
  -3  10  -3  112.20    2.78
  -3  10  -3  113.53    2.91
  -4 -10  -3   55.18    1.56
  -4 -10  -3   54.94    1.69
   4 -10   3   52.82    1.48
  -4 -10  -3   53.01    1.50
  -4  10  -3   55.30    1.63
   4  10   3   53.21    1.51
  -4  10  -3   52.69    1.52
  -4  10  -3   54.92    1.52
  -5 -10  -3   32.15    0.99
  -5 -10  -3   29.33    0.98
  -5 -10  -3   30.59    0.93
  -5 -10  -3   31.48    0.95
   5 -10   3   30.36    0.92
  -5  10  -3   31.46    0.97
   5  10   3   31.97    0.96
  -6 -11   3    0.11    0.12
  -6 -11   3    0.24    0.11
  -6 -11   3    0.11    0.08
  -6  11   3    0.09    0.12
  -5 -11   3    2.66    0.25
  -5 -11   3    2.98    0.26
  -5  11   3    2.97    0.33
  -5  11   3    2.81    0.27
  -4 -11   3    0.55    0.17
  -4 -11   3    0.50    0.14
  -4 -11   3    0.49    0.14
  -4 -11   3    0.87    0.18
  -4  11   3    0.60    0.13
  -4  11   3    0.85    0.20
   3 -11  -3    0.17    0.13
  -3 -11   3    0.00    0.08
  -3 -11   3    0.14    0.11
  -3 -11   3    0.06    0.09
  -3 -11   3    0.20    0.10
  -3  11   3    0.01    0.09
  -3  11   3   -0.04    0.09
   3  11  -3    0.15    0.14
   3  11  -3    0.05    0.09
   3  11  -3   -0.07    0.13
   2 -11  -3   12.74    0.73
  -2 -11   3   12.54    0.56
  -2 -11   3   11.22    0.47
  -2 -11   3   11.88    0.49
  -2 -11   3   11.48    0.48
   2  11  -3   11.91    0.47
   2  11  -3   11.62    0.54
   2  11  -3   12.25    0.74
  -2  11   3   11.87    0.48
  -1 -11   3    2.63    0.23
   1 -11  -3    2.52    0.43
  -1 -11   3    1.91    0.24
  -1 -11   3    1.85    0.26
  -1 -11   3    2.52    0.30
  -1  11   3    2.23    0.25
   1  11  -3    2.10    0.27
   1  11  -3    2.18    0.19
   1  11  -3    1.99    0.35
   0 -11  -3    2.43    0.43
   0 -11   3    2.98    0.29
   0 -11   3    3.19    0.29
   0 -11   3    2.99    0.30
   0 -11   3    2.94    0.21
   0  11  -3    3.17    0.30
   0  11   3    3.20    0.26
   0  11   3    3.38    0.28
   0  11  -3    2.58    0.29
   0  11  -3    2.49    0.20
  -1 -11  -3    1.10    0.18
  -1 -11  -3    1.00    0.18
  -1 -11  -3    1.18    0.25
   1 -11   3    1.20    0.20
   1 -11   3    1.26    0.18
   1 -11   3    1.12    0.20
  -1  11  -3    0.89    0.18
  -1  11  -3    1.21    0.21
  -1  11  -3    0.97    0.18
   1  11   3    0.76    0.18
  -1  11  -3    0.77    0.20
   1  11   3    1.19    0.15
  -2 -11  -3    0.65    0.17
   2 -11   3    0.32    0.22
  -2 -11  -3    0.42    0.20
   2 -11   3    0.38    0.14
   2 -11   3    0.55    0.14
   2  11   3    0.39    0.15
   2  11   3    0.67    0.14
  -2  11  -3    0.34    0.14
  -2  11  -3    0.42    0.15
  -2  11  -3    0.74    0.19
  -3 -11  -3    0.32    0.17
  -3 -11  -3    0.57    0.19
   3 -11   3    0.40    0.14
   3 -11   3    0.42    0.13
  -3  11  -3    0.52    0.16
  -3  11  -3    0.33    0.18
   3  11   3    0.42    0.14
  -3  11  -3    0.54    0.16
  -4 -11  -3    1.48    0.25
   4 -11   3    1.08    0.19
  -4 -11  -3    1.68    0.27
  -4 -11  -3    1.94    0.33
  -4 -11  -3    1.45    0.22
  -4  11  -3    1.43    0.25
   4  11   3    1.57    0.22
  -4  11  -3    1.58    0.25
  -4  11  -3    1.15    0.21
  -5 -11  -3    1.63    0.20
  -5 -11  -3    1.58    0.22
  -5 -11  -3    1.62    0.23
  -5 -11  -3    1.96    0.23
   5 -11   3    1.81    0.21
   5  11   3    1.82    0.21
  -5  11  -3    1.60    0.21
  -6 -12   3    4.88    0.30
  -6 -12   3    5.38    0.31
   6  12  -3    5.78    0.39
  -5 -12   3    0.69    0.16
  -5 -12   3    0.64    0.15
  -5  12   3    0.48    0.15
  -4 -12   3    3.79    0.29
  -4 -12   3    3.65    0.30
  -4 -12   3    3.87    0.30
  -4 -12   3    3.93    0.32
  -4  12   3    3.71    0.35
  -4  12   3    4.06    0.26
   4  12  -3    3.63    0.40
  -3 -12   3    5.83    0.41
  -3 -12   3    5.56    0.35
  -3 -12   3    6.15    0.36
  -3 -12   3    6.22    0.37
   3  12  -3    5.64    0.41
  -3  12   3    6.37    0.35
   3  12  -3    6.29    0.35
   2 -12  -3    3.53    0.41
  -2 -12   3    3.11    0.26
  -2 -12   3    3.56    0.32
  -2 -12   3    3.73    0.27
  -2 -12   3    3.05    0.26
  -2  12   3    3.33    0.26
   2  12  -3    4.21    0.34
   2  12  -3    2.95    0.41
   2  12  -3    3.10    0.25
  -1 -12   3    2.07    0.30
  -1 -12   3    2.03    0.26
   1 -12  -3    1.98    0.41
  -1 -12   3    1.92    0.23
  -1 -12   3    1.77    0.21
  -1 -12   3    1.81    0.26
   1  12  -3    1.90    0.21
  -1  12   3    1.78    0.23
   1  12  -3    1.58    0.25
  -1  12   3    1.95    0.25
   1  12  -3    1.60    0.23
   0 -12   3    6.30    0.41
   0 -12   3    6.49    0.37
   0 -12   3    6.53    0.39
   0 -12   3    6.70    0.33
   0 -12  -3    5.53    0.57
   0 -12   3    6.12    0.44
   0  12  -3    6.38    0.37
   0  12  -3    6.32    0.32
   0  12  -3    6.38    0.41
   0  12   3    6.41    0.37
   0  12   3    6.53    0.37
   1 -12   3   37.99    1.12
  -1 -12  -3   37.07    1.10
  -1 -12  -3   39.25    1.30
   1 -12   3   38.06    1.09
   1 -12   3   38.74    1.16
  -1  12  -3   39.08    1.13
   1  12   3   37.85    1.01
  -1  12  -3   39.04    1.23
  -1  12  -3   37.71    1.12
  -1  12  -3   37.04    1.22
   1  12   3   39.24    1.17
   2 -12   3   21.76    0.75
  -2 -12  -3   21.63    0.77
   2 -12   3   21.15    0.79
  -2 -12  -3   21.19    0.79
  -2 -12  -3   21.58    0.93
  -2  12  -3   21.79    0.80
   2  12   3   21.24    0.79
  -2  12  -3   22.05    0.86
  -2  12  -3   22.14    0.78
   2  12   3   21.92    0.72
  -3 -12  -3   10.81    0.54
   3 -12   3   10.73    0.50
  -3 -12  -3   10.86    0.56
  -3 -12  -3   11.36    0.66
   3 -12   3   10.17    0.51
  -3  12  -3   12.64    0.63
  -3  12  -3   10.39    0.53
  -3  12  -3   10.47    0.52
   3  12   3   10.59    0.49
  -4 -12  -3   66.23    1.81
  -4 -12  -3   65.36    1.88
  -4 -12  -3   66.74    1.78
  -4 -12  -3   66.95    1.93
   4 -12   3   66.19    1.73
   4  12   3   64.85    1.72
  -4  12  -3   67.23    1.77
  -4  12  -3   63.46    1.76
  -4  12  -3   66.37    1.86
  -5 -12  -3    7.97    0.37
  -5 -12  -3    8.72    0.40
  -5 -12  -3    8.38    0.40
   5 -12   3    8.65    0.38
  -5  12  -3    8.84    0.40
   5  12   3    8.40    0.37
  -6 -13   3   32.51    0.91
  -6 -13   3   30.90    0.92
   6  13  -3   31.94    1.01
  -5 -13   3   11.33    0.51
  -5 -13   3   10.80    0.49
  -5  13   3   11.29    0.55
   5  13  -3   10.79    0.57
  -5  13   3    9.45    0.39
   5  13  -3   10.00    0.46
  -4 -13   3   15.29    0.63
  -4 -13   3   15.32    0.66
  -4 -13   3   15.70    0.65
  -4 -13   3   15.40    0.62
   4  13  -3   15.41    0.61
   4  13  -3   16.72    0.74
  -4  13   3   15.40    0.57
  -4  13   3   15.04    0.75
  -3 -13   3   25.00    0.83
  -3 -13   3   24.53    0.93
  -3 -13   3   24.89    0.85
  -3 -13   3   23.20    0.82
   3  13  -3   24.37    0.93
  -3  13   3   24.61    0.80
   3  13  -3   23.88    0.80
  -2 -13   3    3.41    0.34
  -2 -13   3    3.47    0.28
  -2 -13   3    3.22    0.27
  -2  13   3    3.11    0.26
   2  13  -3    3.58    0.26
  -2  13   3    3.41    0.27
   2  13  -3    3.97    0.41
   2  13  -3    3.20    0.44
  -1 -13   3    1.95    0.25
   1 -13  -3    0.88    0.27
  -1 -13   3    2.77    0.31
  -1 -13   3    1.88    0.27
  -1 -13   3    1.19    0.23
   1  13  -3    1.64    0.27
  -1  13   3    1.72    0.24
   1  13  -3    1.98    0.22
   1  13  -3    1.26    0.21
  -1  13   3    2.03    0.27
   0 -13   3   48.09    1.37
   0 -13   3   45.60    1.40
   0 -13  -3   44.29    1.83
   0 -13   3   46.83    1.46
   0 -13   3   47.09    1.26
   0 -13   3   47.63    1.32
   0  13   3   46.88    1.23
   0  13  -3   47.85    1.32
   0  13  -3   47.14    1.24
   0  13   3   46.74    1.34
   0  13  -3   47.49    1.42
   0  13   3   46.57    1.26
   0  13   3   47.32    1.35
  -1 -13  -3   83.85    2.12
   1 -13   3   87.39    2.21
   1 -13   3   86.59    2.14
  -1 -13  -3   85.18    2.35
   1 -13   3   86.77    2.11
  -1  13  -3   86.02    2.23
   1  13   3   84.80    2.19
  -1  13  -3   82.11    2.26
   1  13   3   78.87    2.40
  -1  13  -3   87.03    2.17
   2 -13   3   15.64    0.66
  -2 -13  -3   15.54    0.78
  -2 -13  -3   15.75    0.64
   2 -13   3   14.84    0.61
   2  13   3   14.36    0.64
  -2  13  -3   15.35    0.71
  -2  13  -3   15.96    0.66
  -2  13  -3   15.16    0.63
   2  13   3   15.47    0.57
  -3 -13  -3   40.97    1.44
   3 -13   3   39.85    1.23
  -3 -13  -3   41.94    1.27
   3 -13   3   42.15    1.22
   3  13   3   42.49    1.20
  -3  13  -3   41.63    1.24
  -3  13  -3   42.41    1.35
  -3  13  -3   42.22    1.27
  -4 -13  -3    0.95    0.19
  -4 -13  -3    0.71    0.20
   4 -13   3    1.07    0.18
  -4  13  -3    0.87    0.18
  -4  13  -3    1.10    0.19
  -4  13  -3    0.72    0.19
   4  13   3    0.80    0.16
  -5 -13  -3    3.80    0.25
   5 -13   3    3.58    0.24
  -5 -13  -3    3.74    0.25
   5  13   3    3.71    0.22
  -5  13  -3    3.85    0.26
  -6 -14   3    0.25    0.10
   6  14  -3    0.30    0.14
  -5 -14   3    1.49    0.21
  -5 -14   3    2.02    0.24
   5  14  -3    1.78    0.22
   5  14  -3    1.94    0.29
  -5  14   3    1.99    0.25
  -5  14   3    1.77    0.19
  -4 -14   3   13.52    0.58
  -4 -14   3   14.37    0.61
  -4 -14   3   14.13    0.60
  -4 -14   3   13.77    0.63
  -4  14   3   13.59    0.72
   4  14  -3   14.40    0.58
  -4  14   3   14.73    0.55
   4  14  -3   14.62    0.70
  -3 -14   3   52.63    1.49
  -3 -14   3   55.29    1.53
  -3 -14   3   54.43    1.62
  -3 -14   3   53.39    1.49
  -3  14   3   54.70    1.45
   3  14  -3   54.25    1.48
   3  14  -3   51.66    1.62
  -2 -14   3   40.45    1.20
  -2 -14   3   42.39    1.20
  -2 -14   3   41.27    1.34
  -2  14   3   41.03    1.20
  -2  14   3   40.32    1.17
   2  14  -3   40.34    1.30
   2  14  -3   39.87    1.16
  -1 -14   3   15.20    0.69
  -1 -14   3   14.79    0.61
  -1 -14   3   15.75    0.74
  -1 -14   3   15.18    0.66
  -1  14   3   16.07    0.64
  -1  14   3   17.25    0.65
   1  14  -3   15.66    0.58
   1  14  -3   16.21    0.72
   1  14  -3   15.34    0.61
   0 -14   3   15.23    0.73
   0 -14   3   15.40    0.62
   0 -14   3   15.42    0.57
   0 -14   3   15.14    0.66
   0  14  -3   16.80    0.64
   0  14   3   15.15    0.63
   0  14  -3   15.55    0.71
   0  14  -3   15.62    0.55
   1 -14   3    4.25    0.36
  -1 -14  -3    4.16    0.42
  -1 -14  -3    4.79    0.33
   1 -14   3    4.63    0.31
  -1  14  -3    4.68    0.39
   1  14   3    4.56    0.42
   1  14   3    5.01    0.38
  -1  14  -3    4.83    0.37
  -1  14  -3    4.43    0.34
  -2 -14  -3    0.47    0.16
  -2 -14  -3    1.26    0.28
   2 -14   3    0.49    0.14
  -2 -14  -3    0.31    0.18
   2 -14   3    0.34    0.16
  -2  14  -3    0.44    0.15
  -2  14  -3    0.52    0.19
   2  14   3    0.59    0.19
   2  14   3    0.54    0.12
  -2  14  -3    0.36    0.14
  -3 -14  -3    4.58    0.43
   3 -14   3    4.14    0.31
  -3 -14  -3    4.17    0.34
   3 -14   3    3.96    0.32
  -3  14  -3    4.40    0.35
  -3  14  -3    4.08    0.32
   3  14   3    4.47    0.29
  -3  14  -3    3.57    0.38
  -4 -14  -3    1.49    0.27
   4 -14   3    1.49    0.19
  -4 -14  -3    1.61    0.23
  -4  14  -3    2.01    0.25
   4  14   3    2.37    0.21
  -4  14  -3    1.53    0.22
  -4  14  -3    2.25    0.28
  -5 -14  -3    0.34    0.11
  -5  14  -3    0.22    0.10
  -5 -15   3    0.81    0.17
  -5 -15   3    0.66    0.15
  -5 -15   3    0.70    0.15
   5  15  -3    0.81    0.15
  -5  15   3    0.89    0.18
   5  15  -3    0.95    0.21
  -5  15   3    0.92    0.15
  -4 -15   3    6.06    0.41
  -4 -15   3    6.23    0.38
  -4 -15   3    5.97    0.38
   4 -15  -3    6.35    0.37
  -4 -15   3    6.06    0.37
   4  15  -3    6.51    0.46
  -4  15   3    6.43    0.35
   4  15  -3    6.01    0.36
  -3 -15   3    8.15    0.45
  -3 -15   3    8.25    0.45
  -3 -15   3    8.81    0.53
  -3  15   3    8.70    0.44
   3  15  -3    8.39    0.54
   3  15  -3    8.97    0.44
  -2 -15   3   14.20    0.70
  -2 -15   3   13.67    0.60
  -2 -15   3   13.18    0.57
  -2  15   3   12.22    0.57
   2  15  -3   14.51    0.68
  -2  15   3   13.66    0.58
   2  15  -3   13.87    0.56
  -1 -15   3    4.94    0.38
  -1 -15   3    4.55    0.41
  -1 -15   3    4.56    0.41
  -1 -15   3    5.24    0.36
   1  15  -3    4.88    0.41
  -1  15   3    4.58    0.35
   1  15  -3    4.78    0.30
  -1  15   3    4.83    0.35
   1  15  -3    4.50    0.33
   0 -15   3    3.67    0.38
   0 -15   3    3.45    0.30
   0 -15   3    3.66    0.43
   0 -15   3    3.26    0.25
   0  15  -3    3.90    0.44
   0  15   3    4.17    0.33
   0  15  -3    3.93    0.25
   0  15   3    3.35    0.35
   0  15  -3    3.53    0.31
   1 -15   3    1.36    0.20
  -1 -15  -3    1.60    0.23
   1 -15   3    1.24    0.24
  -1 -15  -3    1.31    0.30
   1  15   3    1.23    0.23
  -1  15  -3    1.42    0.20
  -1  15  -3    1.16    0.25
  -1  15  -3    1.40    0.24
  -1  15  -3    1.56    0.22
   1  15   3    2.19    0.31
   2 -15   3    4.70    0.33
   2 -15   3    4.23    0.36
  -2 -15  -3    5.54    0.47
  -2 -15  -3    4.82    0.35
  -2 -15  -3    5.32    0.41
   2  15   3    5.16    0.38
  -2  15  -3    4.93    0.35
  -2  15  -3    5.31    0.38
  -2  15  -3    5.18    0.41
   3 -15   3    2.81    0.29
  -3 -15  -3    3.87    0.48
  -3 -15  -3    2.74    0.29
   3 -15   3    3.09    0.26
   3  15   3    3.22    0.23
  -3  15  -3    3.61    0.31
  -3  15  -3    3.29    0.29
  -3  15  -3    3.50    0.38
  -4 -15  -3    0.74    0.19
  -4 -15  -3    0.74    0.16
   4 -15   3    0.76    0.13
  -4  15  -3    0.74    0.17
  -4  15  -3    0.83    0.16
  -4  15  -3    0.48    0.14
   4  15   3    0.62    0.12
  -5 -16   3   23.07    0.73
  -5 -16   3   25.35    0.75
  -5 -16   3   22.19    0.75
   5  16  -3   25.00    0.83
   5  16  -3   24.31    0.74
  -5  16   3   24.46    0.81
  -5  16   3   25.20    0.69
  -5  16   3   20.83    0.77
   4 -16  -3   15.15    0.59
  -4 -16   3   13.96    0.62
  -4 -16   3   14.19    0.59
  -4 -16   3   14.32    0.59
  -4  16   3   14.77    0.55
   4  16  -3   14.55    0.57
   4  16  -3   16.07    0.70
  -3 -16   3   83.99    2.27
  -3 -16   3   83.40    2.14
  -3 -16   3   81.93    2.11
   3  16  -3   81.69    2.24
  -3  16   3   82.57    2.09
   3  16  -3   81.76    2.08
  -2 -16   3   82.90    2.17
  -2 -16   3   85.32    2.35
   2  16  -3   85.30    2.12
  -2  16   3   84.99    2.17
  -2  16   3   83.39    2.15
   2  16  -3   86.14    2.32
  -1 -16   3   59.00    1.75
  -1 -16   3   58.02    1.60
  -1 -16   3   55.73    1.56
  -1 -16   3   56.25    1.63
  -1  16   3   56.70    1.57
   1  16  -3   57.16    1.49
   1  16  -3   56.60    1.69
   1  16  -3   54.06    1.53
  -1  16   3   54.77    1.57
   0 -16   3   89.83    2.47
   0 -16   3   89.51    2.35
   0 -16   3   91.75    2.16
   0 -16   3   91.25    2.25
   0  16   3   88.13    2.29
   0  16  -3   89.30    2.27
   0  16   3   87.34    2.28
   0  16  -3   90.19    2.41
   0  16  -3   87.98    2.44
   1 -16   3    3.56    0.37
   1 -16   3    3.78    0.28
  -1  16  -3    3.44    0.37
  -1  16  -3    2.63    0.34
   1  16   3    3.51    0.30
   1  16   3    3.43    0.31
   1  16   3    3.93    0.34
  -2 -16  -3    4.02    0.34
   2 -16   3    4.28    0.30
  -2 -16  -3    4.34    0.52
  -2 -16  -3    4.25    0.32
   2 -16   3    3.11    0.33
  -2  16  -3    4.43    0.37
  -2  16  -3    4.12    0.33
   2  16   3    3.96    0.41
   2  16   3    4.08    0.34
  -2  16  -3    3.65    0.31
  -3 -16  -3    1.13    0.26
   3 -16   3    0.85    0.16
  -3 -16  -3    0.96    0.19
   3 -16   3    0.78    0.15
  -3  16  -3    0.94    0.18
  -3  16  -3    1.06    0.22
  -3  16  -3    0.89    0.19
   4 -16   3    9.66    0.39
  -4 -16  -3    9.60    0.42
  -4 -16  -3    9.36    0.47
  -4  16  -3    9.78    0.42
  -4  16  -3    9.73    0.41
  -4  16  -3   10.39    0.45
  -5 -17   3    6.50    0.34
   5  17  -3    6.56    0.37
   5  17  -3    6.56    0.32
  -5  17   3    6.53    0.28
  -4 -17   3    6.11    0.38
  -4 -17   3    6.10    0.35
  -4 -17   3    6.18    0.36
   4 -17  -3    5.90    0.34
  -4  17   3    6.07    0.32
   4  17  -3    6.74    0.42
   4  17  -3    5.79    0.33
  -3 -17   3    7.71    0.43
  -3 -17   3    6.83    0.39
  -3 -17   3    7.52    0.49
  -3  17   3    7.85    0.41
   3  17  -3    7.15    0.39
   3  17  -3    7.03    0.49
  -2 -17   3    4.32    0.34
  -2 -17   3    2.88    0.37
  -2  17   3    3.21    0.33
   2  17  -3    3.80    0.43
  -2  17   3    3.52    0.30
   2  17  -3    3.63    0.28
  -1 -17   3    6.52    0.44
  -1 -17   3    6.46    0.39
  -1 -17   3    6.14    0.40
  -1 -17   3    6.29    0.49
  -1 -17   3    6.12    0.48
  -1  17   3    5.86    0.39
  -1  17   3    6.89    0.42
   1  17  -3    5.50    0.38
   1  17  -3    5.81    0.32
   1  17  -3    6.23    0.48
   0 -17   3   44.98    1.47
   0 -17   3   44.37    1.36
   0 -17   3   40.24    1.37
   0 -17   3   44.34    1.27
   0  17  -3   44.28    1.29
   0  17  -3   42.72    1.36
   0  17  -3   44.79    1.43
   0  17   3   43.93    1.33
   1 -17   3   57.13    1.53
   1 -17   3   60.34    1.69
   1  17   3   57.63    1.64
  -1  17  -3   59.89    1.64
  -1  17  -3   59.73    1.74
  -2 -17  -3   33.43    1.21
  -2 -17  -3   32.52    1.00
   2 -17   3   32.65    0.99
   2 -17   3   31.51    1.05
  -2 -17  -3   34.38    0.98
  -2  17  -3   33.10    1.05
   2  17   3   33.85    1.06
   2  17   3   32.89    1.04
  -2  17  -3   35.78    1.13
  -3 -17  -3   27.08    1.01
   3 -17   3   27.11    0.82
  -3 -17  -3   26.91    0.84
   3  17   3   26.40    0.93
  -3  17  -3   27.37    0.87
  -3  17  -3   28.57    0.91
  -3  17  -3   25.70    0.82
   4 -17   3    5.56    0.27
  -4 -17  -3    5.81    0.29
  -4  17  -3    5.77    0.32
  -4 -18   3   12.44    0.49
  -4 -18   3   11.57    0.51
   4 -18  -3   11.92    0.47
  -4 -18   3   11.78    0.48
  -4  18   3   12.45    0.46
   4  18  -3   12.23    0.46
   4  18  -3   12.77    0.56
   3 -18  -3   22.50    0.81
  -3 -18   3   23.33    0.79
  -3 -18   3   21.85    0.86
   3  18  -3   22.02    0.73
   3  18  -3   23.82    0.88
  -3  18   3   22.73    0.77
  -2 -18   3   23.29    0.81
  -2 -18   3   22.01    0.91
   2  18  -3   21.79    0.88
  -2  18   3   21.67    0.77
  -2  18   3   21.02    0.77
   2  18  -3   21.45    0.71
  -1 -18   3   14.11    0.60
  -1 -18   3   13.00    0.61
  -1 -18   3   13.26    0.70
  -1  18   3   14.24    0.61
  -1  18   3   12.89    0.57
   1  18  -3   12.99    0.66
   0 -18   3    5.31    0.46
   0 -18   3    5.25    0.43
   0 -18   3    4.78    0.34
   0 -18   3    5.61    0.40
   0  18  -3    4.99    0.42
   0  18  -3    5.32    0.36
   0  18  -3    5.11    0.37
   0  18  -3    5.93    0.54
   0  18   3    5.60    0.39
   1 -18   3    6.17    0.32
   1 -18   3    6.09    0.41
  -1  18  -3    6.81    0.41
   1  18   3    6.88    0.42
  -1  18  -3    7.61    0.47
  -2 -18  -3    0.04    0.13
  -2 -18  -3    0.13    0.10
   2 -18   3    0.18    0.12
   2 -18   3    0.03    0.08
  -2  18  -3    0.26    0.13
   2  18   3    0.08    0.14
  -2  18  -3    0.03    0.11
  -3 -18  -3    1.82    0.20
  -3 -18  -3    1.44    0.24
   3 -18   3    1.29    0.16
  -3  18  -3    1.55    0.20
  -3  18  -3    1.38    0.20
   3  18   3    1.23    0.15
   3  18   3    1.12    0.14
  -4 -19   3    0.26    0.11
  -4  19   3    0.06    0.07
   4  19  -3    0.05    0.08
   4  19  -3    0.10    0.11
  -3 -19   3    0.20    0.14
   3 -19  -3   -0.11    0.09
  -3 -19   3   -0.13    0.08
  -3  19   3   -0.05    0.08
   3  19  -3   -0.06    0.11
   3  19  -3   -0.07    0.06
  -2 -19   3   12.35    0.54
  -2 -19   3   11.98    0.63
   2 -19  -3   12.67    0.57
  -2  19   3   11.82    0.52
   2  19  -3   12.92    0.62
  -2  19   3   12.23    0.52
   2  19  -3   11.24    0.43
  -1 -19   3    0.09    0.14
  -1 -19   3    0.22    0.13
  -1 -19   3    0.33    0.14
   1  19  -3    0.21    0.18
  -1  19   3    0.24    0.13
   1  19  -3    0.48    0.18
  -1  19   3    0.38    0.14
   0 -19  -3   -0.02    0.10
   0 -19   3    0.22    0.15
   0 -19   3    0.59    0.22
   0 -19   3    0.03    0.12
   0  19   3    0.18    0.13
   0  19  -3    0.32    0.16
   0  19  -3    0.14    0.12
  -1 -19  -3    0.19    0.14
   1 -19   3    0.14    0.11
   1 -19   3    0.13    0.12
  -1  19  -3    0.19    0.12
  -1  19  -3    0.22    0.14
   1  19   3    0.34    0.14
  -2 -19  -3    1.64    0.27
   2 -19   3    1.62    0.17
   2 -19   3    1.47    0.20
  -2  19  -3    1.78    0.23
  -2  19  -3    1.82    0.24
   3 -19   3    0.28    0.09
  -3  19  -3    0.32    0.11
  -3 -20   3    2.69    0.24
  -3 -20   3    2.31    0.29
   3 -20  -3    2.71    0.23
   3  20  -3    2.55    0.28
  -3  20   3    2.56    0.21
  -2 -20   3    3.86    0.35
   2 -20  -3    3.93    0.30
  -2 -20   3    4.40    0.30
   2  20  -3    4.57    0.34
  -2  20   3    4.18    0.27
   2  20  -3    4.45    0.39
  -2  20   3    4.57    0.29
  -1 -20   3    0.40    0.16
  -1 -20   3    0.48    0.14
   1 -20  -3    0.39    0.13
  -1  20   3    0.56    0.15
   1  20  -3    0.34    0.16
   1  20  -3    0.53    0.13
   1  20  -3    0.49    0.13
   0 -20   3    1.49    0.18
   0 -20   3    1.44    0.28
   0 -20  -3    1.33    0.19
   0 -20   3    1.77    0.20
   0 -20   3    1.56    0.22
   0  20  -3    1.77    0.26
   0  20  -3    1.81    0.22
   0  20   3    1.59    0.23
  -1 -20  -3    5.90    0.34
   1 -20   3    5.96    0.40
   1 -20   3    6.39    0.37
  -1  20  -3    5.97    0.34
   1  20   3    5.78    0.34
  -1  20  -3    6.13    0.37
  -2  20  -3    8.05    0.38
  -2  20  -3    8.42    0.39
   2 -21  -3    0.06    0.10
  -2 -21   3   -0.05    0.10
  -2 -21   3    0.10    0.12
  -2  21   3    0.03    0.08
   2  21  -3    0.00    0.10
   2  21  -3    0.09    0.09
  -2  21   3    0.07    0.08
  -1 -21   3    1.74    0.28
   1 -21  -3    1.78    0.22
  -1  21   3    1.90    0.22
   1  21  -3    2.52    0.27
   0  21   3    6.13    0.33
   0  21  -3    6.74    0.37
   0  21  -3    6.17    0.39
   1 -21   3   11.90    0.44
  -1  21  -3   11.96    0.48
   1  21   3   11.82    0.44
  -1  21  -3   12.19    0.46
  -1  22   3    0.54    0.18
  -7   0   4   29.98    1.01
  -7   0   4   29.93    1.07
  -6   0   4  150.36    3.74
  -6   0   4  146.87    3.72
  -6   0   4  147.59    3.64
  -5   0   4    2.70    0.35
  -5   0   4    3.63    0.35
  -5   0   4    4.19    0.38
  -4   0   4   76.38    1.98
  -4   0   4   77.57    2.07
  -4   0   4   76.90    2.03
  -4   0   4   76.15    1.84
   3   0  -4  137.95    3.31
  -2   0   4   38.31    1.30
   2   0  -4   39.11    1.23
   1   0  -4   41.19    1.35
   0   0  -4   33.96    1.24
   1   0   4   18.42    0.87
  -1   0  -4   17.83    0.88
   2   0   4   17.36    0.92
   3   0   4    3.99    0.27
   3   0   4    3.24    0.45
  -3   0  -4    3.01    0.31
  -3   0  -4    2.92    0.26
  -3   0  -4    4.05    0.35
  -4   0  -4  125.14    3.11
  -4   0  -4  121.37    3.01
   4   0   4  125.17    2.95
  -4   0  -4  121.51    3.00
  -5   0  -4   91.15    2.26
  -5   0  -4   89.15    2.27
  -5   0  -4   88.05    2.26
   5   0   4   89.67    2.21
  -6   0  -4   16.76    0.57
   6   0   4   16.23    0.55
  -6   0  -4   16.95    0.56
  -6   0  -4   15.37    0.54
  -7  -1   4    3.07    0.35
  -7  -1   4    2.80    0.35
  -7   1   4    3.64    0.34
  -7   1   4    3.03    0.36
  -6  -1   4    1.04    0.27
  -6  -1   4    1.23    0.29
  -6  -1   4    1.11    0.25
  -6  -1   4    0.94    0.24
  -6   1   4    0.63    0.22
  -6   1   4    1.08    0.28
  -6   1   4    0.79    0.24
  -5  -1   4   16.31    0.51
  -5  -1   4   16.76    0.76
  -5  -1   4   15.03    0.51
  -5  -1   4   16.72    0.74
  -5  -1   4   16.16    0.70
  -5  -1   4   15.78    0.51
  -5   1   4   17.15    0.77
  -5   1   4   16.65    0.72
  -5   1   4   17.42    0.78
  -4  -1   4   22.96    0.72
  -4  -1   4   23.66    0.85
  -4  -1   4   23.22    0.86
  -4  -1   4   23.12    0.80
  -4  -1   4   22.85    0.59
   4   1  -4   22.95    0.77
  -4   1   4   21.88    0.79
  -4   1   4   22.69    0.68
  -4   1   4   21.98    0.85
  -4   1   4   22.32    0.83
   3  -1  -4  106.06    2.63
   3   1  -4  105.66    2.62
  -2  -1   4    1.68    0.28
   2  -1  -4    1.92    0.25
  -2   1   4    1.82    0.22
   2   1  -4    1.81    0.24
   1  -1  -4   18.51    0.81
   1   1  -4   18.10    0.79
   0  -1  -4    3.32    0.36
   0   1  -4    3.01    0.35
  -1  -1  -4   24.38    1.07
   1  -1   4   24.80    1.04
  -1   1  -4   23.77    1.03
   1   1   4   24.77    1.04
   2  -1   4   30.59    1.28
  -2  -1  -4   29.33    1.02
   2   1   4   29.60    1.26
  -3  -1  -4   -0.05    0.12
  -3  -1  -4    0.04    0.06
   3  -1   4   -0.02    0.08
   3  -1   4    0.15    0.18
  -3  -1  -4   -0.02    0.10
  -3   1  -4    0.01    0.11
  -3   1  -4    0.05    0.11
  -3   1  -4    0.05    0.10
   3   1   4    0.00    0.16
   3   1   4    0.08    0.09
  -4  -1  -4    5.75    0.43
   4  -1   4    5.58    0.36
  -4  -1  -4    5.67    0.38
  -4  -1  -4    6.25    0.41
   4   1   4    6.06    0.36
  -4   1  -4    5.97    0.39
  -4   1  -4    6.19    0.39
  -4   1  -4    6.03    0.43
  -5  -1  -4    1.28    0.21
  -5  -1  -4    0.98    0.19
  -5  -1  -4    0.76    0.17
  -5  -1  -4    1.18    0.20
   5  -1   4    1.08    0.19
  -5   1  -4    1.42    0.24
  -5   1  -4    0.96    0.19
   5   1   4    1.20    0.20
  -5   1  -4    1.04    0.19
  -6  -1  -4    0.56    0.13
  -6  -1  -4    0.42    0.11
   6  -1   4    0.27    0.09
  -6  -1  -4    0.41    0.11
   6   1   4    0.32    0.10
  -6   1  -4    0.25    0.10
  -6   1  -4    0.40    0.11
  -7  -2   4    0.22    0.16
  -7   2   4    0.26    0.19
  -7   2   4    0.35    0.16
  -6  -2   4    1.37    0.26
  -6  -2   4    1.95    0.32
  -6  -2   4    2.01    0.33
  -6  -2   4    1.46    0.29
  -6   2   4    1.78    0.33
  -6   2   4    1.34    0.27
  -6   2   4    1.73    0.33
  -5  -2   4    0.06    0.07
  -5  -2   4    0.11    0.11
  -5  -2   4    0.04    0.15
  -5  -2   4    0.33    0.07
  -5  -2   4    0.29    0.16
  -5  -2   4    0.44    0.18
  -5  -2   4    0.12    0.08
  -5  -2   4    0.34    0.17
  -5   2   4   -0.04    0.14
  -5   2   4   -0.04    0.13
  -5   2   4    0.02    0.14
  -4  -2   4    0.91    0.21
  -4  -2   4    0.67    0.17
  -4  -2   4    0.54    0.13
  -4  -2   4    0.50    0.14
  -4  -2   4    0.77    0.10
  -4   2   4    0.61    0.11
  -4   2   4    0.14    0.11
  -4   2   4    0.29    0.14
   4   2  -4    0.70    0.16
  -4   2   4    0.75    0.19
   3  -2  -4    0.38    0.13
  -3  -2   4    0.42    0.13
  -3  -2   4    0.48    0.17
   3   2  -4    0.47    0.14
   2  -2  -4    2.46    0.27
  -2  -2   4    2.82    0.40
  -2   2   4    2.59    0.26
   2   2  -4    2.64    0.28
   1  -2  -4    0.22    0.14
   1   2  -4    0.11    0.12
   0  -2  -4    2.54    0.34
   0   2  -4    2.56    0.33
  -1  -2  -4   -0.01    0.11
   1  -2   4    0.07    0.12
   1   2   4   -0.06    0.20
  -1   2  -4    0.04    0.12
   2  -2   4    2.06    0.39
  -2  -2  -4    2.50    0.32
   2   2   4    3.30    0.39
   2   2   4    2.67    0.45
  -3  -2  -4    1.18    0.25
   3  -2   4    0.78    0.28
   3  -2   4    1.46    0.19
  -3  -2  -4    1.64    0.26
  -3  -2  -4    1.31    0.14
  -3   2  -4    1.51    0.22
  -3   2  -4    1.60    0.24
   3   2   4    1.24    0.18
   3   2   4    0.90    0.31
  -3   2  -4    1.23    0.21
   4  -2   4    6.59    0.37
  -4  -2  -4    6.58    0.46
  -4  -2  -4    6.00    0.39
  -4  -2  -4    6.65    0.42
   4   2   4    5.97    0.36
  -4   2  -4    6.26    0.41
  -4   2  -4    5.82    0.39
  -4   2  -4    5.57    0.41
  -5  -2  -4    3.73    0.30
  -5  -2  -4    3.61    0.29
  -5  -2  -4    3.85    0.31
   5  -2   4    3.68    0.28
  -5  -2  -4    3.80    0.30
   5   2   4    4.06    0.29
  -5   2  -4    4.06    0.32
  -5   2  -4    3.74    0.29
  -5   2  -4    4.28    0.31
  -6  -2  -4    2.97    0.22
  -6  -2  -4    3.22    0.22
   6  -2   4    3.23    0.22
  -6   2  -4    2.97    0.22
  -6   2  -4    3.42    0.23
   6   2   4    3.19    0.21
  -7  -3   4    0.08    0.14
  -7   3   4    0.05    0.16
  -7   3   4    0.13    0.15
  -6  -3   4   28.11    1.01
  -6  -3   4   27.85    0.75
  -6  -3   4   26.71    1.33
  -6  -3   4   29.74    1.09
  -6  -3   4   30.92    1.10
  -6   3   4   29.71    1.12
  -6   3   4   31.48    1.08
  -6   3   4   28.52    1.11
  -5  -3   4   68.67    1.93
  -5  -3   4   68.32    1.75
  -5  -3   4   65.47    2.16
  -5  -3   4   71.07    1.78
  -5  -3   4   69.77    1.96
  -5  -3   4   65.98    1.85
  -5  -3   4   67.76    1.61
  -5   3   4   67.92    1.89
  -5   3   4   65.23    1.94
  -5   3   4   69.31    1.99
  -4  -3   4   66.76    2.17
  -4  -3   4   62.81    1.74
  -4  -3   4   62.84    1.76
  -4  -3   4   58.33    1.66
  -4  -3   4   63.19    1.49
  -4  -3   4   66.00    1.89
  -4   3   4   62.21    1.51
  -4   3   4   61.21    1.75
  -4   3   4   59.32    1.72
  -4   3   4   61.39    1.69
   4   3  -4   63.85    1.74
  -4   3   4   65.69    1.57
  -3  -3   4  191.60    4.65
  -3  -3   4  188.99    4.92
   3  -3  -4  196.28    4.43
   3   3  -4  191.81    4.50
  -2  -3   4    0.69    0.26
   2  -3  -4    0.40    0.16
   2   3  -4    0.60    0.16
  -2   3   4    0.78    0.17
   1  -3  -4    0.24    0.15
   1   3  -4    0.10    0.13
   0  -3  -4    0.15    0.14
   0   3  -4    0.44    0.20
   1  -3   4  211.49    5.19
  -1  -3  -4  215.28    5.28
   2  -3   4  100.55    2.92
  -2  -3  -4  101.91    2.56
   2  -3   4   97.29    2.34
   2   3   4   99.49    2.35
   2   3   4   98.88    2.89
   3  -3   4   74.70    1.85
  -3  -3  -4   74.48    1.71
   3  -3   4   69.21    2.41
  -3  -3  -4   72.94    1.71
  -3  -3  -4   73.11    2.03
  -3   3  -4   72.97    1.90
   3   3   4   70.08    2.42
  -3   3  -4   71.62    1.93
  -3   3  -4   72.89    1.91
   3   3   4   74.84    1.84
  -3   3  -4   73.91    1.89
  -4  -3  -4   68.67    1.86
  -4  -3  -4   68.89    1.98
   4  -3   4   68.95    1.81
  -4  -3  -4   66.89    1.85
  -4  -3  -4   71.72    1.85
  -4   3  -4   69.71    1.89
  -4   3  -4   70.38    1.89
   4   3   4   70.51    1.81
  -4   3  -4   71.90    1.97
  -5  -3  -4   11.03    0.51
   5  -3   4   11.02    0.48
  -5  -3  -4   10.91    0.50
  -5  -3  -4   10.96    0.52
  -5  -3  -4   11.23    0.50
  -5   3  -4   10.33    0.50
   5   3   4   10.64    0.47
  -5   3  -4   11.22    0.52
  -5   3  -4   10.47    0.47
  -6  -3  -4    7.55    0.34
   6  -3   4    7.82    0.33
   6   3   4    7.74    0.33
  -6   3  -4    8.05    0.35
  -6   3  -4    8.01    0.36
  -7  -4   4    1.85    0.26
  -7   4   4    1.86    0.27
  -7   4   4    1.90    0.31
  -6  -4   4   17.04    0.54
  -6  -4   4   17.67    0.79
  -6  -4   4   18.71    0.81
  -6   4   4   18.28    0.85
  -6   4   4   18.31    0.79
  -6   4   4   18.53    0.86
  -5  -4   4   43.72    1.36
  -5  -4   4   47.18    1.46
  -5  -4   4   45.44    1.43
  -5  -4   4   44.37    1.75
  -5  -4   4   46.96    1.63
  -5  -4   4   44.55    1.15
  -5  -4   4   47.26    1.35
  -5   4   4   44.72    1.47
  -5   4   4   45.19    1.40
  -5   4   4   44.17    1.47
  -4  -4   4   15.98    0.50
  -4  -4   4   14.57    0.98
  -4  -4   4   16.57    0.88
  -4  -4   4   15.63    0.64
  -4  -4   4   16.38    0.69
  -4  -4   4   16.04    0.68
  -4   4   4   14.85    0.63
  -4   4   4   15.69    0.57
  -4   4   4   14.64    0.49
  -4   4   4   15.27    0.67
  -4   4   4   16.04    0.68
   4   4  -4   15.12    0.68
  -3  -4   4   30.51    0.83
  -3  -4   4   31.00    1.26
   3  -4  -4   30.90    1.00
  -3  -4   4   30.21    1.49
  -3   4   4   34.32    1.04
   3   4  -4   31.64    1.08
   2  -4  -4  468.68   10.39
  -2   4   4  469.58   10.46
   2   4  -4  465.01   10.37
   1  -4  -4  267.27    6.24
   1   4  -4  260.74    6.13
   0  -4  -4  446.83   10.38
   0   4  -4  468.77   10.38
  -1  -4  -4  192.25    4.83
   1  -4   4  187.32    4.73
  -1  -4  -4  194.82    4.84
   2  -4   4   48.98    1.29
  -2  -4  -4   49.34    1.48
   2  -4   4   49.54    1.78
  -2  -4  -4   50.60    1.38
  -2   4  -4   47.51    1.39
   2   4   4   53.93    2.08
  -2   4  -4   48.45    1.37
   2   4   4   48.29    1.28
  -3  -4  -4   71.31    1.70
   3  -4   4   72.32    1.82
  -3  -4  -4   75.40    2.05
  -3  -4  -4   69.90    1.69
  -3  -4  -4   72.13    1.84
  -3  -4  -4   71.60    1.89
   3  -4   4   68.79    2.41
  -3   4  -4   71.45    1.85
  -3   4  -4   71.47    1.88
  -3   4  -4   71.03    1.92
   3   4   4   74.37    1.82
   3   4   4   68.17    2.41
  -4  -4  -4   28.44    1.06
   4  -4   4   28.46    0.92
  -4  -4  -4   27.37    0.92
  -4   4  -4   28.84    1.04
   4   4   4   28.70    0.92
  -4   4  -4   28.35    0.97
  -5  -4  -4   14.20    0.56
  -5  -4  -4   13.79    0.60
   5  -4   4   13.78    0.55
  -5  -4  -4   13.74    0.57
  -5  -4  -4   13.89    0.58
  -5   4  -4   12.70    0.56
   5   4   4   14.72    0.56
  -5   4  -4   13.70    0.59
   6  -4   4    5.37    0.27
  -6  -4  -4    4.87    0.26
  -6  -4  -4    5.18    0.27
   6   4   4    5.09    0.26
  -6   4  -4    5.31    0.28
  -7  -5   4    0.24    0.14
  -7   5   4    0.26    0.15
  -6  -5   4    1.38    0.27
  -6  -5   4    1.21    0.26
  -6  -5   4    1.04    0.18
  -6  -5   4    0.87    0.16
  -6  -5   4    1.12    0.14
  -6   5   4    0.64    0.23
  -6   5   4    1.23    0.26
  -6   5   4    0.75    0.26
  -5  -5   4    3.07    0.35
  -5  -5   4    3.85    0.36
  -5  -5   4    3.64    0.32
  -5  -5   4    3.49    0.22
  -5   5   4    3.69    0.35
  -5   5   4    2.59    0.36
  -5   5   4    4.01    0.46
  -4  -5   4   38.87    1.02
  -4  -5   4   35.63    0.99
  -4  -5   4   39.35    1.60
  -4  -5   4   39.47    1.23
  -4  -5   4   39.92    1.23
  -4   5   4   38.18    1.23
  -4   5   4   40.01    1.10
  -4   5   4   39.82    1.19
  -4   5   4   36.20    1.20
   4   5  -4   38.84    1.29
  -4   5   4   37.95    1.02
  -3  -5   4   12.62    0.44
   3  -5  -4   12.25    0.55
  -3   5   4   12.64    0.54
   3   5  -4   12.44    0.63
   2  -5  -4    0.11    0.13
   2  -5  -4    0.09    0.12
   2   5  -4    0.16    0.13
  -2   5   4    0.14    0.12
   1  -5  -4    0.95    0.26
   1   5  -4    0.76    0.22
   0  -5  -4    0.00    0.12
   0  -5  -4    0.10    0.14
   0   5  -4    0.12    0.13
   1  -5   4   40.46    1.49
  -1  -5  -4   41.01    1.55
   2  -5   4   38.23    1.52
   2  -5   4   38.21    1.07
  -2  -5  -4   39.78    1.27
  -2   5  -4   37.27    1.14
  -2   5  -4   40.29    1.13
  -2   5  -4   37.85    1.16
   2   5   4   40.35    1.08
  -3  -5  -4    4.93    0.33
  -3  -5  -4    4.15    0.33
  -3  -5  -4    4.70    0.26
   3  -5   4    4.77    0.31
  -3  -5  -4    4.46    0.26
   3  -5   4    4.19    0.52
  -3  -5  -4    4.63    0.41
   3   5   4    4.72    0.31
  -3   5  -4    4.49    0.32
  -3   5  -4    6.05    0.39
  -3   5  -4    4.47    0.36
  -4  -5  -4    9.11    0.46
  -4  -5  -4    8.71    0.53
  -4  -5  -4    9.18    0.49
   4  -5   4    8.65    0.44
  -4   5  -4    8.19    0.48
  -4   5  -4    8.32    0.47
  -4   5  -4    8.39    0.51
   4   5   4    9.58    0.46
  -4   5  -4    8.24    0.47
  -5  -5  -4    1.92    0.24
  -5  -5  -4    1.96    0.25
   5  -5   4    1.82    0.23
  -5  -5  -4    1.63    0.23
  -5   5  -4    1.80    0.25
  -5   5  -4    1.90    0.25
   5   5   4    1.74    0.22
   6  -5   4    0.62    0.13
  -6  -5  -4    0.47    0.13
  -6  -5  -4    0.70    0.13
   6   5   4    0.46    0.11
  -7  -6   4    0.01    0.12
  -7   6   4   -0.05    0.11
  -6  -6   4    2.25    0.32
  -6  -6   4    2.33    0.26
  -6  -6   4    1.81    0.22
  -6  -6   4    2.50    0.19
  -6   6   4    2.07    0.35
  -5  -6   4    5.56    0.43
  -5  -6   4    6.08    0.43
  -5  -6   4    5.91    0.31
  -5  -6   4    5.97    0.44
  -5  -6   4    5.73    0.30
  -5   6   4    5.66    0.46
  -5   6   4    5.61    0.42
  -5   6   4    6.19    0.47
  -4  -6   4    0.56    0.12
  -4  -6   4    0.48    0.17
  -4  -6   4    0.43    0.10
  -4  -6   4    0.31    0.14
  -4   6   4    0.86    0.21
  -4   6   4    0.75    0.21
  -4   6   4    0.64    0.15
  -4   6   4    0.31    0.17
   4   6  -4    0.71    0.21
  -3  -6   4   17.59    0.63
  -3  -6   4   17.05    0.68
  -3  -6   4   17.65    0.57
   3  -6  -4   18.19    0.72
  -3   6   4   17.80    0.78
  -3   6   4   16.49    0.64
  -3   6   4   18.84    0.70
   3   6  -4   17.54    0.80
   2  -6  -4   65.17    1.91
  -2   6   4   64.31    2.09
   2   6  -4   65.90    1.93
   1  -6  -4    9.52    0.62
   1   6  -4    9.32    0.58
   0  -6  -4   84.41    2.51
   0   6  -4   81.76    2.43
  -1  -6  -4   27.70    1.23
   2  -6   4    2.74    0.48
  -2  -6  -4    3.49    0.29
   2  -6   4    3.30    0.25
  -2  -6  -4    2.57    0.35
  -2   6  -4    2.84    0.29
  -2   6  -4    2.85    0.31
   2   6   4    2.42    0.27
  -2   6  -4    3.01    0.25
   2   6   4    3.24    0.24
  -2   6  -4    3.29    0.26
  -3  -6  -4    6.12    0.31
  -3  -6  -4    6.16    0.30
  -3  -6  -4    5.51    0.36
   3  -6   4    6.21    0.36
  -3  -6  -4    5.80    0.39
  -3  -6  -4    5.99    0.46
  -3   6  -4    5.91    0.42
  -3   6  -4    6.45    0.40
   3   6   4    5.69    0.34
  -3   6  -4    5.99    0.37
  -4  -6  -4    0.31    0.16
  -4  -6  -4    0.13    0.13
  -4  -6  -4    0.19    0.12
   4  -6   4    0.20    0.12
  -4   6  -4    0.09    0.12
  -4   6  -4    0.10    0.11
  -4   6  -4    0.22    0.15
  -4   6  -4    0.26    0.15
  -4   6  -4    0.48    0.18
   4   6   4    0.11    0.10
  -5  -6  -4    0.84    0.17
   5  -6   4    1.10    0.17
  -5  -6  -4    0.93    0.17
  -5  -6  -4    1.06    0.20
   5   6   4    1.30    0.18
  -5   6  -4    1.27    0.22
  -5   6  -4    1.28    0.21
   6   6   4    0.10    0.09
  -7   7   4    3.51    0.30
  -6  -7   4    9.25    0.55
  -6  -7   4    9.11    0.50
  -6  -7   4    7.12    0.36
  -6  -7   4    9.93    0.54
  -6  -7   4    8.95    0.38
  -6   7   4    9.14    0.56
  -6   7   4    9.26    0.52
  -6   7   4    9.32    0.61
  -5  -7   4   27.46    0.84
  -5  -7   4   27.39    0.82
  -5  -7   4   28.17    1.02
  -5  -7   4   27.74    1.01
  -5  -7   4   29.00    1.09
  -5   7   4   25.55    1.06
  -5   7   4   28.54    1.08
  -5   7   4   27.10    1.06
  -5   7   4   27.97    1.00
  -4  -7   4   28.19    0.99
  -4  -7   4   26.50    0.81
  -4  -7   4   28.95    0.85
  -4  -7   4   29.18    1.01
  -4  -7   4   28.62    1.10
  -4   7   4   26.42    0.99
  -4   7   4   29.43    1.09
  -4   7   4   28.56    0.96
  -4   7   4   29.53    0.95
  -3  -7   4   97.61    2.39
  -3  -7   4  104.43    2.42
  -3  -7   4   98.86    2.56
  -3  -7   4  102.58    2.49
  -3  -7   4  102.03    2.56
   3  -7  -4  105.56    2.66
  -3   7   4   96.44    2.48
  -3   7   4  108.73    2.89
   3   7  -4  104.06    2.80
  -3   7   4  105.93    2.61
  -2  -7   4    1.38    0.21
   2  -7  -4    1.38    0.28
  -2  -7   4    1.58    0.19
   2   7  -4    1.05    0.24
   1  -7  -4    2.53    0.36
   1   7  -4    3.70    0.38
   0  -7  -4   -0.05    0.13
   0   7  -4    0.07    0.12
   1  -7   4  163.31    3.71
   1   7   4  173.56    3.77
  -1   7  -4  156.78    3.69
   2  -7   4   49.10    1.28
  -2  -7  -4   45.64    1.32
  -2  -7  -4   46.97    1.48
   2  -7   4   45.85    1.80
   2   7   4   47.85    1.25
  -2   7  -4   46.11    1.31
   2   7   4   45.63    1.33
  -2   7  -4   46.28    1.37
  -2   7  -4   46.07    1.30
  -2   7  -4   46.00    1.29
   3  -7   4   41.76    1.19
  -3  -7  -4   41.06    1.07
  -3  -7  -4   40.62    1.20
  -3  -7  -4   40.82    1.07
  -3  -7  -4   42.51    1.40
  -3  -7  -4   41.73    1.27
  -3   7  -4   41.38    1.30
  -3   7  -4   39.18    1.24
  -3   7  -4   39.69    1.21
   3   7   4   42.12    1.19
  -4  -7  -4   43.55    1.26
  -4  -7  -4   44.21    1.31
  -4  -7  -4   41.61    1.40
   4  -7   4   42.05    1.24
   4   7   4   42.74    1.24
  -4   7  -4   44.04    1.29
  -4   7  -4   43.51    1.38
  -4   7  -4   43.16    1.31
  -5  -7  -4    0.17    0.10
   5  -7   4    0.19    0.10
  -5  -7  -4    0.19    0.11
  -5  -7  -4    0.59    0.16
   5   7   4    0.19    0.10
  -5   7  -4    0.26    0.12
  -5   7  -4   -0.01    0.10
  -7   8   4    8.70    0.43
  -6  -8   4   19.33    0.76
  -6  -8   4   18.55    0.62
  -6  -8   4   18.75    0.78
  -6  -8   4   18.16    0.62
  -6   8   4   18.95    0.76
  -5  -8   4    3.26    0.36
  -5  -8   4    3.03    0.36
  -5  -8   4    3.57    0.25
  -5  -8   4    3.10    0.25
  -5   8   4    3.35    0.40
  -5   8   4    2.94    0.39
  -5   8   4    2.99    0.36
  -4  -8   4    1.38    0.25
  -4  -8   4    1.02    0.17
  -4  -8   4    1.69    0.21
  -4   8   4    1.23    0.24
  -4   8   4    1.25    0.27
  -4   8   4    1.36    0.23
  -3  -8   4    0.39    0.15
  -3  -8   4    0.36    0.11
  -3  -8   4    0.23    0.13
   3  -8  -4    0.32    0.14
  -3  -8   4    0.27    0.10
   3   8  -4    0.37    0.14
  -3   8   4    0.33    0.14
  -3   8   4    0.25    0.13
   3   8  -4    0.15    0.13
  -3   8   4    0.68    0.24
  -2  -8   4  116.15    2.81
   2  -8  -4  114.77    3.09
  -2  -8   4  114.35    3.06
  -2  -8   4  117.99    2.71
   2   8  -4  114.00    3.12
   1  -8  -4   72.88    2.23
  -1  -8   4   72.70    1.91
   1   8  -4   70.33    2.18
   0  -8  -4  116.20    3.27
   0  -8   4  118.28    2.90
   0   8   4  109.21    2.83
   0   8  -4  119.06    2.78
   0   8  -4  113.80    3.22
  -1  -8  -4   62.16    1.62
   1  -8   4   61.29    1.59
   1  -8   4   58.40    1.58
   1  -8   4   59.64    1.51
  -1  -8  -4   60.25    1.73
  -1   8  -4   59.66    1.48
  -1   8  -4   58.58    1.56
  -1   8  -4   56.24    1.62
   1   8   4   60.61    1.47
   1   8   4   59.44    1.60
   2  -8   4    0.92    0.31
   2  -8   4    0.77    0.15
  -2  -8  -4    0.71    0.20
  -2  -8  -4    1.05    0.20
  -2   8  -4    1.02    0.19
   2   8   4    0.87    0.16
  -2   8  -4    0.86    0.17
   2   8   4    0.83    0.19
  -2   8  -4    0.69    0.17
  -2   8  -4    0.82    0.20
  -3  -8  -4   18.43    0.57
   3  -8   4   18.34    0.67
  -3  -8  -4   18.65    0.85
  -3  -8  -4   18.48    0.57
  -3  -8  -4   17.98    0.73
  -3  -8  -4   15.90    0.79
  -3   8  -4   18.33    0.70
  -3   8  -4   17.26    0.71
   3   8   4   18.12    0.67
  -3   8  -4   17.26    0.76
  -4  -8  -4   56.12    1.60
   4  -8   4   55.43    1.53
  -4  -8  -4   55.76    1.54
  -4  -8  -4   57.51    1.72
   4   8   4   58.99    1.55
  -4   8  -4   56.20    1.60
  -4   8  -4   57.30    1.68
  -4   8  -4   58.11    1.59
  -5  -8  -4   20.08    0.70
   5  -8   4   20.52    0.68
  -5  -8  -4   20.69    0.73
  -5  -8  -4   20.07    0.67
  -5   8  -4   20.13    0.71
   5   8   4   20.81    0.68
  -5   8  -4   19.63    0.72
  -6  -9   4    5.55    0.31
  -6  -9   4    5.82    0.42
  -6  -9   4    6.24    0.32
  -6   9   4    6.02    0.40
   6   9  -4    6.28    0.41
  -5  -9   4    6.57    0.51
  -5  -9   4    6.73    0.45
  -5  -9   4    6.60    0.36
  -5  -9   4    7.33    0.37
  -5   9   4    6.90    0.45
  -5   9   4    6.43    0.60
  -4  -9   4   65.70    1.82
  -4  -9   4   64.45    1.65
  -4  -9   4   65.55    1.68
  -4   9   4   65.75    1.76
  -4   9   4   63.05    1.82
  -4   9   4   61.77    2.20
  -3  -9   4    2.72    0.31
  -3  -9   4    3.47    0.36
  -3  -9   4    3.03    0.24
  -3  -9   4    2.53    0.22
  -3  -9   4    2.23    0.24
   3  -9  -4    2.43    0.30
   3   9  -4    2.48    0.36
   3   9  -4    2.43    0.28
  -3   9   4    2.13    0.20
  -3   9   4    2.54    0.29
  -2  -9   4    3.85    0.26
  -2  -9   4    3.43    0.25
   2  -9  -4    3.50    0.40
  -2  -9   4    2.89    0.32
  -2  -9   4    3.53    0.31
  -2  -9   4    3.22    0.24
  -2   9   4    3.10    0.24
   2   9  -4    3.55    0.24
   2   9  -4    3.76    0.42
   2   9  -4    3.56    0.29
   1  -9  -4    1.55    0.34
  -1  -9   4    1.58    0.26
  -1  -9   4    1.21    0.20
  -1  -9   4    1.34    0.21
  -1  -9   4    1.05    0.21
  -1  -9   4    1.47    0.22
   1   9  -4    1.00    0.25
   1   9  -4    1.37    0.19
   0  -9   4    2.96    0.36
   0  -9  -4    3.33    0.54
   0  -9   4    3.54    0.33
   0  -9   4    3.09    0.30
   0  -9   4    2.66    0.20
   0   9   4    2.53    0.28
   0   9  -4    2.85    0.31
   0   9   4    2.47    0.23
   0   9  -4    2.39    0.21
  -1  -9  -4   16.58    0.62
   1  -9   4   16.25    0.64
   1  -9   4   18.21    0.67
   1  -9   4   17.57    0.60
  -1  -9  -4   17.91    0.77
   1   9   4   17.60    0.68
  -1   9  -4   18.14    0.71
  -1   9  -4   16.56    0.56
   1   9   4   16.70    0.54
  -1   9  -4   16.14    0.63
   2  -9   4   45.72    1.26
  -2  -9  -4   45.89    1.49
  -2  -9  -4   44.89    1.31
   2   9   4   47.31    1.25
  -2   9  -4   46.24    1.39
  -2   9  -4   44.69    1.32
  -2   9  -4   47.48    1.23
   2   9   4   42.19    1.30
  -2   9  -4   44.19    1.29
  -2   9  -4   44.44    1.20
  -3  -9  -4    9.02    0.35
   3  -9   4   10.03    0.47
  -3  -9  -4    9.65    0.61
  -3  -9  -4    8.94    0.50
  -3  -9  -4    9.18    0.36
   3   9   4    9.31    0.45
  -3   9  -4    9.21    0.54
  -3   9  -4    8.95    0.49
  -3   9  -4    9.31    0.48
  -4  -9  -4   10.25    0.48
  -4  -9  -4    9.96    0.58
   4  -9   4   10.82    0.49
  -4  -9  -4   10.94    0.53
  -4   9  -4   10.81    0.58
  -4   9  -4   10.30    0.52
   4   9   4   10.26    0.48
  -4   9  -4   10.54    0.51
  -5  -9  -4   13.28    0.54
  -5  -9  -4   12.67    0.52
  -5  -9  -4   12.49    0.47
   5  -9   4   13.16    0.50
  -5   9  -4   12.22    0.52
   5   9   4   14.12    0.50
  -5   9  -4   12.61    0.52
  -6 -10   4   19.97    0.84
  -6 -10   4   20.86    0.68
  -6 -10   4   20.42    0.66
  -6  10   4   21.16    0.75
   6  10  -4   20.19    0.77
  -5 -10   4    1.76    0.22
  -5 -10   4    2.19    0.25
   5  10  -4    1.90    0.28
  -5  10   4    2.18    0.31
  -5  10   4    1.63    0.20
  -4 -10   4   16.87    0.62
  -4 -10   4   16.18    0.62
  -4 -10   4   16.85    0.72
  -4  10   4   15.46    0.66
  -4  10   4   16.54    0.75
   4  10  -4   15.98    0.70
  -3 -10   4    1.02    0.22
  -3 -10   4    0.57    0.14
  -3 -10   4    0.74    0.16
  -3 -10   4    0.82    0.16
  -3 -10   4    0.55    0.17
   3  10  -4    0.48    0.17
  -3  10   4    0.72    0.15
  -3  10   4    0.40    0.16
  -2 -10   4    5.19    0.31
  -2 -10   4    5.07    0.37
  -2 -10   4    5.48    0.39
  -2 -10   4    4.91    0.31
   2 -10  -4    5.43    0.50
  -2 -10   4    5.92    0.33
  -2  10   4    4.81    0.31
   2  10  -4    5.62    0.37
   2  10  -4    5.10    0.30
   2  10  -4    4.78    0.48
  -1 -10   4    4.65    0.36
  -1 -10   4    4.22    0.31
  -1 -10   4    4.49    0.33
  -1 -10   4    4.64    0.30
  -1 -10   4    4.36    0.36
  -1 -10   4    4.58    0.30
   1 -10  -4    4.46    0.49
   1  10  -4    4.78    0.49
   1  10  -4    4.50    0.28
   1  10  -4    4.35    0.34
  -1  10   4    4.28    0.31
  -1  10   4    4.18    0.30
   0 -10  -4   11.84    0.83
   0 -10   4   12.35    0.63
   0 -10   4   11.21    0.60
   0 -10   4   11.61    0.51
   0 -10   4   12.16    0.44
   0 -10   4   12.29    0.54
   0  10  -4   12.26    0.56
   0  10   4   11.52    0.50
   0  10   4   12.50    0.47
   0  10  -4   11.47    0.51
   0  10   4   12.49    0.49
   0  10  -4   11.91    0.48
   0  10   4   11.21    0.53
   0  10   4   12.65    0.54
  -1 -10  -4    1.89    0.25
   1 -10   4    2.10    0.23
   1 -10   4    1.80    0.24
   1 -10   4    2.19    0.27
  -1  10  -4    1.76    0.27
   1  10   4    1.49    0.24
  -1  10  -4    2.01    0.19
   1  10   4    1.85    0.16
  -1  10  -4    2.45    0.29
  -2 -10  -4    6.60    0.50
   2 -10   4    6.59    0.40
  -2 -10  -4    6.28    0.40
   2 -10   4    6.10    0.36
  -2  10  -4    6.69    0.30
  -2  10  -4    6.44    0.40
  -2  10  -4    6.37    0.39
  -2  10  -4    6.05    0.28
   2  10   4    6.37    0.34
   2  10   4    6.50    0.41
  -2  10  -4    5.69    0.42
  -3 -10  -4    0.14    0.18
  -3 -10  -4    0.06    0.14
   3 -10   4    0.17    0.12
  -3  10  -4    0.25    0.12
  -3  10  -4    0.11    0.14
   3  10   4    0.19    0.10
  -3  10  -4    0.09    0.12
  -4 -10  -4    7.93    0.45
  -4 -10  -4    7.57    0.50
   4 -10   4    7.68    0.40
  -4  10  -4    7.46    0.47
   4  10   4    7.42    0.39
  -4  10  -4    7.83    0.45
  -4  10  -4    6.40    0.40
  -5 -10  -4    9.25    0.41
  -5 -10  -4    8.23    0.39
   5 -10   4    8.45    0.37
  -5 -10  -4    8.43    0.38
  -5  10  -4    7.79    0.39
   5  10   4    7.91    0.34
  -5  10  -4    7.49    0.38
  -6 -11   4    8.58    0.38
  -6 -11   4    7.47    0.36
  -6 -11   4    7.82    0.50
  -6  11   4    7.40    0.43
   6  11  -4    8.24    0.44
  -5 -11   4   32.28    0.97
  -5 -11   4   31.29    0.98
  -5  11   4   31.97    0.98
   5  11  -4   31.02    1.07
  -4 -11   4   29.55    0.94
  -4 -11   4   29.57    0.92
  -4 -11   4   30.09    1.02
  -4 -11   4   28.97    0.95
   4  11  -4   29.26    1.03
  -4  11   4   27.80    0.84
  -4  11   4   28.30    1.10
  -3 -11   4  100.27    2.56
  -3 -11   4  102.99    2.57
  -3 -11   4   96.01    2.43
  -3 -11   4  102.91    2.47
  -3 -11   4   98.29    2.43
  -3  11   4   98.99    2.41
   3  11  -4   99.89    2.43
  -3  11   4   99.72    2.76
   3  11  -4  101.77    2.56
  -2 -11   4   10.70    0.47
  -2 -11   4   10.61    0.47
  -2 -11   4   10.80    0.56
  -2 -11   4   10.48    0.46
   2 -11  -4    9.48    0.69
  -2 -11   4   10.17    0.53
  -2  11   4   10.70    0.48
   2  11  -4    9.51    0.51
   2  11  -4    9.85    0.72
   2  11  -4   10.75    0.46
  -1 -11   4    1.64    0.24
  -1 -11   4    1.58    0.26
  -1 -11   4    1.26    0.19
   1 -11  -4    1.75    0.40
  -1 -11   4    1.76    0.25
  -1 -11   4    1.45    0.27
  -1 -11   4    1.70    0.24
  -1  11   4    1.86    0.25
   1  11  -4    1.71    0.40
  -1  11   4    1.80    0.24
   1  11  -4    1.47    0.19
   1  11  -4    1.91    0.28
   0 -11  -4    2.49    0.51
   0 -11   4    2.13    0.21
   0 -11   4    2.09    0.28
   0 -11   4    1.48    0.28
   0 -11   4    2.18    0.32
   0 -11   4    2.35    0.28
   0  11  -4    2.53    0.29
   0  11   4    2.11    0.25
   0  11   4    1.71    0.19
   0  11   4    1.99    0.27
   0  11   4    2.77    0.33
   0  11  -4    1.82    0.27
   0  11  -4    2.17    0.23
   0  11   4    1.71    0.19
  -1 -11  -4   49.06    1.74
   1 -11   4   49.76    1.42
  -1 -11  -4   48.02    1.35
   1 -11   4   50.72    1.39
   1 -11   4   51.50    1.32
  -1 -11  -4   48.28    1.33
  -1  11  -4   48.36    1.38
   1  11   4   49.43    1.42
  -1  11  -4   49.04    1.47
   1  11   4   47.41    1.46
  -1  11  -4   44.72    1.23
  -2 -11  -4   20.74    0.92
   2 -11   4   21.40    0.74
   2 -11   4   20.70    0.78
  -2 -11  -4   21.56    0.78
  -2  11  -4   20.88    0.84
  -2  11  -4   20.71    0.76
   2  11   4   20.38    0.78
  -2  11  -4   19.85    0.78
   2  11   4   20.99    0.68
   3 -11   4    9.99    0.48
  -3 -11  -4   10.66    0.54
  -3 -11  -4   11.20    0.64
  -3  11  -4   10.44    0.53
  -3  11  -4    9.75    0.57
  -3  11  -4    9.25    0.49
   3  11   4   10.93    0.47
  -4 -11  -4   22.55    0.78
  -4 -11  -4   22.10    0.89
  -4 -11  -4   21.11    0.79
   4 -11   4   21.95    0.74
  -4  11  -4   22.76    0.85
  -4  11  -4   24.11    0.83
   4  11   4   22.33    0.73
  -4  11  -4   21.99    0.78
  -5 -11  -4    0.46    0.13
   5 -11   4    0.66    0.12
  -5 -11  -4    0.75    0.14
  -5  11  -4    0.72    0.14
   5  11   4    0.49    0.10
  -6 -12   4   19.38    0.82
  -6 -12   4   21.07    0.65
  -6 -12   4   19.99    0.65
   6  12  -4   19.89    0.73
  -5 -12   4    3.88    0.29
  -5 -12   4    4.00    0.29
   5  12  -4    3.86    0.35
  -5  12   4    4.21    0.30
  -4 -12   4    8.33    0.44
  -4 -12   4    8.25    0.42
  -4 -12   4    6.98    0.42
  -4 -12   4    7.72    0.41
  -4  12   4    7.66    0.37
  -4  12   4    7.47    0.53
   4  12  -4    8.50    0.51
  -3 -12   4   18.95    0.71
  -3 -12   4   19.47    0.71
  -3 -12   4   19.03    0.78
  -3 -12   4   18.94    0.77
  -3 -12   4   19.16    0.70
   3  12  -4   19.32    0.79
   3  12  -4   18.74    0.68
  -3  12   4   19.01    0.67
  -2 -12   4    1.30    0.23
  -2 -12   4    1.92    0.25
  -2 -12   4    1.64    0.22
  -2 -12   4    1.81    0.30
  -2 -12   4    1.18    0.20
   2  12  -4    1.48    0.20
   2  12  -4    1.61    0.26
  -2  12   4    2.19    0.27
  -1 -12   4    1.04    0.22
  -1 -12   4    0.93    0.19
  -1 -12   4    0.86    0.19
   1 -12  -4    0.45    0.22
  -1 -12   4    1.02    0.20
  -1 -12   4    1.00    0.23
  -1 -12   4    0.88    0.18
  -1  12   4    0.89    0.20
  -1  12   4    0.74    0.18
   1  12  -4    1.12    0.23
   1  12  -4    0.88    0.16
   0 -12   4    4.20    0.41
   0 -12   4    4.28    0.34
   0 -12  -4    4.05    0.54
   0 -12   4    4.36    0.34
   0 -12   4    4.42    0.26
   0 -12   4    4.55    0.47
   0  12  -4    4.05    0.41
   0  12   4    4.33    0.34
   0  12  -4    4.30    0.33
   0  12   4    4.24    0.33
   0  12  -4    3.97    0.28
   1 -12   4    0.11    0.09
   1 -12   4    0.11    0.13
  -1 -12  -4    0.21    0.13
   1 -12   4    0.03    0.12
   1  12   4    0.13    0.14
  -1  12  -4    0.14    0.16
   1  12   4    0.12    0.14
  -1  12  -4    0.02    0.12
  -1  12  -4    0.06    0.12
  -2 -12  -4    0.84    0.23
   2 -12   4    1.14    0.19
   2 -12   4    1.18    0.22
  -2 -12  -4    1.09    0.19
  -2 -12  -4    0.60    0.17
  -2  12  -4    1.25    0.24
   2  12   4    1.26    0.23
  -2  12  -4    0.84    0.22
   2  12   4    1.01    0.16
  -2  12  -4    1.03    0.21
   3 -12   4    0.58    0.15
  -3 -12  -4    1.13    0.29
  -3 -12  -4    0.63    0.19
  -3 -12  -4    0.91    0.20
  -3  12  -4    0.70    0.20
   3  12   4    0.75    0.15
  -3  12  -4    0.69    0.18
  -3  12  -4    1.00    0.21
   4 -12   4   25.45    0.80
  -4 -12  -4   24.14    0.93
  -4 -12  -4   26.33    0.87
  -4 -12  -4   26.92    0.85
  -4  12  -4   25.79    0.87
   4  12   4   25.29    0.77
  -4  12  -4   25.09    0.83
  -4  12  -4   25.61    0.90
  -5 -12  -4   21.28    0.64
   5 -12   4   20.76    0.62
  -6 -13   4    8.21    0.36
  -6 -13   4    8.79    0.44
   6  13  -4    8.65    0.44
  -5 -13   4    4.14    0.29
  -5 -13   4    3.88    0.28
   5  13  -4    4.21    0.36
  -5  13   4    4.08    0.29
  -4 -13   4    1.95    0.26
  -4 -13   4    1.87    0.26
  -4 -13   4    2.07    0.29
  -4 -13   4    2.44    0.28
   4  13  -4    2.29    0.25
  -4  13   4    1.60    0.30
  -4  13   4    2.38    0.22
   4  13  -4    1.73    0.29
  -3 -13   4    2.78    0.30
  -3 -13   4    2.99    0.28
  -3 -13   4    2.86    0.36
  -3 -13   4    3.41    0.29
   3  13  -4    3.59    0.28
   3  13  -4    3.56    0.41
  -3  13   4    4.02    0.29
  -2 -13   4    1.03    0.20
  -2 -13   4    1.42    0.25
  -2 -13   4    1.22    0.20
  -2 -13   4    1.07    0.26
   2  13  -4    1.05    0.24
   2  13  -4    1.07    0.18
  -2  13   4    1.01    0.20
  -2  13   4    1.30    0.21
  -1 -13   4    1.70    0.27
  -1 -13   4    2.16    0.29
  -1 -13   4    1.93    0.26
  -1 -13   4    1.75    0.25
  -1 -13   4    1.81    0.31
   1  13  -4    2.24    0.32
   1  13  -4    1.80    0.22
  -1  13   4    1.85    0.27
  -1  13   4    1.52    0.24
   0 -13   4   -0.06    0.13
   0 -13   4   -0.13    0.14
   0 -13   4   -0.02    0.12
   0 -13   4    0.03    0.10
   0 -13   4    0.02    0.08
   0  13   4    0.04    0.12
   0  13   4    0.22    0.14
   0  13  -4    0.18    0.13
   0  13  -4    0.40    0.17
   0  13  -4    0.18    0.10
  -1 -13  -4   13.67    0.58
   1 -13   4   14.49    0.65
   1 -13   4   14.43    0.62
   1 -13   4   14.06    0.56
  -1  13  -4   14.44    0.63
  -1  13  -4   14.86    0.71
   1  13   4   15.23    0.68
  -1  13  -4   14.66    0.68
   1  13   4   15.25    0.66
   2 -13   4    0.18    0.12
  -2 -13  -4    0.15    0.15
   2 -13   4    0.05    0.09
  -2 -13  -4    0.18    0.14
  -2 -13  -4   -0.07    0.13
   2  13   4    0.16    0.11
   2  13   4   -0.12    0.11
  -2  13  -4    0.00    0.12
  -2  13  -4    0.07    0.12
   3 -13   4   17.35    0.64
  -3 -13  -4   17.22    0.68
  -3 -13  -4   17.97    0.83
  -3  13  -4   16.95    0.66
   3  13   4   17.41    0.58
  -3  13  -4   16.88    0.70
  -3  13  -4   17.79    0.75
   4 -13   4   13.18    0.50
  -4 -13  -4   12.91    0.59
  -4 -13  -4   13.34    0.53
   4  13   4   12.31    0.44
  -4  13  -4   13.15    0.52
  -4  13  -4   11.97    0.53
  -4  13  -4   13.15    0.57
  -5 -14   4    0.32    0.12
  -5 -14   4    0.32    0.11
  -5  14   4    0.29    0.09
   5  14  -4    0.28    0.15
   5  14  -4    0.21    0.11
  -5  14   4    0.15    0.09
  -4 -14   4    0.16    0.13
  -4 -14   4    0.09    0.10
  -4 -14   4    0.02    0.09
  -4 -14   4   -0.04    0.10
  -4  14   4    0.04    0.11
   4  14  -4   -0.14    0.13
   4  14  -4   -0.19    0.08
  -4  14   4   -0.07    0.08
  -3 -14   4   12.14    0.62
  -3 -14   4   12.19    0.55
  -3 -14   4   12.74    0.56
  -3 -14   4   11.04    0.53
  -3  14   4   12.46    0.53
   3  14  -4   12.03    0.62
   3  14  -4   11.80    0.52
  -2 -14   4   38.99    1.31
  -2 -14   4   37.31    1.14
  -2 -14   4   38.13    1.16
   2  14  -4   39.50    1.28
   2  14  -4   39.68    1.14
  -2  14   4   38.80    1.17
  -2  14   4   38.13    1.15
  -1 -14   4   13.72    0.61
  -1 -14   4   12.81    0.61
  -1 -14   4   12.09    0.56
  -1 -14   4   12.98    0.58
  -1 -14   4   13.22    0.69
  -1 -14   4   12.50    0.62
  -1 -14   4   13.56    0.57
   1  14  -4   13.96    0.67
   1  14  -4   13.69    0.55
  -1  14   4   12.62    0.58
  -1  14   4   12.68    0.58
   0 -14   4   40.68    1.21
   0 -14   4   39.84    1.06
   0 -14   4   35.79    1.28
   0 -14   4   41.78    1.43
   0 -14   4   40.72    1.26
   0  14  -4   40.03    1.31
   0  14   4   38.77    1.21
   0  14  -4   40.62    1.21
   0  14  -4   38.97    1.10
   1 -14   4   30.13    1.05
   1 -14   4   30.27    1.13
   1 -14   4   30.32    1.04
   1 -14   4   31.05    0.92
  -1  14  -4   29.88    1.00
  -1  14  -4   29.04    1.09
   1  14   4   31.52    1.04
  -1  14  -4   29.71    0.98
   1  14   4   30.86    0.97
   1  14   4   30.28    0.96
  -2 -14  -4    0.86    0.21
  -2 -14  -4    0.84    0.23
  -2 -14  -4    0.87    0.19
   2 -14   4    0.93    0.19
   2 -14   4    1.12    0.18
  -2  14  -4    1.04    0.23
   2  14   4    0.81    0.21
  -2  14  -4    1.19    0.23
   2  14   4    1.22    0.22
  -3 -14  -4    1.56    0.29
   3 -14   4    1.97    0.23
  -3 -14  -4    1.86    0.25
  -3  14  -4    1.73    0.23
  -3  14  -4    1.78    0.26
  -3  14  -4    1.53    0.26
   4 -14   4    9.74    0.40
  -4 -14  -4   10.10    0.42
  -4 -14  -4    9.72    0.49
  -4  14  -4   10.04    0.47
  -4  14  -4    9.37    0.42
  -4  14  -4   10.20    0.45
  -5 -15   4   19.71    0.64
  -5 -15   4   18.09    0.64
  -5  15   4   16.28    0.57
  -5  15   4   19.07    0.56
   5  15  -4   19.00    0.62
  -5  15   4   19.10    0.60
   5  15  -4   19.62    0.71
  -4 -15   4   18.00    0.74
  -4 -15   4   18.53    0.70
  -4 -15   4   19.65    0.70
  -4 -15   4   20.58    0.72
   4  15  -4   20.19    0.79
  -4  15   4   20.68    0.67
  -4  15   4   19.84    0.89
   4  15  -4   19.87    0.69
  -3 -15   4   42.55    1.24
  -3 -15   4   42.90    1.37
  -3 -15   4   41.31    1.25
  -3  15   4   42.37    1.22
   3  15  -4   43.47    1.23
   3  15  -4   44.62    1.38
  -2 -15   4    5.08    0.37
  -2 -15   4    5.16    0.43
  -2 -15   4    5.32    0.35
   2  15  -4    5.34    0.34
   2  15  -4    5.50    0.44
  -2  15   4    5.60    0.38
  -2  15   4    4.83    0.34
  -1 -15   4    1.16    0.22
  -1 -15   4    0.73    0.25
  -1 -15   4    0.54    0.18
  -1 -15   4    0.50    0.15
  -1 -15   4    0.47    0.16
   1  15  -4    0.32    0.12
  -1  15   4    0.57    0.17
   1  15  -4    0.28    0.17
  -1  15   4    0.53    0.17
   0 -15   4    1.39    0.25
   0 -15   4    1.92    0.29
   0 -15   4    1.90    0.27
   0 -15   4    1.93    0.34
   0 -15   4    2.20    0.38
   0  15   4    1.45    0.25
   0  15  -4    1.09    0.25
   0  15  -4    1.58    0.18
   0  15   4    1.41    0.23
   0  15  -4    1.43    0.24
   1 -15   4   49.39    1.57
   1 -15   4   49.84    1.49
   1 -15   4   49.63    1.34
  -1  15  -4   50.10    1.56
  -1  15  -4   52.75    1.47
   1  15   4   51.25    1.50
  -1  15  -4   51.73    1.31
  -1  15  -4   50.52    1.28
  -2 -15  -4   32.01    0.99
   2 -15   4   31.69    0.95
  -2 -15  -4   31.78    1.19
   2 -15   4   32.24    1.13
  -2 -15  -4   32.80    1.02
  -2  15  -4   32.14    1.10
   2  15   4   29.80    1.00
  -2  15  -4   32.65    1.06
   2  15   4   31.75    1.06
  -3 -15  -4   25.06    0.98
  -3 -15  -4   26.10    0.83
   3 -15   4   25.42    0.79
  -3  15  -4   26.70    0.90
   3  15   4   23.74    0.89
  -3  15  -4   26.93    0.88
  -4 -15  -4   21.74    0.75
  -4 -15  -4   22.02    0.67
   4 -15   4   21.23    0.64
  -4  15  -4   22.15    0.72
  -4  15  -4   21.08    0.66
  -4  15  -4   22.82    0.70
  -5 -16   4    5.78    0.31
   5  16  -4    5.11    0.29
  -5  16   4    5.63    0.26
   5  16  -4    4.79    0.34
  -4 -16   4    9.85    0.44
  -4 -16   4   10.21    0.46
   4  16  -4    9.34    0.51
   4  16  -4    9.43    0.42
  -4  16   4   10.15    0.42
  -4  16   4    8.16    0.55
  -3 -16   4   11.33    0.52
  -3 -16   4   10.99    0.52
  -3 -16   4   11.69    0.61
   3  16  -4   11.41    0.50
   3  16  -4   11.56    0.61
  -3  16   4   12.25    0.52
  -2 -16   4   41.38    1.24
  -2 -16   4   41.88    1.39
  -2  16   4   40.20    1.21
   2  16  -4   41.85    1.36
   2  16  -4   41.51    1.19
  -2  16   4   42.28    1.23
  -1 -16   4   66.96    2.00
  -1 -16   4   66.82    1.79
  -1 -16   4   66.05    1.84
   1  16  -4   66.76    1.91
   1  16  -4   66.32    1.70
  -1  16   4   66.58    1.80
  -1  16   4   66.82    1.79
   0 -16   4   58.17    1.59
   0 -16   4   56.64    1.67
   0 -16   4   59.48    1.67
   0  16   4   57.71    1.61
   0  16  -4   58.65    1.74
   0  16  -4   58.68    1.59
   0  16   4   59.79    1.63
   0  16  -4   54.72    1.72
   1 -16   4   33.38    1.11
   1 -16   4   32.61    0.95
  -1  16  -4   35.26    1.09
   1  16   4   34.56    1.10
  -1  16  -4   35.48    1.19
  -2 -16  -4   27.38    1.06
  -2 -16  -4   26.97    0.86
   2 -16   4   27.92    1.00
   2 -16   4   28.59    0.84
  -2 -16  -4   28.14    0.85
   2  16   4   28.30    0.82
   2  16   4   27.72    0.81
   2  16   4   27.65    0.90
  -2  16  -4   29.82    0.95
   3 -16   4    7.02    0.32
  -3 -16  -4    7.25    0.46
  -3 -16  -4    7.57    0.36
   3 -16   4    6.97    0.41
   3  16   4    6.68    0.37
  -3  16  -4    6.94    0.38
  -3  16  -4    6.57    0.39
   4 -17  -4    4.59    0.29
  -4 -17   4    4.86    0.30
  -4 -17   4    4.15    0.28
  -4  17   4    3.53    0.35
  -4  17   4    4.24    0.26
   4  17  -4    4.10    0.33
   4  17  -4    4.59    0.28
  -3 -17   4    1.80    0.23
  -3 -17   4    1.82    0.23
  -3 -17   4    1.20    0.24
   3  17  -4    2.17    0.30
   3  17  -4    1.47    0.19
  -3  17   4    1.85    0.23
  -2 -17   4    0.96    0.26
  -2 -17   4    0.85    0.19
  -2  17   4    1.01    0.20
  -2  17   4    0.95    0.19
   2  17  -4    0.88    0.17
   2  17  -4    0.77    0.21
  -1 -17   4    0.82    0.22
  -1 -17   4    0.26    0.14
   1  17  -4    0.56    0.20
   1  17  -4    0.45    0.12
  -1  17   4    0.45    0.15
  -1  17   4    0.44    0.16
   0 -17   4    2.25    0.30
   0 -17   4    2.74    0.41
   0 -17   4    1.89    0.26
   0 -17   4    2.54    0.28
   0  17  -4    2.36    0.32
   0  17   4    2.34    0.30
   0  17  -4    2.29    0.31
   0  17  -4    2.42    0.28
   1 -17   4    3.40    0.24
   1 -17   4    3.77    0.32
  -1  17  -4    3.32    0.34
   1  17   4    3.75    0.33
  -1  17  -4    3.93    0.35
   2 -17   4    3.55    0.23
  -2 -17  -4    2.88    0.36
  -2  17  -4    3.73    0.29
  -2  17  -4    3.45    0.30
   2  17   4    3.36    0.27
   3 -17   4    0.44    0.09
  -3 -17  -4    0.41    0.11
  -3 -17  -4    0.38    0.14
  -3  17  -4    0.61    0.14
  -3  17  -4    0.52    0.13
  -4 -18   4    1.58    0.20
   4  18  -4    1.36    0.22
   4  18  -4    1.54    0.17
  -4  18   4    1.67    0.18
  -3 -18   4   16.13    0.61
  -3 -18   4   15.06    0.68
   3  18  -4   16.49    0.68
   3  18  -4   15.90    0.56
  -3  18   4   15.03    0.57
  -2 -18   4   42.08    1.39
  -2 -18   4   41.96    1.23
  -2  18   4   43.06    1.22
   2  18  -4   42.60    1.33
  -2  18   4   41.32    1.21
   2  18  -4   42.82    1.15
  -1 -18   4   22.15    0.79
  -1 -18   4   22.88    0.96
  -1  18   4   22.54    0.79
   1  18  -4   22.95    0.90
  -1  18   4   23.89    0.81
   1  18  -4   23.45    1.15
   0 -18   4   48.57    1.30
   0 -18   4   45.37    1.52
   0 -18   4   45.61    1.31
   0  18  -4   50.55    1.48
   0  18  -4   48.60    1.21
   0  18  -4   46.85    1.19
   0  18   4   48.50    1.38
   0  18  -4   48.54    1.33
   1 -18   4   34.70    1.14
   1  18   4   36.98    1.11
  -1  18  -4   36.42    1.08
  -1  18  -4   37.21    1.16
  -2 -18  -4    1.04    0.20
   2 -18   4    1.52    0.15
  -2  18  -4    1.76    0.23
  -2  18  -4    2.00    0.23
  -3  18  -4    3.37    0.23
  -3 -19   4   14.45    0.54
  -3 -19   4   13.71    0.59
   3 -19  -4   14.31    0.55
   3  19  -4   14.46    0.60
  -3  19   4   14.71    0.52
   3  19  -4   13.96    0.47
  -2 -19   4    2.04    0.24
  -2 -19   4    1.63    0.27
   2  19  -4    1.94    0.26
  -2  19   4    2.41    0.23
  -2  19   4    2.28    0.24
  -1 -19   4    0.25    0.16
  -1 -19   4    0.70    0.16
   1  19  -4    0.60    0.19
   1  19  -4    0.72    0.19
  -1  19   4    0.45    0.14
  -1  19   4    0.70    0.17
   0  19  -4    2.01    0.22
   0  19   4    1.98    0.25
   0  19  -4    1.95    0.28
   1 -19   4   20.84    0.72
  -1 -19  -4   20.52    0.71
  -1  19  -4   21.16    0.76
  -1  19  -4   21.76    0.70
   1  19   4   20.91    0.71
  -2  19  -4   16.39    0.59
  -2  19  -4   14.99    0.54
  -3  20   4    0.92    0.16
   3  20  -4    0.52    0.18
   2 -20  -4    0.13    0.09
  -2 -20   4    0.11    0.11
  -2 -20   4    0.17    0.13
  -2  20   4    0.12    0.09
   2  20  -4    0.08    0.12
  -2  20   4    0.03    0.08
   2  20  -4   -0.02    0.10
   1 -20  -4    1.28    0.18
  -1 -20   4    1.52    0.20
  -1  20   4    1.13    0.17
   1  20  -4    1.67    0.24
   0  20  -4    0.06    0.10
   0  20   4    0.03    0.09
  -1 -20  -4    0.03    0.07
  -1  20  -4    0.07    0.09
   1  20   4    0.07    0.10
  -1  20  -4    0.30    0.12
   1  21  -4    0.31    0.12
  -1  21   4    0.13    0.09
   0  21   4    0.26    0.10
   0  21  -4    0.29    0.12
  -7   0   5    0.07    0.14
  -6   0   5    0.29    0.18
  -6   0   5    0.02    0.16
  -6   0   5    0.30    0.18
  -5   0   5    0.62    0.21
  -5   0   5    0.02    0.11
  -5   0   5   -0.08    0.14
  -5   0   5    0.11    0.16
  -5   0   5    0.02    0.06
  -5   0   5    0.04    0.16
  -4   0   5   -0.08    0.10
  -4   0   5   -0.05    0.05
  -4   0   5    0.08    0.08
  -4   0   5   -0.02    0.12
   4   0  -5    0.01    0.15
  -4   0   5    0.07    0.12
  -4   0   5    0.05    0.11
  -3   0   5    0.05    0.13
  -3   0   5   -0.02    0.14
  -3   0   5    0.19    0.14
  -3   0   5    0.09    0.10
   3   0  -5    0.04    0.11
  -3   0   5    0.00    0.06
   2   0  -5    0.05    0.13
   1   0  -5    0.04    0.13
   0   0  -5   -0.02    0.12
   1   0   5   -0.03    0.06
  -1   0  -5    0.03    0.08
   2   0   5    0.16    0.11
  -2   0  -5    0.30    0.09
  -2   0  -5   -0.05    0.10
   2   0   5    0.05    0.07
  -2   0  -5    0.11    0.11
  -3   0  -5    0.03    0.13
  -3   0  -5   -0.04    0.10
   3   0   5    0.12    0.09
  -4   0  -5    0.38    0.17
  -4   0  -5    0.09    0.12
   4   0   5   -0.02    0.09
  -5   0  -5   -0.03    0.08
  -5   0  -5    0.01    0.09
  -5   0  -5    0.14    0.09
   5   0   5    0.06    0.08
  -7  -1   5    0.75    0.20
  -7   1   5    0.90    0.22
  -6  -1   5    1.68    0.31
  -6  -1   5    1.57    0.30
  -6  -1   5    1.12    0.25
  -6   1   5    1.38    0.29
  -6   1   5    1.28    0.27
  -6   1   5    1.41    0.30
  -5  -1   5   34.82    0.99
  -5  -1   5   35.05    1.23
  -5  -1   5   34.06    1.30
  -5  -1   5   35.91    1.22
  -5  -1   5   35.38    0.90
  -5  -1   5   34.83    0.94
  -5  -1   5   33.87    1.53
  -5  -1   5   35.75    1.19
  -5   1   5   34.73    1.21
  -5   1   5   35.10    1.25
  -5   1   5   34.90    1.18
  -4  -1   5    6.87    0.45
  -4  -1   5    6.86    0.44
  -4  -1   5    7.44    0.30
  -4  -1   5    7.13    0.64
  -4  -1   5    7.55    0.48
  -4   1   5    7.04    0.41
  -4   1   5    7.02    0.45
  -4   1   5    7.26    0.45
   4   1  -5    5.92    0.43
  -4   1   5    6.93    0.46
  -4   1   5    7.46    0.47
  -3  -1   5   70.52    1.95
  -3  -1   5   72.13    1.75
  -3  -1   5   74.38    1.99
   3  -1  -5   72.24    2.09
  -3  -1   5   79.27    2.59
   3   1  -5   75.30    2.14
  -3   1   5   76.48    2.33
  -3   1   5   76.46    2.10
  -3   1   5   73.42    1.99
  -3   1   5   70.26    1.91
  -3   1   5   70.71    1.94
  -2  -1   5  113.28    2.70
   2  -1  -5  119.98    3.15
   2   1  -5  118.88    3.13
   1  -1  -5    8.47    0.59
   1   1  -5    7.63    0.58
   0  -1  -5   66.37    2.15
   1  -1   5    0.96    0.14
  -1  -1  -5    0.90    0.15
  -1   1  -5    0.83    0.14
   1   1   5    0.77    0.13
  -2  -1  -5   10.90    0.40
  -2  -1  -5   11.60    0.61
   2  -1   5   11.32    0.46
  -2  -1  -5   11.07    0.51
   2  -1   5   11.87    0.50
   2   1   5   11.30    0.49
   2   1   5   11.80    0.46
  -2   1  -5   11.04    0.39
  -2   1  -5   11.44    0.52
  -3  -1  -5    8.56    0.47
  -3  -1  -5    8.93    0.54
   3  -1   5    7.85    0.41
   3   1   5    8.21    0.41
  -3   1  -5    8.31    0.54
  -3   1  -5    8.87    0.47
   4  -1   5   70.21    1.79
  -4  -1  -5   68.95    1.86
  -4  -1  -5   69.64    1.97
  -4  -1  -5   66.43    1.80
   4   1   5   70.53    1.79
  -4   1  -5   69.40    1.87
  -4   1  -5   70.10    1.96
   5  -1   5   11.31    0.45
  -5  -1  -5   11.67    0.50
  -5  -1  -5   10.58    0.45
  -5  -1  -5   11.04    0.48
  -5   1  -5   10.92    0.47
  -5   1  -5   12.39    0.51
  -5   1  -5   10.68    0.46
   5   1   5   11.60    0.46
  -7  -2   5    2.81    0.31
  -7   2   5    2.81    0.32
  -6  -2   5   70.25    2.01
  -6  -2   5   71.49    2.02
  -6   2   5   70.63    1.97
  -6   2   5   68.00    2.01
  -6   2   5   70.07    2.03
  -5  -2   5   96.82    2.57
  -5  -2   5   94.89    2.81
  -5  -2   5   96.26    2.21
  -5  -2   5   99.14    2.33
  -5  -2   5   91.87    2.36
  -5  -2   5   91.42    3.09
  -5  -2   5   97.25    2.58
  -5  -2   5   99.61    2.53
  -5   2   5  100.63    2.54
  -5   2   5   95.34    2.59
  -5   2   5   94.82    2.57
  -4  -2   5   38.38    1.72
  -4  -2   5   37.43    1.19
  -4  -2   5   38.53    0.99
  -4  -2   5   39.32    1.27
  -4  -2   5   37.99    1.24
  -4   2   5   38.31    1.20
  -4   2   5   37.68    1.22
  -4   2   5   38.74    1.17
  -4   2   5   39.45    1.28
  -4   2   5   37.46    1.21
   4   2  -5   35.71    1.25
  -3  -2   5   57.23    1.42
  -3  -2   5   59.94    2.28
  -3  -2   5   56.69    1.64
   3  -2  -5   60.43    1.79
  -3  -2   5   56.14    1.61
   3   2  -5   60.51    1.82
  -3   2   5   56.77    1.58
  -3   2   5   56.29    1.73
  -3   2   5   59.73    1.90
  -3   2   5   56.14    1.64
  -3   2   5   53.32    1.70
  -2  -2   5    1.83    0.17
   2  -2  -5    1.95    0.35
   2   2  -5    1.65    0.31
   1  -2  -5   28.14    1.19
   1   2  -5   28.05    1.17
   0  -2  -5   12.24    0.79
   0   2  -5   12.96    0.80
  -1  -2  -5  214.81    5.05
  -1  -2  -5  213.11    4.80
   1  -2   5  215.05    4.77
  -1   2  -5  213.29    4.80
   1   2   5  212.15    4.75
   1   2   5  226.46    4.96
   2  -2   5    0.17    0.09
   2  -2   5    0.14    0.12
  -2  -2  -5    0.06    0.12
  -2  -2  -5    0.27    0.17
   2   2   5    0.07    0.08
  -2   2  -5    0.05    0.06
   2   2   5    0.04    0.11
  -2   2  -5    0.15    0.12
  -3  -2  -5   14.46    0.62
  -3  -2  -5   12.92    0.56
   3  -2   5   14.15    0.56
  -3  -2  -5   13.96    0.70
  -3   2  -5   14.06    0.63
  -3   2  -5   14.00    0.71
   3   2   5   13.72    0.55
  -4  -2  -5    0.35    0.16
  -4  -2  -5    0.26    0.14
  -4  -2  -5    0.25    0.12
   4  -2   5    0.29    0.12
  -4   2  -5    0.14    0.12
   4   2   5    0.28    0.11
  -4   2  -5    0.14    0.13
  -5  -2  -5   18.28    0.66
   5  -2   5   17.45    0.61
  -5  -2  -5   17.71    0.62
  -5  -2  -5   18.61    0.66
  -5   2  -5   19.01    0.64
   5   2   5   19.16    0.63
  -5   2  -5   17.33    0.63
  -5   2  -5   19.23    0.67
  -7  -3   5    8.84    0.47
  -7   3   5    8.67    0.47
  -7   3   5    7.84    0.49
  -6  -3   5    2.36    0.34
  -6  -3   5    2.76    0.38
  -6   3   5    2.42    0.34
  -6   3   5    2.07    0.33
  -6   3   5    2.31    0.34
  -5  -3   5    2.70    0.25
  -5  -3   5    2.74    0.38
  -5  -3   5    2.58    0.39
  -5  -3   5    2.73    0.26
  -5  -3   5    2.58    0.19
  -5  -3   5    3.28    0.40
  -5  -3   5    2.85    0.38
  -5   3   5    2.18    0.34
  -5   3   5    2.00    0.30
  -5   3   5    2.60    0.36
  -4  -3   5    0.62    0.17
  -4  -3   5    0.84    0.35
  -4  -3   5    1.07    0.15
  -4  -3   5    0.94    0.22
  -4   3   5    0.85    0.18
   4   3  -5    0.94    0.24
  -4   3   5    1.26    0.20
  -4   3   5    0.78    0.20
  -4   3   5    1.17    0.23
  -4   3   5    0.74    0.20
  -3  -3   5   22.49    0.86
   3  -3  -5   24.15    0.96
  -3  -3   5   21.68    0.83
  -3  -3   5   21.60    0.68
  -3  -3   5   23.43    0.69
   3   3  -5   23.61    0.99
  -3   3   5   23.72    0.93
  -3   3   5   24.43    1.07
  -3   3   5   23.42    0.86
  -2  -3   5   43.02    1.16
   2  -3  -5   44.66    1.57
   2   3  -5   44.92    1.55
   1  -3  -5    7.98    0.62
   1   3  -5    8.10    0.60
   0  -3  -5   46.44    1.73
   0   3  -5   46.53    1.72
  -1  -3  -5    3.92    0.44
   1  -3   5    2.57    0.29
   1  -3   5    2.69    0.19
  -1  -3  -5    2.60    0.20
  -1   3  -5    2.47    0.23
   1   3   5    2.74    0.20
   1   3   5    2.41    0.27
  -1   3  -5    2.26    0.26
   2  -3   5    1.91    0.25
   2  -3   5    1.55    0.19
  -2  -3  -5    1.35    0.22
  -2  -3  -5    1.55    0.27
  -2   3  -5    1.83    0.27
  -2   3  -5    2.20    0.29
   2   3   5    2.09    0.26
   2   3   5    1.93    0.21
  -3  -3  -5    0.35    0.17
  -3  -3  -5    0.43    0.16
  -3  -3  -5    0.40    0.14
  -3  -3  -5    0.59    0.10
   3  -3   5    0.48    0.13
  -3  -3  -5    0.37    0.09
  -3   3  -5    0.48    0.17
  -3   3  -5    0.48    0.16
   3   3   5    0.61    0.14
  -4  -3  -5    7.03    0.47
  -4  -3  -5    6.67    0.38
  -4  -3  -5    7.08    0.42
   4  -3   5    6.94    0.38
  -4   3  -5    6.60    0.45
   4   3   5    6.79    0.37
  -4   3  -5    6.81    0.42
   5  -3   5    0.98    0.15
  -5  -3  -5    1.46    0.21
  -5  -3  -5    0.91    0.18
  -5  -3  -5    0.89    0.16
  -5   3  -5    0.91    0.15
  -5   3  -5    1.05    0.19
   5   3   5    1.08    0.16
  -7  -4   5    0.12    0.13
  -7   4   5   -0.29    0.14
  -7   4   5    0.05    0.14
  -6  -4   5    2.11    0.33
  -6  -4   5    1.77    0.29
  -6  -4   5    1.72    0.14
  -6   4   5    2.17    0.33
  -6   4   5    1.70    0.28
  -6   4   5    1.81    0.32
  -5  -4   5    0.16    0.15
  -5  -4   5   -0.02    0.08
  -5  -4   5    0.04    0.14
  -5  -4   5    0.04    0.14
  -5  -4   5    0.17    0.08
  -5   4   5   -0.02    0.14
  -5   4   5    0.04    0.15
  -5   4   5   -0.01    0.14
  -4  -4   5    0.43    0.16
  -4  -4   5    0.51    0.12
  -4  -4   5    0.40    0.11
  -4  -4   5    0.73    0.21
  -4   4   5    0.51    0.18
  -4   4   5    0.38    0.15
  -4   4   5    0.47    0.13
  -4   4   5    0.70    0.19
  -4   4   5    0.31    0.17
  -3  -4   5    0.59    0.19
  -3  -4   5    0.51    0.11
  -3  -4   5    0.45    0.15
  -3  -4   5    0.52    0.12
   3  -4  -5    0.56    0.18
   3  -4  -5    0.32    0.16
  -3   4   5    0.84    0.23
   3   4  -5    0.59    0.20
  -3   4   5    0.33    0.15
  -3   4   5    0.41    0.16
  -3   4   5    0.48    0.20
   2  -4  -5   15.73    0.82
  -2  -4   5   14.70    0.54
   2   4  -5   16.12    0.82
   1  -4  -5    5.52    0.52
   1   4  -5    5.33    0.50
   0  -4  -5    4.81    0.50
   0   4   5    5.86    0.38
   0   4  -5    4.66    0.49
  -1  -4  -5   16.90    0.58
   1  -4   5   17.21    0.64
   1  -4   5   17.15    0.56
  -1  -4  -5   15.68    0.61
  -1  -4  -5   18.10    0.75
  -1   4  -5   17.19    0.59
   1   4   5   16.49    0.64
  -1   4  -5   16.86    0.63
   1   4   5   17.17    0.54
   2  -4   5    0.19    0.12
  -2  -4  -5    0.16    0.14
   2  -4   5    0.09    0.09
  -2  -4  -5    0.12    0.13
   2   4   5    0.06    0.10
  -2   4  -5    0.17    0.13
  -2   4  -5    0.21    0.14
   2   4   5    0.07    0.08
  -2   4  -5    0.03    0.12
  -3  -4  -5    0.84    0.12
  -3  -4  -5    0.68    0.11
  -3  -4  -5    0.86    0.20
   3  -4   5    0.35    0.12
  -3  -4  -5    0.55    0.20
   3   4   5    0.56    0.14
  -3   4  -5    0.70    0.18
  -3   4  -5    0.93    0.21
   4  -4   5    0.12    0.11
  -4  -4  -5    0.00    0.11
  -4  -4  -5    0.11    0.13
  -4  -4  -5    0.12    0.11
   4   4   5    0.12    0.09
  -4   4  -5    0.06    0.13
  -4   4  -5   -0.02    0.11
  -5  -4  -5    5.92    0.34
   5  -4   5    5.94    0.31
  -5  -4  -5    6.32    0.34
  -5  -4  -5    5.84    0.31
  -5   4  -5    6.49    0.35
   5   4   5    6.60    0.31
  -7  -5   5    1.08    0.20
  -7   5   5    0.81    0.20
  -6  -5   5    0.17    0.15
  -6  -5   5    0.02    0.14
  -6  -5   5    0.04    0.06
  -6   5   5    0.25    0.18
  -6   5   5    0.01    0.16
  -6   5   5    0.05    0.14
  -5  -5   5   38.64    1.31
  -5  -5   5   40.17    1.08
  -5  -5   5   40.97    1.33
  -5  -5   5   39.18    1.07
  -5  -5   5   41.14    1.30
  -5   5   5   40.70    1.37
  -5   5   5   38.71    1.33
  -5   5   5   41.76    1.30
  -5   5   5   38.75    1.33
  -4  -5   5    0.92    0.20
  -4  -5   5    1.03    0.16
  -4  -5   5    1.18    0.25
  -4  -5   5    1.29    0.17
  -4   5   5    1.16    0.24
  -4   5   5    1.49    0.25
  -4   5   5    1.22    0.19
  -4   5   5    1.58    0.26
  -4   5   5    1.22    0.24
  -3  -5   5   65.12    1.80
  -3  -5   5   58.41    1.55
  -3  -5   5   63.29    1.58
   3  -5  -5   64.96    1.89
  -3  -5   5   61.67    1.76
  -3   5   5   63.39    2.12
   3   5  -5   62.95    1.98
  -3   5   5   62.25    1.74
  -3   5   5   66.17    1.87
  -3   5   5   62.01    1.70
  -2  -5   5   71.71    2.01
  -2  -5   5   74.87    1.85
  -2  -5   5   78.32    2.16
  -2  -5   5   72.25    2.00
   2  -5  -5   75.31    2.25
   2  -5  -5   75.16    2.25
   2   5  -5   76.73    2.29
  -1  -5   5    0.98    0.11
   1  -5  -5    0.90    0.26
  -1  -5   5    0.93    0.10
   1  -5  -5    1.23    0.30
   1   5  -5    0.99    0.27
   0  -5  -5   21.45    1.09
   0  -5  -5   21.86    1.10
   0   5  -5   21.44    0.71
   0   5  -5   23.79    1.13
   0   5   5   21.38    0.69
   1  -5   5   13.17    0.48
  -1  -5  -5   13.18    0.54
  -1  -5  -5   13.82    0.66
   1  -5   5   13.20    0.55
  -1  -5  -5   12.88    0.50
   1   5   5   13.34    0.56
  -1   5  -5   12.97    0.57
   1   5   5   12.16    0.44
  -1   5  -5   13.20    0.50
  -1   5  -5   13.10    0.55
   2  -5   5   56.95    1.47
  -2  -5  -5   56.88    1.71
   2  -5   5   53.72    1.49
  -2  -5  -5   56.55    1.53
   2   5   5   56.89    1.44
  -2   5  -5   51.84    1.54
  -2   5  -5   53.84    1.54
  -2   5  -5   56.53    1.55
   2   5   5   54.41    1.52
  -3  -5  -5   25.58    0.91
  -3  -5  -5   28.22    1.07
  -3  -5  -5   26.19    0.72
  -3  -5  -5   25.84    0.71
  -3   5  -5   26.76    0.94
  -3   5  -5   25.79    0.94
   3   5   5   26.54    0.85
  -4  -5  -5  111.73    2.91
  -4  -5  -5  110.74    2.72
  -4  -5  -5  115.47    2.80
   4  -5   5  115.69    2.74
   4   5   5  112.25    2.71
  -4   5  -5  114.08    2.89
  -4   5  -5  115.68    2.83
   5  -5   5   26.21    0.78
  -5  -5  -5   26.09    0.85
  -5  -5  -5   25.63    0.82
  -5  -5  -5   27.37    0.82
  -5   5  -5   26.72    0.83
   5   5   5   26.33    0.77
  -7  -6   5    1.50    0.21
  -6  -6   5    6.75    0.34
  -6  -6   5    6.00    0.32
  -6  -6   5    6.07    0.28
  -6  -6   5    6.23    0.44
  -6  -6   5    6.15    0.43
  -6   6   5    6.44    0.48
  -6   6   5    6.22    0.43
  -6   6   5    5.62    0.47
  -5  -6   5    6.40    0.46
  -5  -6   5    6.01    0.44
  -5  -6   5    5.59    0.44
  -5  -6   5    5.67    0.31
  -5  -6   5    5.77    0.31
  -5   6   5    5.60    0.48
  -5   6   5    6.80    0.48
  -5   6   5    6.31    0.48
  -5   6   5    6.51    0.45
  -4  -6   5   10.00    0.57
  -4  -6   5   10.41    0.57
  -4  -6   5   10.04    0.43
  -4  -6   5    9.86    0.41
  -4   6   5    9.01    0.46
  -4   6   5    9.97    0.53
  -4   6   5    8.78    0.53
  -4   6   5    9.31    0.56
  -3  -6   5    7.85    0.37
  -3  -6   5    7.77    0.48
  -3  -6   5    8.69    0.49
  -3  -6   5    7.68    0.37
   3  -6  -5    8.15    0.53
   3   6  -5    8.12    0.60
  -3   6   5    8.26    0.51
  -3   6   5    8.15    0.45
  -3   6   5    8.54    0.68
  -2  -6   5  184.64    4.40
  -2  -6   5  191.68    4.21
   2  -6  -5  192.69    4.72
  -2  -6   5  186.10    4.18
  -2  -6   5  185.19    4.39
   2   6  -5  187.38    4.72
  -2   6   5  172.89    4.19
   1  -6  -5  203.34    4.98
  -1  -6   5  189.48    4.20
   1  -6  -5  199.94    4.93
  -1  -6   5  190.63    4.37
  -1  -6   5  186.49    4.19
  -1  -6   5  191.87    4.61
  -1  -6   5  177.99    4.50
   1   6  -5  196.87    4.94
  -1   6   5  189.62    4.21
   1   6  -5  194.22    4.51
   0  -6   5  245.32    5.47
   0  -6  -5  234.99    5.39
   0  -6   5  243.66    5.62
   0  -6  -5  244.22    6.15
   0  -6   5  233.82    5.28
   0   6   5  244.41    5.35
   0   6   5  236.20    5.46
   0   6   5  249.55    5.41
   0   6   5  248.28    5.53
   0   6  -5  247.88    6.12
   0   6  -5  242.69    5.42
   1  -6   5  356.19    7.58
  -1  -6  -5  344.49    7.87
  -1  -6  -5  351.36    7.66
   1  -6   5  351.51    7.69
  -1  -6  -5  345.54    7.59
  -1   6  -5  341.77    7.58
   1   6   5  352.79    7.71
  -1   6  -5  338.85    7.70
   1   6   5  339.51    7.51
  -1   6  -5  353.30    7.68
   2  -6   5   97.84    2.40
  -2  -6  -5  100.05    2.66
   2  -6   5   97.89    2.36
  -2  -6  -5   97.56    2.45
  -2   6  -5   97.27    2.44
   2   6   5   96.91    2.43
  -2   6  -5   95.67    2.48
   2   6   5   96.68    2.32
  -2   6  -5   97.27    2.47
  -3  -6  -5   37.40    1.32
  -3  -6  -5   36.61    0.93
  -3  -6  -5   36.12    0.93
  -3  -6  -5   37.81    1.18
   3  -6   5   38.01    1.12
   3   6   5   37.70    1.08
  -3   6  -5   37.82    1.19
  -3   6  -5   36.60    1.20
  -4  -6  -5   24.46    0.85
   4  -6   5   24.49    0.80
  -4  -6  -5   23.92    0.93
  -4   6  -5   24.07    0.87
   4   6   5   24.19    0.77
  -4   6  -5   23.41    0.91
   5  -6   5    5.71    0.29
  -5  -6  -5    5.46    0.31
  -5  -6  -5    4.82    0.30
   5   6   5    5.71    0.28
  -5   6  -5    5.71    0.32
  -6  -7   5    4.06    0.29
  -6  -7   5    4.35    0.25
  -6  -7   5    4.52    0.31
  -6  -7   5    5.04    0.38
  -6   7   5    4.42    0.36
  -5  -7   5   16.75    0.75
  -5  -7   5   17.66    0.61
  -5  -7   5   17.28    0.76
  -5  -7   5   16.50    0.58
  -5  -7   5   17.49    0.80
  -5   7   5   15.29    0.89
  -5   7   5   16.00    0.76
  -5   7   5   16.66    0.73
  -4  -7   5    0.27    0.10
  -4  -7   5    0.24    0.14
  -4  -7   5    0.47    0.13
  -4  -7   5    0.34    0.16
  -4   7   5    0.38    0.17
  -4   7   5    0.27    0.12
  -4   7   5    0.37    0.18
  -4   7   5    0.38    0.16
  -4   7   5    0.21    0.17
   3  -7  -5   23.20    0.99
  -3  -7   5   25.12    0.77
  -3  -7   5   24.53    0.75
  -3  -7   5   22.80    0.89
  -3  -7   5   24.81    0.92
  -3   7   5   22.95    0.83
  -3   7   5   21.77    0.93
   3   7  -5   22.91    1.09
  -3   7   5   23.21    0.73
  -2  -7   5    3.45    0.26
  -2  -7   5    4.01    0.34
  -2  -7   5    3.59    0.26
  -2  -7   5    3.56    0.33
  -2  -7   5    3.45    0.27
   2   7  -5    3.61    0.42
  -2   7   5    3.98    0.28
  -1  -7   5    2.22    0.25
  -1  -7   5    2.07    0.25
  -1  -7   5    1.98    0.30
  -1  -7   5    2.11    0.24
  -1  -7   5    1.96    0.30
  -1  -7   5    2.18    0.20
  -1  -7   5    2.16    0.19
   1  -7  -5    1.98    0.38
  -1   7   5    2.78    0.30
   1   7  -5    2.47    0.44
  -1   7   5    2.42    0.27
  -1   7   5    2.54    0.20
   1   7  -5    3.24    0.30
   0  -7   5    1.08    0.23
   0  -7   5    1.87    0.15
   0  -7  -5    1.02    0.17
   0  -7  -5    0.87    0.28
   0  -7   5    1.32    0.23
   0   7   5    1.18    0.21
   0   7   5    1.12    0.20
   0   7   5    1.48    0.21
   0   7   5    1.43    0.18
   0   7  -5    1.41    0.20
   0   7  -5    1.32    0.23
   0   7  -5    1.37    0.21
   0   7   5    1.28    0.16
  -1  -7  -5    7.95    0.63
   1  -7   5    7.59    0.36
   1  -7   5    7.39    0.41
  -1  -7  -5    6.31    0.37
  -1   7  -5    6.64    0.41
   1   7   5    6.33    0.31
  -1   7  -5    7.93    0.42
  -1   7  -5    7.05    0.34
  -2  -7  -5   10.54    0.62
  -2  -7  -5   10.91    0.53
   2  -7   5   10.59    0.47
  -2   7  -5   10.30    0.55
   2   7   5   10.82    0.45
   2   7   5   10.13    0.52
  -2   7  -5   10.84    0.53
  -2   7  -5   10.93    0.51
  -3  -7  -5   43.60    1.31
  -3   7  -5   42.46    1.35
  -3   7  -5   42.34    1.31
   3   7   5   44.27    1.21
  -4  -7  -5   21.46    0.77
  -4  -7  -5   21.09    0.86
   4  -7   5   21.20    0.72
  -4   7  -5   21.21    0.83
  -4   7  -5   21.75    0.80
   4   7   5   21.36    0.71
   5  -7   5   27.67    0.77
  -5  -7  -5   26.13    0.80
  -5  -7  -5   26.33    0.79
  -5   7  -5   27.02    0.81
   5   7   5   26.00    0.74
  -6  -8   5   10.99    0.42
  -6  -8   5   11.85    0.53
  -6  -8   5   11.36    0.43
  -6  -8   5   10.64    0.51
  -6  -8   5   11.25    0.55
  -6   8   5   11.64    0.56
  -5  -8   5    0.89    0.22
  -5  -8   5    1.52    0.26
  -5  -8   5    1.16    0.18
  -5  -8   5    1.32    0.18
  -5   8   5    1.14    0.31
  -5   8   5    1.95    0.32
  -5   8   5    1.56    0.28
  -4  -8   5    1.01    0.18
  -4  -8   5    1.12    0.18
  -4  -8   5    1.47    0.25
  -4  -8   5    1.48    0.28
  -4   8   5    1.38    0.38
  -4   8   5    1.41    0.25
   4   8  -5    1.17    0.21
  -4   8   5    1.50    0.26
  -3  -8   5    8.88    0.51
  -3  -8   5    9.32    0.43
  -3  -8   5    8.88    0.53
  -3  -8   5    9.01    0.42
  -3   8   5    9.00    0.48
   3   8  -5    9.85    0.48
  -3   8   5    8.24    0.40
  -3   8   5    9.07    0.58
  -2  -8   5   13.31    0.63
  -2  -8   5   13.80    0.66
   2  -8  -5   12.49    0.77
  -2  -8   5   12.77    0.52
  -2  -8   5   11.95    0.51
  -2  -8   5   12.85    0.53
  -2   8   5   12.18    0.51
   2   8  -5   12.79    0.80
   2   8  -5   12.47    0.50
   2   8  -5   12.14    0.54
  -1  -8   5    4.75    0.40
  -1  -8   5    4.64    0.32
  -1  -8   5    5.78    0.43
  -1  -8   5    5.93    0.35
  -1  -8   5    5.00    0.34
   1  -8  -5    5.83    0.56
  -1  -8   5    5.90    0.29
  -1  -8   5    5.52    0.29
   1   8  -5    5.39    0.54
  -1   8   5    5.60    0.27
   1   8  -5    5.32    0.36
  -1   8   5    5.26    0.35
  -1   8   5    5.69    0.34
   1   8  -5    5.89    0.33
   0  -8   5    8.73    0.54
   0  -8   5    7.68    0.32
   0  -8  -5    8.15    0.70
   0  -8  -5    7.71    0.39
   0  -8   5    7.95    0.45
   0   8  -5    8.03    0.46
   0   8   5    7.81    0.40
   0   8   5    8.81    0.31
   0   8   5    7.82    0.43
   0   8  -5    8.27    0.42
   0   8   5    8.66    0.33
   0   8  -5    8.28    0.41
   0   8   5    8.10    0.44
  -1  -8  -5   53.84    1.49
   1  -8   5   57.02    1.55
   1  -8   5   56.44    1.44
  -1   8  -5   55.28    1.58
   1   8   5   56.86    1.58
  -1   8  -5   55.60    1.42
   1   8   5   55.17    1.61
  -1   8  -5   56.28    1.55
  -2  -8  -5    1.82    0.26
   2  -8   5    2.48    0.26
  -2  -8  -5    2.43    0.38
  -2   8  -5    1.98    0.28
   2   8   5    2.30    0.20
   2   8   5    1.81    0.27
  -2   8  -5    2.17    0.31
  -2   8  -5    2.25    0.24
   3  -8   5   20.36    0.71
  -3  -8  -5   19.19    0.75
  -3  -8  -5   20.03    0.89
  -3   8  -5   19.78    0.78
  -3   8  -5   19.82    0.80
  -3   8  -5   18.97    0.74
   3   8   5   18.93    0.67
  -4  -8  -5    2.33    0.27
  -4  -8  -5    2.35    0.31
   4  -8   5    2.99    0.24
  -4   8  -5    2.52    0.29
   4   8   5    2.61    0.21
  -4   8  -5    2.85    0.29
   5  -8   5    0.10    0.07
  -5  -8  -5    0.12    0.09
  -5   8  -5    0.03    0.08
   5   8   5    0.08    0.06
  -6  -9   5    2.06    0.18
  -6  -9   5    1.46    0.22
  -6  -9   5    2.05    0.24
  -6  -9   5    1.98    0.20
  -6   9   5    2.17    0.28
  -5  -9   5   22.28    0.75
  -5  -9   5   22.70    0.74
  -5  -9   5   23.64    0.89
  -5  -9   5   22.78    0.99
   5   9  -5   21.30    0.81
  -5   9   5   23.53    0.86
  -4  -9   5    0.98    0.18
  -4  -9   5    0.77    0.20
  -4  -9   5    0.73    0.15
   4   9  -5    1.02    0.22
  -4   9   5    0.98    0.23
  -4   9   5    1.17    0.24
  -3  -9   5   54.85    1.47
  -3  -9   5   58.80    1.68
  -3  -9   5   57.02    1.50
  -3  -9   5   53.49    1.47
  -3  -9   5   56.96    1.67
  -3   9   5   53.79    1.77
  -3   9   5   54.59    1.45
   3   9  -5   52.65    1.54
  -2  -9   5   84.51    2.25
   2  -9  -5   83.10    2.60
  -2  -9   5   86.79    2.31
  -2  -9   5   84.11    2.09
  -2  -9   5   89.98    2.30
  -2  -9   5   83.79    2.11
   2   9  -5   84.60    2.17
   2   9  -5   79.69    2.60
  -2   9   5   82.78    2.10
   2   9  -5   83.80    2.08
  -1  -9   5   13.17    0.47
  -1  -9   5   13.24    0.47
   1  -9  -5   12.91    0.86
  -1  -9   5   12.60    0.55
  -1  -9   5   13.36    0.55
  -1  -9   5   12.75    0.64
  -1  -9   5   13.82    0.68
  -1   9   5   12.72    0.56
   1   9  -5   13.54    0.89
   1   9  -5   13.07    0.59
  -1   9   5   13.26    0.56
   1   9  -5   13.55    0.54
   0  -9  -5   52.63    2.04
   0  -9   5   54.75    1.51
   0  -9   5   51.75    1.31
   0  -9   5   53.87    1.67
   0   9  -5   54.76    1.45
   0   9  -5   54.38    1.55
   0   9   5   53.23    1.51
   0   9  -5   54.82    1.47
   0   9   5   52.59    1.42
   0   9   5   53.36    1.50
   1  -9   5    0.06    0.09
  -1  -9  -5   -0.03    0.11
   1  -9   5    0.28    0.13
  -1   9  -5   -0.09    0.10
  -1   9  -5    0.37    0.14
   1   9   5    0.12    0.14
   1   9   5    0.34    0.15
  -1   9  -5    0.10    0.09
  -2  -9  -5    4.34    0.34
   2  -9   5    5.77    0.34
  -2  -9  -5    4.73    0.44
  -2   9  -5    5.06    0.29
  -2   9  -5    5.25    0.40
   2   9   5    5.20    0.38
  -2   9  -5    5.30    0.29
   2   9   5    5.35    0.29
  -2   9  -5    5.68    0.39
   3  -9   5    4.22    0.30
  -3  -9  -5    3.61    0.32
  -3  -9  -5    3.92    0.40
  -3   9  -5    4.04    0.41
  -3   9  -5    3.55    0.32
   3   9   5    3.67    0.26
  -3   9  -5    3.60    0.38
   4  -9   5   38.47    1.08
  -4  -9  -5   38.40    1.12
  -4  -9  -5   37.85    1.22
  -4   9  -5   37.18    1.17
  -4   9  -5   37.97    1.15
   4   9   5   38.17    1.03
  -5  -9  -5    7.82    0.33
  -5  -9  -5    7.77    0.34
   5  -9   5    7.79    0.31
  -5   9  -5    8.03    0.35
  -6 -10   5   39.86    1.23
  -6 -10   5   40.71    1.09
  -6 -10   5   42.01    1.08
  -6  10   5   41.13    1.17
  -5 -10   5   70.96    1.85
  -5 -10   5   70.70    1.83
  -5 -10   5   75.31    2.00
   5  10  -5   73.67    1.95
  -5  10   5   75.32    1.95
  -4 -10   5   46.59    1.47
  -4 -10   5   47.80    1.34
  -4 -10   5   48.52    1.32
  -4  10   5   46.06    1.25
   4  10  -5   46.79    1.40
  -4  10   5   46.80    1.52
  -3 -10   5   45.63    1.29
  -3 -10   5   44.48    1.43
  -3 -10   5   45.34    1.29
  -3 -10   5   47.22    1.29
  -3  10   5   43.60    1.58
  -3  10   5   45.36    1.26
   3  10  -5   45.89    1.36
  -2 -10   5    4.34    0.46
  -2 -10   5    3.83    0.30
  -2 -10   5    4.22    0.39
  -2 -10   5    4.19    0.31
  -2 -10   5    4.27    0.32
   2  10  -5    4.55    0.30
   2  10  -5    3.96    0.34
  -2  10   5    4.26    0.32
  -1 -10   5    0.54    0.19
  -1 -10   5    1.73    0.28
   1 -10  -5    1.02    0.34
  -1 -10   5    0.79    0.15
  -1 -10   5    0.70    0.17
  -1 -10   5    0.69    0.14
  -1 -10   5    1.04    0.24
  -1 -10   5    0.71    0.18
   1  10  -5    0.85    0.20
   1  10  -5    0.75    0.32
   1  10  -5    0.68    0.15
  -1  10   5    0.80    0.19
   0 -10  -5    0.54    0.28
   0 -10   5    1.05    0.26
   0 -10   5    0.93    0.20
   0 -10   5    0.60    0.21
   0 -10   5    0.64    0.23
   0  10  -5    0.65    0.20
   0  10   5    0.44    0.15
   0  10  -5    0.67    0.18
   0  10   5    0.88    0.21
   0  10  -5    1.89    0.23
   0  10   5    0.78    0.18
  -1 -10  -5   14.33    0.58
  -1 -10  -5   15.05    0.60
   1 -10   5   15.15    0.64
   1 -10   5   15.33    0.55
  -1  10  -5   15.49    0.64
  -1  10  -5   14.47    0.51
  -1  10  -5   15.25    0.70
   1  10   5   16.31    0.68
   1  10   5   14.77    0.67
  -2 -10  -5    0.08    0.12
  -2 -10  -5    0.08    0.17
   2 -10   5    0.11    0.09
  -2  10  -5    0.03    0.12
  -2  10  -5    0.00    0.12
   2  10   5    0.17    0.08
   2  10   5    0.04    0.12
  -3 -10  -5    1.54    0.23
   3 -10   5    1.71    0.21
  -3 -10  -5    1.66    0.30
  -3  10  -5    2.05    0.28
  -3  10  -5    1.83    0.28
   3  10   5    1.77    0.19
  -3  10  -5    2.25    0.27
  -4 -10  -5    1.63    0.25
  -4 -10  -5    1.16    0.19
   4 -10   5    1.70    0.20
  -4 -10  -5    1.62    0.21
   4  10   5    1.20    0.14
  -4  10  -5    1.68    0.24
  -4  10  -5    1.39    0.22
  -6 -11   5    1.30    0.16
  -6 -11   5    1.17    0.22
  -6 -11   5    1.28    0.17
   6  11  -5    1.34    0.29
  -5 -11   5    0.13    0.10
  -5 -11   5    0.16    0.10
   5  11  -5    0.08    0.13
  -4 -11   5    0.08    0.09
  -4 -11   5    0.05    0.12
  -4 -11   5    0.00    0.09
   4  11  -5   -0.02    0.13
  -4  11   5    0.29    0.11
  -4  11   5    0.04    0.11
  -3 -11   5    2.52    0.28
  -3 -11   5    3.03    0.27
  -3 -11   5    2.96    0.31
  -3 -11   5    3.02    0.37
  -3 -11   5    3.68    0.35
   3  11  -5    3.03    0.26
  -3  11   5    2.73    0.29
   3  11  -5    3.16    0.36
  -3  11   5    2.01    0.36
  -2 -11   5    0.39    0.14
  -2 -11   5    0.70    0.17
  -2 -11   5    0.46    0.14
  -2 -11   5    0.72    0.23
  -2 -11   5    0.66    0.20
   2  11  -5    1.22    0.21
   2  11  -5    0.28    0.17
  -2  11   5    0.53    0.16
  -1 -11   5    6.92    0.41
  -1 -11   5    6.88    0.30
  -1 -11   5    6.43    0.50
  -1 -11   5    6.03    0.48
  -1 -11   5    6.56    0.31
  -1 -11   5    6.75    0.39
   1  11  -5    6.17    0.37
  -1  11   5    6.70    0.41
   1  11  -5    6.54    0.45
  -1  11   5    7.15    0.44
   0 -11   5   -0.05    0.14
   0 -11   5   -0.01    0.12
   0 -11   5   -0.03    0.14
   0 -11   5    0.15    0.13
   0  11   5    0.14    0.13
   0  11  -5    0.12    0.14
   0  11  -5   -0.01    0.09
   0  11  -5    0.24    0.14
   0  11   5    0.04    0.11
   0  11   5    0.04    0.13
   1 -11   5    1.20    0.22
   1 -11   5    1.24    0.18
   1  11   5    1.02    0.20
  -1  11  -5    1.20    0.26
  -1  11  -5    1.03    0.21
   1  11   5    1.10    0.23
  -2 -11  -5    4.54    0.52
  -2 -11  -5    3.43    0.31
  -2 -11  -5    3.53    0.30
   2 -11   5    3.62    0.27
  -2  11  -5    3.37    0.39
   2  11   5    2.90    0.32
  -2  11  -5    3.63    0.38
   2  11   5    3.47    0.39
  -3 -11  -5    3.53    0.44
   3 -11   5    2.91    0.25
  -3 -11  -5    3.12    0.28
  -3 -11  -5    2.58    0.29
   3  11   5    3.38    0.21
  -3  11  -5    3.73    0.38
  -3  11  -5    3.42    0.36
  -4 -11  -5    0.37    0.15
  -4 -11  -5    0.27    0.10
  -4 -11  -5    0.30    0.11
   4 -11   5    0.32    0.09
  -4  11  -5    0.32    0.12
   4  11   5    0.16    0.09
  -4  11  -5    0.16    0.10
  -6 -12   5   28.54    0.80
  -5 -12   5   11.85    0.49
  -5 -12   5   10.63    0.46
   5  12  -5   11.28    0.53
  -4 -12   5   10.32    0.56
  -4 -12   5   10.86    0.50
  -4 -12   5   10.24    0.48
  -4  12   5   10.70    0.62
   4  12  -5    9.88    0.47
  -4  12   5   11.47    0.46
   4  12  -5   10.27    0.54
  -3 -12   5   39.92    1.18
  -3 -12   5   40.33    1.21
  -3 -12   5   39.91    1.19
  -3 -12   5   41.54    1.33
  -3 -12   5   39.10    1.30
   3  12  -5   41.49    1.28
  -3  12   5   40.36    1.18
   3  12  -5   40.68    1.17
  -2 -12   5    2.06    0.27
  -2 -12   5    2.07    0.26
  -2 -12   5    2.44    0.34
  -2 -12   5    1.31    0.27
   2  12  -5    1.95    0.25
  -2  12   5    1.93    0.27
   2  12  -5    2.65    0.33
  -2  12   5    1.83    0.26
  -1 -12   5    1.74    0.24
  -1 -12   5    2.19    0.33
  -1 -12   5    1.66    0.33
  -1 -12   5    1.79    0.27
   1  12  -5    2.29    0.32
   1  12  -5    1.47    0.22
  -1  12   5    1.44    0.24
  -1  12   5    1.93    0.28
   0 -12   5    0.44    0.19
   0 -12   5    0.86    0.22
   0 -12   5    0.48    0.21
   0  12  -5    0.55    0.14
   0  12  -5    0.62    0.20
   0  12   5    0.77    0.19
   0  12  -5    0.71    0.18
   0  12   5    0.83    0.21
   1 -12   5   12.78    0.49
   1 -12   5   12.68    0.70
   1 -12   5   12.49    0.57
   1  12   5   13.60    0.63
  -1  12  -5   11.72    0.62
  -1  12  -5   12.62    0.64
   1  12   5   13.07    0.51
  -1  12  -5   12.46    0.58
   1  12   5   12.75    0.49
  -2 -12  -5    0.60    0.17
  -2 -12  -5    0.38    0.17
   2 -12   5    0.21    0.10
  -2 -12  -5    0.61    0.23
  -2 -12  -5    0.52    0.17
   2  12   5    0.47    0.18
  -2  12  -5    0.50    0.16
  -2  12  -5    0.39    0.16
   2  12   5    0.31    0.15
  -3 -12  -5    0.99    0.19
  -3 -12  -5    1.06    0.18
  -3 -12  -5    0.66    0.20
   3 -12   5    0.94    0.16
   3  12   5    0.98    0.23
  -3  12  -5    0.76    0.19
  -3  12  -5    1.02    0.21
   4 -12   5    0.62    0.11
  -4 -12  -5    0.60    0.13
  -4 -12  -5    0.66    0.17
   4  12   5    0.35    0.13
  -4  12  -5    0.69    0.15
  -4  12  -5    0.53    0.12
  -5 -13   5   20.03    0.66
  -5 -13   5   19.33    0.67
   5  13  -5   19.07    0.65
   5  13  -5   18.62    0.70
  -4 -13   5    6.17    0.37
  -4 -13   5    6.73    0.38
  -4 -13   5    6.48    0.38
   4  13  -5    7.45    0.45
   4  13  -5    6.85    0.37
  -4  13   5    6.83    0.35
  -4  13   5    7.50    0.51
  -3 -13   5   41.46    1.25
  -3 -13   5   41.59    1.23
  -3 -13   5   43.07    1.37
  -3 -13   5   42.55    1.34
  -3 -13   5   40.62    1.24
   3  13  -5   44.52    1.35
   3  13  -5   42.82    1.22
  -3  13   5   42.53    1.23
  -2 -13   5   66.76    1.79
  -2 -13   5   67.68    1.94
  -2 -13   5   70.01    2.03
  -2 -13   5   66.97    1.83
   2  13  -5   69.36    1.79
   2  13  -5   68.62    1.91
  -2  13   5   68.74    1.80
  -2  13   5   66.29    1.81
  -1 -13   5   14.48    0.65
  -1 -13   5   14.66    0.77
  -1 -13   5   14.71    0.73
  -1  13   5   14.47    0.63
   1  13  -5   15.04    0.60
  -1  13   5   15.14    0.65
   1  13  -5   14.65    0.69
   0 -13   5   32.63    1.09
   0 -13   5   31.16    1.18
   0 -13   5   31.42    1.05
   0  13  -5   31.53    1.02
   0  13   5   31.03    1.04
   0  13   5   31.71    1.06
   0  13  -5   30.95    0.93
   0  13  -5   30.72    1.11
   1 -13   5    0.15    0.14
   1 -13   5    0.51    0.13
   1 -13   5    0.08    0.14
  -1  13  -5    0.04    0.13
   1  13   5    0.10    0.14
  -1  13  -5   -0.03    0.13
  -1  13  -5    0.10    0.13
   2 -13   5    4.96    0.30
  -2 -13  -5    5.09    0.38
  -2 -13  -5    4.40    0.31
  -2 -13  -5    4.39    0.42
   2  13   5    5.26    0.37
   2  13   5    4.61    0.35
  -2  13  -5    4.84    0.36
  -3 -13  -5    7.11    0.47
   3 -13   5    6.70    0.33
  -3 -13  -5    7.37    0.38
   3  13   5    6.82    0.41
  -3  13  -5    6.89    0.40
  -3  13  -5    7.48    0.43
  -4 -13  -5   29.60    0.82
  -4 -13  -5   28.55    0.91
   4 -13   5   28.97    0.78
  -4  13  -5   29.85    0.86
  -5 -14   5   10.11    0.44
  -5 -14   5   10.39    0.43
   5  14  -5    9.28    0.46
   5  14  -5   10.46    0.42
  -4 -14   5    2.30    0.26
  -4 -14   5    2.74    0.25
  -4 -14   5    2.19    0.26
  -4  14   5    2.24    0.30
   4  14  -5    2.77    0.27
  -4  14   5    2.37    0.22
   4  14  -5    2.75    0.32
  -3 -14   5    0.24    0.13
  -3 -14   5    0.37    0.15
  -3 -14   5    0.20    0.12
  -3  14   5    0.43    0.14
   3  14  -5    0.24    0.11
   3  14  -5    0.39    0.17
  -2 -14   5    5.26    0.42
  -2 -14   5    4.45    0.34
  -2 -14   5    5.09    0.37
  -2 -14   5    4.97    0.44
   2  14  -5    4.41    0.39
  -2  14   5    4.99    0.37
  -2  14   5    5.05    0.35
   2  14  -5    4.51    0.33
  -1 -14   5   25.01    1.01
  -1 -14   5   26.63    0.92
  -1 -14   5   25.63    1.06
  -1  14   5   26.08    0.92
   1  14  -5   24.78    0.96
  -1  14   5   26.33    0.92
   1  14  -5   25.86    0.85
   0 -14   5   25.00    1.00
   0 -14   5   24.49    0.90
   0 -14   5   25.20    0.89
   0  14   5   24.21    0.88
   0  14  -5   24.42    0.86
   0  14  -5   24.39    0.75
   0  14   5   25.64    0.92
   0  14  -5   24.05    0.95
   1 -14   5   50.73    1.32
   1 -14   5   53.63    1.65
  -1  14  -5   52.85    1.40
  -1  14  -5   52.84    1.58
  -1  14  -5   52.18    1.48
   1  14   5   54.95    1.55
  -1  14  -5   51.99    1.37
   2 -14   5   13.94    0.50
  -2 -14  -5   13.37    0.70
  -2 -14  -5   14.61    0.58
  -2 -14  -5   13.41    0.54
   2 -14   5   14.46    0.69
   2  14   5   14.05    0.47
   2  14   5   13.57    0.46
  -2  14  -5   13.47    0.64
   2  14   5   14.54    0.58
  -2  14  -5   14.12    0.60
   3 -14   5    6.97    0.42
  -3 -14  -5    6.69    0.33
  -3 -14  -5    6.33    0.42
   3 -14   5    6.43    0.30
   3  14   5    6.19    0.33
  -3  14  -5    6.74    0.38
  -3  14  -5    6.69    0.39
  -5 -15   5    5.11    0.29
   5  15  -5    5.09    0.32
   5  15  -5    4.81    0.35
  -4 -15   5    0.40    0.13
  -4 -15   5    0.41    0.12
  -4 -15   5    0.33    0.13
  -4  15   5    0.60    0.18
   4  15  -5    0.72    0.14
  -4  15   5    0.46    0.12
   4  15  -5    0.32    0.14
  -3 -15   5    2.04    0.26
  -3 -15   5    2.41    0.27
   3  15  -5    2.99    0.25
  -3  15   5    2.92    0.26
   3  15  -5    2.84    0.35
  -2 -15   5    0.17    0.14
  -2 -15   5    0.41    0.18
  -2 -15   5    0.44    0.16
  -2  15   5    0.48    0.15
  -2  15   5    0.35    0.15
   2  15  -5    0.36    0.12
   2  15  -5    0.75    0.21
  -1 -15   5    2.63    0.40
  -1 -15   5    1.21    0.24
  -1 -15   5    1.55    0.25
   1  15  -5    1.60    0.20
  -1  15   5    1.23    0.22
  -1  15   5    1.38    0.23
   1  15  -5    1.61    0.27
   0 -15   5   -0.03    0.13
   0 -15   5    0.07    0.14
   0 -15   5    0.18    0.14
   0  15  -5    0.01    0.16
   0  15  -5    0.16    0.13
   0  15  -5    0.23    0.15
   0  15   5    0.32    0.15
   0  15   5    0.22    0.13
   1 -15   5    4.39    0.39
  -1  15  -5    4.30    0.33
  -1  15  -5    4.62    0.39
   1  15   5    3.99    0.35
  -2 -15  -5   10.15    0.41
   2 -15   5    9.83    0.38
  -2 -15  -5    9.89    0.57
   2 -15   5    9.42    0.53
  -2  15  -5   10.13    0.48
  -2  15  -5   10.16    0.52
   2  15   5    9.93    0.45
  -3 -15  -5    0.40    0.11
   3 -15   5    0.19    0.12
   3 -15   5    0.27    0.08
  -3 -15  -5    0.29    0.14
  -3  15  -5    0.48    0.14
  -3  15  -5    0.35    0.12
  -4 -16   5    2.75    0.24
  -4 -16   5    3.02    0.24
   4  16  -5    3.08    0.28
   4  16  -5    2.38    0.21
  -4  16   5    2.48    0.28
  -4  16   5    2.53    0.20
  -3 -16   5    0.00    0.11
  -3 -16   5    0.13    0.12
  -3  16   5    0.21    0.12
   3  16  -5    0.23    0.11
   3  16  -5    0.01    0.12
  -2 -16   5   53.61    1.67
  -2 -16   5   56.53    1.53
  -2  16   5   55.10    1.50
   2  16  -5   52.54    1.59
  -2  16   5   53.63    1.47
   2  16  -5   54.46    1.46
  -1 -16   5   26.25    0.89
  -1  16   5   25.73    0.87
  -1  16   5   24.08    0.86
   1  16  -5   25.33    0.96
   1  16  -5   26.01    0.79
   0 -16   5   54.59    1.52
   0 -16   5   56.28    1.41
   0 -16   5   54.73    1.39
   0 -16   5   57.84    1.39
   0 -16   5   52.26    1.60
   0  16   5   55.07    1.56
   0  16  -5   55.76    1.49
   0  16  -5   54.13    1.58
   0  16  -5   55.60    1.64
   1 -16   5   58.47    1.62
   1 -16   5   55.93    1.65
   1  16   5   58.85    1.58
  -1  16  -5   57.04    1.64
  -1  16  -5   57.68    1.55
  -2 -16  -5   20.15    0.81
   2 -16   5   21.67    0.78
  -2  16  -5   20.96    0.76
   2  16   5   19.21    0.65
  -2  16  -5   20.66    0.71
   3 -16   5   11.42    0.48
  -3  16  -5   11.93    0.45
  -3  16  -5   10.85    0.46
  -4 -17   5    2.69    0.24
  -4 -17   5    2.33    0.21
  -4  17   5    2.42    0.30
   4  17  -5    2.42    0.20
  -4  17   5    2.52    0.20
   4  17  -5    2.47    0.26
  -3 -17   5    9.92    0.46
   3  17  -5   10.22    0.43
   3  17  -5    9.64    0.50
  -3  17   5    9.98    0.44
  -2 -17   5   15.33    0.61
  -2  17   5   14.94    0.59
   2  17  -5   14.89    0.66
   2  17  -5   14.38    0.54
  -2  17   5   14.89    0.58
  -1 -17   5    2.56    0.29
  -1  17   5    2.30    0.27
  -1  17   5    2.39    0.28
   1  17  -5    2.47    0.32
   0 -17   5    1.11    0.18
   0  17  -5    1.25    0.24
   0  17  -5    1.37    0.20
   0  17   5    1.37    0.21
   1 -17   5    2.52    0.27
  -1  17  -5    2.10    0.27
   1  17   5    2.30    0.27
  -1  17  -5    2.33    0.26
   2 -17   5   12.84    0.53
  -2 -17  -5   12.17    0.65
   2 -17   5   12.80    0.53
  -2  17  -5   12.89    0.50
  -2  17  -5   13.08    0.54
  -3 -18   5    2.69    0.26
   3  18  -5    2.99    0.21
  -3  18   5    2.67    0.21
   3  18  -5    3.04    0.27
  -2 -18   5    3.59    0.28
   2  18  -5    3.05    0.32
  -2  18   5    3.51    0.26
  -2  18   5    3.38    0.25
   2  18  -5    2.93    0.20
  -1 -18   5   14.23    0.56
   1  18  -5   13.55    0.62
  -1  18   5   13.93    0.55
   1  18  -5   14.56    0.63
  -1  18   5   14.54    0.57
   0  18   5   12.42    0.53
   0  18  -5   11.91    0.56
  -1 -18  -5   12.59    0.50
   1  18   5   12.67    0.51
  -1  18  -5   13.35    0.49
  -1  18  -5   13.46    0.55
  -2  18  -5    5.94    0.36
  -2  18  -5    6.18    0.33
  -3 -19   5    0.69    0.21
  -3  19   5    0.40    0.11
   3  19  -5    0.45    0.15
  -2 -19   5    1.36    0.19
  -2  19   5    1.54    0.18
   2  19  -5    1.59    0.22
  -2  19   5    1.50    0.19
  -1 -19   5   -0.04    0.09
   1  19  -5    0.13    0.09
   1  19  -5    0.15    0.11
   1  19  -5    0.07    0.09
  -1  19   5   -0.04    0.09
   0  19   5    5.65    0.32
   0  19  -5    6.34    0.37
   1  19   5    0.15    0.12
  -1  19  -5    0.22    0.11
  -1  20   5    0.07    0.09
   1  20  -5   -0.01    0.09
   0  20  -5    1.38    0.23
  -7   0   6    8.30    0.46
  -6   0   6   70.62    2.03
  -6   0   6   72.94    2.04
  -5   0   6  166.07    4.01
  -5   0   6  162.14    3.64
  -5   0   6  152.27    4.79
  -5   0   6  165.65    3.98
  -4   0   6   67.03    1.98
  -4   0   6   66.66    1.92
  -4   0   6   68.86    2.71
  -3   0   6  265.31    5.89
  -3   0   6  268.82    6.18
   3   0  -6  268.28    6.44
  -3   0   6  261.83    6.09
  -2   0   6  113.51    2.69
  -2   0   6  111.67    2.89
  -2   0   6  109.86    2.78
   2   0  -6  115.42    3.23
   1   0  -6   55.04    1.58
  -1   0   6   57.27    1.43
  -1   0   6   56.89    1.69
   1   0  -6   61.81    2.06
  -1   0   6   56.27    1.53
  -1   0   6   58.05    1.54
   0   0   6   13.86    0.57
   0   0   6   13.72    0.66
   0   0   6   13.88    0.53
   0   0  -6   13.92    0.55
   0   0  -6   13.83    0.91
   1   0   6    0.76    0.18
   1   0   6    0.61    0.11
  -1   0  -6    0.68    0.23
  -1   0  -6    0.69    0.14
  -1   0  -6    0.65    0.16
  -2   0  -6   12.01    0.67
   2   0   6   12.32    0.54
  -2   0  -6   11.86    0.55
   2   0   6   12.18    0.47
  -3   0  -6    2.69    0.37
  -3   0  -6    2.80    0.31
   3   0   6    3.05    0.24
  -4   0  -6   38.57    1.15
  -4   0  -6   38.97    1.25
   4   0   6   38.92    1.07
  -5   0  -6    0.95    0.14
   5   0   6    0.79    0.11
  -7  -1   6    1.37    0.22
  -7  -1   6    1.40    0.23
  -7   1   6    1.63    0.24
  -6  -1   6   28.24    1.05
  -6  -1   6   27.96    1.06
  -6   1   6   29.10    1.07
  -6   1   6   29.17    1.07
  -5  -1   6    0.29    0.12
  -5  -1   6    0.33    0.17
  -5  -1   6    0.48    0.21
  -5  -1   6    0.37    0.27
  -5   1   6    0.25    0.25
  -5   1   6    0.57    0.20
  -5   1   6    0.29    0.17
  -4  -1   6    0.38    0.17
  -4  -1   6    0.51    0.20
  -4   1   6    0.36    0.17
  -4   1   6    0.95    0.22
  -4   1   6    0.29    0.26
  -3  -1   6    6.52    0.47
  -3  -1   6    7.41    0.47
   3  -1  -6    7.20    0.58
  -3  -1   6    6.86    0.36
  -3   1   6    6.96    0.36
  -3   1   6    8.07    0.50
   3   1  -6    6.97    0.58
  -3   1   6    7.11    0.44
  -2  -1   6  114.55    2.89
  -2  -1   6  116.77    2.98
  -2  -1   6  117.27    2.76
   2  -1  -6  119.58    3.33
   2   1  -6  118.42    3.33
  -2   1   6  113.18    2.75
  -2   1   6  111.67    2.93
  -1  -1   6   28.91    0.99
  -1  -1   6   30.08    0.94
  -1  -1   6   30.64    0.94
  -1  -1   6   30.73    0.86
   1  -1  -6   30.66    1.37
  -1  -1   6   30.30    1.09
  -1   1   6   29.70    1.05
  -1   1   6   29.37    0.93
   1   1  -6   30.30    0.92
  -1   1   6   29.54    0.93
   1   1  -6   30.33    1.34
  -1   1   6   31.27    0.84
   0  -1   6   80.33    2.22
   0  -1  -6   78.75    2.65
   0  -1  -6   80.69    2.02
   0  -1   6   80.10    2.06
   0  -1   6   81.22    1.98
   0   1   6   77.85    2.15
   0   1  -6   83.35    2.03
   0   1   6   82.02    2.07
   0   1   6   81.28    2.04
   0   1   6   80.44    1.98
   0   1   6   81.16    1.95
  -1  -1  -6   73.95    1.89
  -1  -1  -6   72.96    2.09
  -1  -1  -6   75.75    1.85
   1  -1   6   72.95    1.75
   1  -1   6   76.97    1.94
   1   1   6   72.83    1.74
  -1   1  -6   71.95    1.88
  -1   1  -6   75.50    1.85
   1   1   6   70.20    1.91
   2  -1   6    0.78    0.18
  -2  -1  -6    1.19    0.27
  -2  -1  -6    0.90    0.20
   2  -1   6    0.76    0.15
   2   1   6    0.89    0.14
  -2   1  -6    0.69    0.22
   2   1   6    1.02    0.20
  -2   1  -6    1.10    0.21
  -2   1  -6    0.67    0.21
  -3  -1  -6    1.61    0.29
  -3  -1  -6    1.97    0.27
   3  -1   6    2.05    0.23
  -3   1  -6    2.10    0.33
  -3   1  -6    1.99    0.28
   3   1   6    1.84    0.21
   4  -1   6    0.28    0.10
  -4  -1  -6   -0.01    0.10
  -4  -1  -6   -0.05    0.08
  -4   1  -6   -0.01    0.09
  -4   1  -6    0.12    0.12
   4   1   6    0.01    0.07
   5  -1   6    1.76    0.14
  -5  -1  -6    1.58    0.18
  -5   1  -6    1.61    0.18
   5   1   6    1.77    0.14
  -7  -2   6    0.05    0.12
  -7  -2   6    0.07    0.12
  -7   2   6    0.07    0.18
  -6  -2   6    0.26    0.17
  -6  -2   6    0.10    0.15
  -6   2   6    0.12    0.15
  -6   2   6    0.24    0.16
  -5  -2   6    1.09    0.27
  -5  -2   6    0.80    0.22
  -5  -2   6    0.70    0.18
  -5   2   6    1.31    0.41
  -5   2   6    1.08    0.26
  -5   2   6    0.95    0.26
  -4  -2   6    0.20    0.08
  -4  -2   6   -0.03    0.12
  -4  -2   6    0.02    0.09
  -4  -2   6    0.02    0.13
  -4   2   6    0.03    0.13
  -4   2   6   -0.03    0.11
  -4   2   6   -0.05    0.13
  -3  -2   6    2.07    0.30
  -3  -2   6    2.25    0.24
  -3  -2   6    1.80    0.31
   3  -2  -6    1.94    0.38
   3   2  -6    2.31    0.43
  -3   2   6    2.03    0.31
  -3   2   6    1.97    0.34
  -3   2   6    2.13    0.25
  -2  -2   6    0.62    0.15
  -2  -2   6    0.26    0.16
   2  -2  -6    0.10    0.17
  -2  -2   6    0.21    0.13
  -2   2   6    0.42    0.16
   2   2  -6    0.47    0.22
  -2   2   6    0.31    0.14
  -1  -2   6    0.03    0.13
  -1  -2   6    0.06    0.11
  -1  -2   6    0.09    0.10
   1  -2  -6    0.23    0.19
  -1  -2   6    0.04    0.09
  -1  -2   6    0.12    0.12
  -1   2   6    0.10    0.15
  -1   2   6    0.15    0.11
   1   2  -6    0.20    0.11
  -1   2   6    0.19    0.11
   1   2  -6    0.35    0.21
  -1   2   6    0.09    0.10
   0  -2   6    2.06    0.25
   0  -2   6    2.04    0.23
   0  -2   6    2.15    0.27
   0  -2   6    1.68    0.24
   0  -2  -6    2.13    0.24
   0  -2  -6    1.65    0.37
   0   2  -6    1.95    0.44
   0   2   6    2.10    0.30
   0   2   6    1.77    0.20
   0   2   6    1.81    0.25
   0   2   6    1.81    0.19
   0   2   6    2.20    0.26
   0   2   6    1.73    0.24
   0   2  -6    2.62    0.27
   1  -2   6    0.40    0.15
   1  -2   6    0.55    0.12
  -1  -2  -6    0.43    0.19
  -1  -2  -6    0.36    0.13
  -1  -2  -6    0.31    0.11
  -1   2  -6    0.54    0.14
   1   2   6    0.90    0.27
   1   2   6    0.42    0.15
  -1   2  -6    0.31    0.14
   2  -2   6    0.96    0.15
  -2  -2  -6    0.78    0.18
  -2  -2  -6    0.73    0.21
   2  -2   6    1.35    0.22
   2   2   6    0.87    0.19
  -2   2  -6    1.28    0.23
   2   2   6    0.92    0.15
  -2   2  -6    1.00    0.22
   3  -2   6    0.50    0.13
  -3  -2  -6    0.30    0.17
  -3  -2  -6    0.41    0.15
   3   2   6    0.50    0.12
  -3   2  -6    0.52    0.19
  -3   2  -6    0.60    0.17
  -4  -2  -6    0.85    0.20
  -4  -2  -6    1.06    0.19
   4  -2   6    1.24    0.17
  -4   2  -6    0.92    0.18
   4   2   6    0.97    0.14
  -4   2  -6    1.24    0.24
  -5  -2  -6    1.37    0.16
   5  -2   6    1.24    0.13
  -5   2  -6    1.06    0.15
   5   2   6    1.27    0.15
  -7  -3   6    0.18    0.13
  -6  -3   6   16.23    0.73
  -6  -3   6   15.84    0.72
  -6   3   6   15.03    0.72
  -6   3   6   15.53    0.71
  -5  -3   6    2.22    0.20
  -5  -3   6    2.28    0.24
  -5  -3   6    2.09    0.32
  -5  -3   6    2.76    0.39
  -5  -3   6    2.25    0.26
  -5   3   6    1.82    0.29
  -5   3   6    1.97    0.40
  -5   3   6    2.46    0.37
  -4  -3   6    3.79    0.26
  -4  -3   6    3.80    0.45
  -4  -3   6    3.66    0.42
  -4  -3   6    3.99    0.27
  -4   3   6    3.77    0.40
  -4   3   6    4.08    0.39
  -4   3   6    3.57    0.52
   3  -3  -6    6.44    0.82
  -3  -3   6    6.84    0.48
  -3  -3   6    7.00    0.36
  -3  -3   6    6.90    0.37
  -3  -3   6    7.17    0.47
  -3   3   6    7.34    0.47
  -3   3   6    7.68    0.58
  -3   3   6    7.08    0.36
  -2  -3   6  122.59    3.04
  -2  -3   6  123.54    3.12
  -2  -3   6  124.02    2.96
   2  -3  -6  128.92    3.59
  -2  -3   6  131.26    3.22
   2   3  -6  123.91    3.55
  -2   3   6  122.40    3.11
  -2   3   6  125.34    2.96
  -1  -3   6    9.09    0.46
   1  -3  -6   10.01    0.76
  -1  -3   6    9.72    0.47
  -1  -3   6    9.63    0.41
  -1  -3   6   10.21    0.53
  -1  -3   6    9.04    0.56
  -1   3   6    9.91    0.53
  -1   3   6   10.13    0.47
  -1   3   6    9.50    0.47
   1   3  -6    9.83    0.75
   1   3  -6    9.41    0.45
  -1   3   6    9.57    0.37
   0  -3   6   40.25    1.19
   0  -3   6   41.57    1.17
   0  -3  -6   41.47    1.72
   0  -3   6   41.72    1.22
   0  -3  -6   41.66    1.17
   0  -3   6   40.77    1.27
   0  -3   6   41.58    1.17
   0   3   6   39.07    1.15
   0   3   6   42.66    1.07
   0   3   6   41.64    1.05
   0   3  -6   42.74    1.19
   0   3   6   40.47    1.20
  -1  -3  -6   19.56    0.67
  -1  -3  -6   19.68    0.71
   1  -3   6   19.02    0.60
   1  -3   6   20.43    0.75
   1  -3   6   19.29    0.77
  -1  -3  -6   18.74    0.97
   1   3   6   19.03    0.73
  -1   3  -6   19.84    0.67
  -1   3  -6   20.28    0.73
   1   3   6   19.31    0.79
  -2  -3  -6   20.47    0.89
   2  -3   6   20.63    0.68
  -2  -3  -6   21.85    0.78
   2  -3   6   20.54    0.75
  -2   3  -6   20.34    0.78
   2   3   6   21.31    0.66
  -2   3  -6   20.11    0.78
  -3  -3  -6    9.57    0.58
   3  -3   6    8.51    0.40
  -3  -3  -6    8.26    0.46
  -3   3  -6    8.55    0.56
   3   3   6    8.04    0.38
  -3   3  -6    8.50    0.47
   4  -3   6   27.04    0.81
  -4  -3  -6   26.35    0.87
  -4  -3  -6   26.68    0.97
  -4   3  -6   27.38    0.89
   4   3   6   27.22    0.79
  -4   3  -6   28.19    0.97
   5  -3   6   25.64    0.78
  -5  -3  -6   25.19    0.73
  -5   3  -6   25.31    0.74
  -6  -4   6    4.31    0.39
  -6  -4   6    5.13    0.40
  -6   4   6    5.05    0.41
  -6   4   6    4.59    0.39
  -5  -4   6   13.42    0.50
  -5  -4   6   13.75    0.70
  -5  -4   6   13.58    0.62
  -5  -4   6   13.36    0.69
  -5   4   6   12.66    0.66
  -5   4   6   12.70    0.68
  -5   4   6   13.41    0.91
  -4  -4   6    0.94    0.25
  -4  -4   6    0.84    0.16
  -4  -4   6    0.82    0.15
  -4  -4   6    0.60    0.20
  -4   4   6    0.90    0.22
  -4   4   6    0.55    0.27
  -3  -4   6    6.73    0.36
  -3  -4   6    5.99    0.34
  -3  -4   6    6.13    0.47
  -3  -4   6    6.11    0.44
  -3   4   6    6.44    0.45
  -3   4   6    6.81    0.55
  -3   4   6    5.93    0.34
  -2  -4   6    1.46    0.24
  -2  -4   6    1.37    0.23
  -2  -4   6    1.47    0.11
  -2  -4   6    1.77    0.32
  -2  -4   6    1.41    0.11
   2  -4  -6    1.10    0.30
  -2  -4   6    1.60    0.23
  -2   4   6    1.29    0.20
   2   4  -6    1.68    0.39
  -2   4   6    1.69    0.29
  -1  -4   6   46.10    1.33
  -1  -4   6   46.42    1.44
  -1  -4   6   45.90    1.52
  -1  -4   6   46.72    1.33
   1  -4  -6   48.21    1.84
  -1   4   6   46.87    1.17
   1   4  -6   44.48    1.29
  -1   4   6   47.59    1.32
  -1   4   6   47.20    1.32
   1   4  -6   49.35    1.86
   0  -4  -6   45.80    1.27
   0  -4   6   47.58    1.30
   0  -4   6   43.75    1.29
   0  -4   6   46.09    1.28
   0  -4  -6   44.86    1.81
   0  -4   6   43.86    1.38
   0  -4   6   47.48    1.34
   0  -4  -6   45.91    1.83
   0   4   6   47.18    1.32
   0   4   6   42.39    1.23
   0   4  -6   46.89    1.29
   0   4   6   46.95    1.30
   1  -4   6  138.24    3.44
   1  -4   6  137.59    3.18
   1  -4   6  143.76    3.38
  -1  -4  -6  142.74    3.28
  -1  -4  -6  140.69    3.32
  -1   4  -6  140.70    3.27
   1   4   6  141.54    3.40
   1   4   6  141.17    3.37
  -1   4  -6  141.69    3.35
  -2  -4  -6   94.89    2.62
   2  -4   6   97.07    2.32
  -2  -4  -6   99.42    2.43
   2  -4   6   95.20    2.38
   2   4   6   96.12    2.27
   2   4   6   98.71    2.42
  -2   4  -6   92.46    2.41
  -2   4  -6   97.28    2.46
  -3  -4  -6   72.77    1.93
  -3  -4  -6   73.47    2.11
   3  -4   6   73.51    1.84
   3   4   6   72.14    1.80
  -3   4  -6   75.57    2.15
  -3   4  -6   72.82    1.95
   4  -4   6   82.03    1.99
  -4  -4  -6   83.96    2.08
  -4  -4  -6   82.67    2.18
  -4   4  -6   83.44    2.09
  -4   4  -6   80.43    2.15
   4   4   6   81.46    1.96
  -5  -4  -6    2.94    0.20
  -5   4  -6    3.12    0.21
  -6  -5   6    7.07    0.47
  -6  -5   6    7.70    0.47
  -6   5   6    6.89    0.48
  -6   5   6    7.20    0.47
  -5  -5   6    3.28    0.24
  -5  -5   6    2.89    0.30
  -5  -5   6    4.19    0.46
  -5  -5   6    2.60    0.34
  -5  -5   6    3.14    0.23
  -5   5   6    2.91    0.46
  -5   5   6    2.81    0.37
  -4  -5   6    0.10    0.10
  -4  -5   6    0.17    0.09
  -4  -5   6    0.13    0.15
  -4  -5   6    0.48    0.19
  -4   5   6    0.37    0.24
  -4   5   6    0.16    0.15
  -4   5   6    0.34    0.18
  -3  -5   6    0.87    0.24
  -3  -5   6    0.91    0.23
  -3  -5   6    1.01    0.18
  -3  -5   6    0.67    0.15
  -3   5   6    0.63    0.19
  -3   5   6    0.87    0.26
  -3   5   6    0.98    0.18
  -2  -5   6   27.74    0.89
   2  -5  -6   28.10    1.28
  -2  -5   6   28.31    1.08
  -2  -5   6   28.56    0.71
  -2  -5   6   27.63    1.03
  -2  -5   6   30.59    0.77
   2  -5  -6   28.94    1.30
  -2  -5   6   26.85    0.91
  -2   5   6   27.68    0.90
   2   5  -6   28.77    1.34
  -1  -5   6    5.32    0.36
   1  -5  -6    5.47    0.56
  -1  -5   6    5.02    0.44
  -1  -5   6    5.02    0.35
   1  -5  -6    5.62    0.58
  -1  -5   6    4.86    0.40
  -1   5   6    5.29    0.35
   1   5  -6    4.44    0.31
  -1   5   6    5.23    0.34
  -1   5   6    5.25    0.27
   1   5  -6    5.21    0.56
   0  -5   6   12.30    0.55
   0  -5   6   11.94    0.53
   0  -5   6   11.19    0.52
   0  -5  -6   10.48    0.81
   0  -5  -6   10.99    0.84
   0  -5  -6   11.06    0.47
   0  -5   6   11.91    0.60
   0   5   6   11.30    0.52
   0   5   6   10.69    0.52
   0   5   6    9.83    0.47
   0   5  -6   12.73    0.53
  -1  -5  -6   15.28    0.60
   1  -5   6   14.94    0.64
   1  -5   6   14.60    0.50
  -1  -5  -6   15.39    0.56
   1  -5   6   15.21    0.69
  -1   5  -6   15.38    0.63
   1   5   6   14.29    0.63
  -1   5  -6   13.68    0.54
   1   5   6   15.39    0.64
  -2  -5  -6    5.78    0.38
   2  -5   6    5.37    0.36
  -2  -5  -6    5.50    0.46
   2  -5   6    5.92    0.32
   2   5   6    5.60    0.29
   2   5   6    5.85    0.38
  -2   5  -6    6.21    0.39
  -2   5  -6    6.25    0.41
  -3  -5  -6    0.49    0.16
   3  -5   6    0.64    0.13
  -3  -5  -6    0.66    0.19
  -3   5  -6    0.58    0.19
  -3   5  -6    0.75    0.19
   3   5   6    0.70    0.13
  -4  -5  -6    6.17    0.40
   4  -5   6    6.57    0.31
  -4  -5  -6    6.56    0.36
   4   5   6    5.73    0.28
  -4   5  -6    5.48    0.37
  -4   5  -6    6.60    0.37
  -6  -6   6    0.17    0.13
  -6  -6   6   -0.10    0.12
  -6   6   6   -0.17    0.12
  -5  -6   6    4.45    0.39
  -5  -6   6    3.99    0.37
  -5  -6   6    3.65    0.26
  -5  -6   6    3.75    0.34
  -5  -6   6    3.52    0.26
  -5   6   6    3.12    0.40
  -5   6   6    2.89    0.46
  -4  -6   6    3.81    0.44
  -4  -6   6    3.24    0.26
  -4  -6   6    3.68    0.28
  -4  -6   6    3.12    0.40
  -4   6   6    3.52    0.39
  -4   6   6    3.55    0.36
  -3  -6   6    4.88    0.42
  -3  -6   6    4.54    0.31
  -3  -6   6    5.10    0.32
  -3  -6   6    5.16    0.43
  -3   6   6    4.97    0.32
  -3   6   6    4.95    0.47
  -2  -6   6    3.00    0.19
  -2  -6   6    2.92    0.27
  -2  -6   6    2.65    0.30
  -2  -6   6    3.33    0.41
  -2  -6   6    3.09    0.40
  -2   6   6    3.10    0.28
   2   6  -6    3.06    0.69
   1  -6  -6   11.16    0.49
  -1  -6   6    9.47    0.57
  -1  -6   6   10.54    0.64
  -1  -6   6   11.36    0.52
   1  -6  -6   10.13    0.80
   1   6  -6    9.98    0.78
   1   6  -6   10.79    0.48
  -1   6   6   11.14    0.39
  -1   6   6   11.54    0.52
  -1   6   6   10.82    0.51
   0  -6   6    1.49    0.24
   0  -6  -6    1.26    0.19
   0  -6   6    1.59    0.26
   0  -6   6    1.39    0.26
   0  -6  -6    0.90    0.31
   0  -6   6    1.20    0.23
   0   6   6    1.75    0.24
   0   6  -6    1.61    0.22
   0   6  -6    1.35    0.25
   0   6   6    1.42    0.23
   0   6   6    1.12    0.20
   1  -6   6   32.05    1.11
   1  -6   6   30.41    0.86
   1  -6   6   30.75    1.02
  -1  -6  -6   30.34    0.96
   1   6   6   30.72    1.03
  -1   6  -6   32.16    0.93
   1   6   6   31.22    1.00
  -1   6  -6   30.70    1.01
   2  -6   6   13.67    0.52
   2  -6   6   12.77    0.56
  -2  -6  -6   13.63    0.59
  -2   6  -6   13.37    0.60
   2   6   6   13.99    0.60
   2   6   6   12.70    0.46
  -2   6  -6   13.22    0.55
  -2   6  -6   12.96    0.60
   3  -6   6    6.41    0.34
  -3  -6  -6    6.51    0.47
  -3  -6  -6    5.86    0.38
  -3   6  -6    5.73    0.39
  -3   6  -6    6.80    0.43
   3   6   6    6.04    0.30
  -4  -6  -6    8.60    0.47
  -4  -6  -6    8.25    0.41
   4  -6   6    8.57    0.36
  -4   6  -6    8.85    0.43
  -4   6  -6    9.22    0.46
   4   6   6    8.50    0.33
  -6  -7   6   32.90    1.08
  -5  -7   6    1.47    0.20
  -5  -7   6    1.01    0.23
  -5  -7   6    1.05    0.23
  -5  -7   6    1.41    0.25
  -5  -7   6    1.32    0.19
  -5   7   6    1.63    0.29
  -4  -7   6    0.35    0.18
  -4  -7   6    0.11    0.10
  -4  -7   6   -0.05    0.12
  -4  -7   6   -0.08    0.09
  -4   7   6    0.14    0.14
  -3  -7   6    1.94    0.33
  -3  -7   6    0.84    0.17
  -3  -7   6    0.99    0.24
  -3  -7   6    1.19    0.20
  -3   7   6    0.87    0.17
  -3   7   6    1.83    0.37
  -2  -7   6   92.80    2.39
  -2  -7   6   95.89    2.61
  -2  -7   6   94.90    2.61
  -2  -7   6   97.45    2.39
  -2  -7   6  102.01    2.45
  -2   7   6   95.52    2.38
   2   7  -6   93.64    2.36
  -1  -7   6   14.63    0.76
  -1  -7   6   13.47    0.71
   1  -7  -6   15.30    0.58
  -1  -7   6   14.84    0.64
  -1   7   6   15.13    0.47
   1   7  -6   14.17    0.59
  -1   7   6   14.46    0.61
   1   7  -6   13.65    0.94
  -1   7   6   14.00    0.60
   0  -7   6   46.51    1.39
   0  -7  -6   47.86    1.32
   0  -7   6   48.00    1.36
   0  -7   6   47.94    1.51
   0  -7   6   46.36    1.58
   0   7  -6   45.43    1.32
   0   7   6   47.12    1.39
   0   7   6   47.43    1.36
   0   7   6   46.93    1.29
   0   7  -6   48.40    1.34
   1  -7   6   36.89    1.01
  -1  -7  -6   38.58    1.17
   1  -7   6   36.87    1.27
   1  -7   6   38.08    1.18
   1   7   6   37.83    1.14
  -1   7  -6   35.82    1.15
   1   7   6   38.51    1.19
  -1   7  -6   37.92    1.05
  -1   7  -6   39.50    1.18
  -2  -7  -6   10.45    0.51
   2  -7   6   11.04    0.45
  -2  -7  -6   11.33    0.66
  -2   7  -6   10.57    0.54
   2   7   6   10.65    0.52
  -2   7  -6   11.00    0.46
  -2   7  -6   10.21    0.54
  -3  -7  -6    0.31    0.17
   3  -7   6    0.17    0.09
  -3  -7  -6    0.84    0.18
  -3   7  -6    0.15    0.12
   3   7   6    0.21    0.08
  -3   7  -6    0.10    0.13
  -4  -7  -6   13.85    0.60
   4  -7   6   13.79    0.48
  -4  -7  -6   14.33    0.53
  -4   7  -6   13.92    0.55
  -4   7  -6   14.76    0.59
  -6  -8   6   10.87    0.41
  -6  -8   6   10.68    0.52
  -6  -8   6   11.01    0.40
  -5  -8   6   19.80    0.67
  -5  -8   6   19.90    0.83
  -5  -8   6   20.48    0.69
  -5  -8   6   19.45    0.87
  -4  -8   6    8.06    0.42
  -4  -8   6    8.46    0.43
  -4  -8   6    9.11    0.54
  -4  -8   6    7.85    0.54
  -4   8   6    7.85    0.55
  -4   8   6    8.08    0.38
  -3  -8   6   15.40    0.75
  -3  -8   6   14.77    0.62
  -3  -8   6   15.39    0.61
  -3  -8   6   16.05    0.64
  -3  -8   6   17.33    0.81
  -3   8   6   15.47    0.60
  -3   8   6   15.32    0.87
  -2  -8   6   11.43    0.55
  -2  -8   6   11.70    0.66
  -2  -8   6   12.14    0.55
  -2  -8   6   12.05    0.67
  -2  -8   6   12.06    0.54
   2   8  -6   11.98    0.52
  -2   8   6   11.76    0.54
  -1  -8   6    6.98    0.51
  -1  -8   6    6.84    0.41
  -1  -8   6    6.52    0.51
   1  -8  -6    6.54    0.37
  -1  -8   6    6.74    0.43
  -1   8   6    6.75    0.41
   1   8  -6    6.61    0.39
  -1   8   6    6.86    0.41
   0  -8   6    2.41    0.39
   0  -8   6    2.61    0.29
   0  -8  -6    2.87    0.28
   0  -8   6    1.96    0.28
   0  -8   6    2.77    0.38
   0   8  -6    2.96    0.33
   0   8   6    2.78    0.33
   0   8  -6    3.13    0.27
   0   8   6    2.99    0.33
   0   8   6    2.87    0.30
   0   8  -6    2.57    0.30
   1  -8   6   37.13    1.01
   1  -8   6   39.01    1.19
   1  -8   6   39.63    1.32
  -1   8  -6   38.48    1.18
   1   8   6   36.84    1.09
  -1   8  -6   37.91    1.04
  -1   8  -6   36.99    1.18
   1   8   6   38.83    1.22
   1   8   6   38.20    1.10
   2  -8   6   19.85    0.67
  -2  -8  -6   21.96    0.76
  -2  -8  -6   20.77    0.91
  -2   8  -6   20.79    0.62
  -2   8  -6   20.30    0.80
   2   8   6   21.29    0.78
  -2   8  -6   20.77    0.79
   2   8   6   20.70    0.83
  -3  -8  -6   24.36    0.82
   3  -8   6   25.05    0.77
  -3  -8  -6   24.81    0.97
  -3   8  -6   25.30    0.88
  -3   8  -6   25.15    0.88
  -4  -8  -6   25.16    0.85
   4  -8   6   24.84    0.71
  -4  -8  -6   24.79    0.77
  -4   8  -6   23.95    0.80
  -4   8  -6   26.59    0.80
  -6  -9   6    1.17    0.15
  -6  -9   6    0.88    0.13
  -6  -9   6    0.93    0.18
  -6  -9   6    1.30    0.16
  -6  -9   6    0.98    0.14
  -5  -9   6    0.13    0.09
  -5  -9   6    0.05    0.11
  -5  -9   6    0.10    0.11
  -5  -9   6   -0.03    0.12
  -4  -9   6    5.63    0.35
  -4  -9   6    6.29    0.48
  -4  -9   6    5.89    0.37
  -4   9   6    6.28    0.49
  -4   9   6    5.87    0.32
  -3  -9   6    1.58    0.25
  -3  -9   6    2.15    0.33
  -3  -9   6    2.62    0.30
  -3  -9   6    2.37    0.36
  -3  -9   6    1.69    0.24
  -3   9   6    1.41    0.33
  -3   9   6    2.11    0.26
  -2  -9   6    7.15    0.51
  -2  -9   6    6.99    0.53
  -2  -9   6    7.53    0.43
  -2  -9   6    8.02    0.45
  -2   9   6    7.28    0.43
   2   9  -6    6.97    0.40
  -1  -9   6    1.17    0.27
  -1  -9   6    0.89    0.24
   1  -9  -6    1.14    0.19
  -1  -9   6    0.98    0.20
  -1  -9   6    0.70    0.19
   1   9  -6    1.07    0.20
  -1   9   6    1.22    0.23
  -1   9   6    0.88    0.21
   1   9  -6    0.93    0.21
   0  -9   6    0.40    0.16
   0  -9   6    0.44    0.20
   0  -9   6    0.23    0.17
   0  -9   6    0.20    0.13
   0   9   6    0.44    0.15
   0   9   6    0.47    0.16
   0   9  -6    0.46    0.16
   0   9  -6    0.25    0.12
   0   9   6    0.39    0.16
   0   9  -6    0.30    0.15
   1  -9   6    0.47    0.17
   1  -9   6    0.35    0.18
   1  -9   6    0.16    0.08
   1   9   6    0.51    0.19
  -1   9  -6    0.25    0.14
  -1   9  -6    0.20    0.14
   1   9   6    0.11    0.09
   1   9   6    0.19    0.10
  -1   9  -6    0.21    0.08
  -2  -9  -6   10.99    0.64
  -2  -9  -6   11.16    0.57
  -2  -9  -6   11.39    0.51
   2  -9   6   10.96    0.44
  -2   9  -6   12.06    0.57
   2   9   6   11.85    0.54
   2   9   6   11.81    0.56
  -2   9  -6   11.23    0.56
  -3  -9  -6    7.38    0.48
  -3  -9  -6    6.68    0.38
   3  -9   6    7.88    0.35
   3   9   6    7.36    0.44
  -3   9  -6    7.39    0.43
  -3   9  -6    7.62    0.43
   4  -9   6   10.16    0.45
  -4  -9  -6   10.70    0.49
   4  -9   6   10.47    0.36
  -4  -9  -6   10.19    0.40
  -4  -9  -6   10.49    0.41
   4   9   6    9.49    0.44
  -4   9  -6    9.88    0.43
  -4   9  -6   10.26    0.43
  -6 -10   6    7.65    0.34
  -6 -10   6    7.12    0.32
  -5 -10   6   37.31    1.18
  -5 -10   6   35.29    1.05
  -5 -10   6   35.50    1.03
  -4 -10   6    7.58    0.40
  -4 -10   6    7.59    0.41
  -4 -10   6    6.85    0.49
  -4  10   6    7.53    0.37
  -4  10   6    7.66    0.54
  -3 -10   6   53.67    1.48
  -3 -10   6   55.23    1.69
  -3 -10   6   55.60    1.52
  -3 -10   6   53.52    1.50
  -3  10   6   48.04    1.94
   3  10  -6   55.13    1.47
   3  10  -6   51.45    1.70
  -3  10   6   54.08    1.47
  -2 -10   6   12.77    0.60
  -2 -10   6   12.37    0.66
  -2 -10   6   13.06    0.60
  -2 -10   6   13.20    0.58
  -2 -10   6   13.30    0.72
   2  10  -6   12.45    0.60
   2  10  -6   14.01    0.58
  -2  10   6   13.42    0.59
  -1 -10   6    0.49    0.18
  -1 -10   6    0.60    0.23
  -1 -10   6    0.56    0.17
  -1 -10   6    0.56    0.21
  -1  10   6    0.84    0.20
   1  10  -6    0.54    0.17
  -1  10   6    0.87    0.21
   1  10  -6    0.72    0.17
   0 -10   6    9.00    0.60
   0 -10   6    9.41    0.46
   0 -10   6    9.39    0.51
   0 -10   6    8.48    0.56
   0  10   6    9.41    0.52
   0  10  -6    9.25    0.48
   0  10  -6    9.28    0.45
   0  10  -6    8.94    0.52
   0  10   6    8.53    0.43
   0  10   6    9.04    0.49
   1 -10   6   11.70    0.65
   1 -10   6   11.53    0.54
  -1  10  -6   10.79    0.54
   1  10   6   10.60    0.53
  -1  10  -6   10.68    0.55
   1  10   6   10.80    0.56
  -1  10  -6   10.76    0.63
  -2 -10  -6    5.02    0.32
  -2 -10  -6    5.00    0.37
   2 -10   6    5.72    0.29
  -2 -10  -6    5.68    0.47
  -2 -10  -6    4.85    0.33
   2 -10   6    5.52    0.43
   2  10   6    5.34    0.36
  -2  10  -6    5.64    0.40
  -2  10  -6    5.94    0.39
   2  10   6    5.83    0.37
  -3 -10  -6    0.80    0.17
  -3 -10  -6    1.21    0.19
   3 -10   6    0.82    0.13
  -3 -10  -6    0.67    0.18
  -3  10  -6    0.86    0.19
   3  10   6    1.13    0.20
  -3  10  -6    0.90    0.18
  -4 -10  -6   10.84    0.54
  -4 -10  -6    9.86    0.39
   4 -10   6    9.37    0.43
  -4 -10  -6   10.33    0.39
   4 -10   6   10.25    0.34
  -4  10  -6   10.28    0.42
   4  10   6   11.71    0.55
  -5 -11   6    0.02    0.08
  -5 -11   6    0.13    0.10
  -5 -11   6   -0.01    0.11
  -4 -11   6    3.46    0.29
  -4 -11   6    3.66    0.29
  -4 -11   6    3.84    0.36
   4  11  -6    3.65    0.47
  -4  11   6    3.92    0.27
  -4  11   6    3.76    0.39
  -3 -11   6   10.64    0.52
  -3 -11   6   12.49    0.66
  -3 -11   6   11.22    0.54
  -3 -11   6   12.30    0.55
   3  11  -6   12.04    0.52
  -3  11   6   11.15    0.52
   3  11  -6   10.63    0.54
  -2 -11   6  102.62    2.56
  -2 -11   6  102.79    2.59
  -2 -11   6  102.02    2.79
   2  11  -6  101.42    2.62
  -2  11   6  104.06    2.54
  -2  11   6  102.76    2.57
   2  11  -6  103.87    2.56
  -1 -11   6   49.65    1.45
  -1 -11   6   45.55    1.38
  -1 -11   6   46.68    1.54
  -1 -11   6   46.37    1.59
   1  11  -6   49.36    1.37
  -1  11   6   50.90    1.45
  -1  11   6   47.57    1.40
   1  11  -6   47.57    1.45
   0 -11   6   71.30    1.91
   0 -11   6   69.84    2.05
   0 -11   6   72.70    2.07
   0 -11   6   70.91    2.09
   0 -11   6   69.54    1.77
   0  11  -6   68.71    1.78
   0  11  -6   70.19    1.94
   0  11  -6   60.32    2.19
   0  11   6   71.65    1.89
   0  11   6   69.76    1.91
   1 -11   6   60.98    1.66
   1 -11   6   61.80    1.77
   1 -11   6   63.50    1.88
   1 -11   6   61.93    1.86
  -1  11  -6   58.88    1.72
  -1  11  -6   60.27    1.73
  -1  11  -6   61.54    1.69
   1  11   6   59.08    1.64
   1  11   6   61.84    1.71
  -2 -11  -6    0.18    0.12
   2 -11   6    0.13    0.07
  -2 -11  -6    0.21    0.14
   2 -11   6    0.27    0.15
  -2 -11  -6    0.08    0.11
  -2 -11  -6    0.11    0.13
  -2  11  -6    0.03    0.12
   2  11   6    0.15    0.10
   2  11   6    0.27    0.14
  -2  11  -6    0.30    0.15
   2  11   6    0.16    0.09
   3 -11   6    1.41    0.15
  -3 -11  -6    1.48    0.18
   3 -11   6    1.40    0.22
  -3 -11  -6    2.09    0.31
   3  11   6    1.08    0.16
  -3  11  -6    1.77    0.24
  -3  11  -6    1.38    0.22
  -4  11  -6    2.73    0.24
  -5 -12   6   34.47    0.96
  -5 -12   6   32.07    0.96
  -4 -12   6   29.97    1.05
  -4 -12   6   30.05    0.95
  -4 -12   6   30.85    0.94
  -4  12   6   29.43    1.15
  -4  12   6   30.39    0.89
   4  12  -6   29.51    0.91
   4  12  -6   29.62    0.96
  -3 -12   6   43.11    1.31
  -3 -12   6   43.69    1.30
  -3 -12   6   46.21    1.46
  -3 -12   6   44.95    1.29
  -3  12   6   47.02    1.29
   3  12  -6   44.96    1.28
   3  12  -6   42.63    1.32
  -2 -12   6   37.12    1.17
  -2 -12   6   38.06    1.33
  -2 -12   6   35.94    1.14
   2  12  -6   38.61    1.14
  -2  12   6   35.71    1.11
   2  12  -6   36.61    1.19
  -2  12   6   37.31    1.16
  -1 -12   6    9.64    0.63
  -1 -12   6   10.11    0.55
   1  12  -6   10.82    0.51
  -1  12   6   10.03    0.53
  -1  12   6   10.07    0.51
   1  12  -6   10.29    0.56
   0 -12   6    1.09    0.17
   0 -12   6    0.96    0.21
   0 -12   6    1.82    0.22
   0 -12   6    0.90    0.25
   0  12   6    1.02    0.22
   0  12   6    1.13    0.20
   0  12  -6    1.04    0.17
   0  12  -6    0.96    0.21
   1 -12   6    0.06    0.12
   1 -12   6    0.18    0.15
   1 -12   6    0.03    0.15
   1 -12   6    0.17    0.15
   1  12   6    0.13    0.13
  -1  12  -6   -0.07    0.11
  -1  12  -6    0.04    0.11
   1  12   6    0.23    0.14
  -1  12  -6    0.01    0.12
  -2 -12  -6    4.73    0.32
  -2 -12  -6    4.55    0.40
   2 -12   6    5.19    0.40
   2  12   6    4.69    0.32
  -2  12  -6    5.29    0.38
  -2  12  -6    4.78    0.34
   3 -12   6    4.15    0.20
  -3 -12  -6    3.92    0.32
  -3 -12  -6    4.24    0.25
   3 -12   6    3.95    0.31
  -3  12  -6    4.70    0.31
  -3  12  -6    4.01    0.28
  -5 -13   6    5.24    0.30
  -5 -13   6    5.64    0.30
   5  13  -6    4.66    0.36
  -4 -13   6    0.53    0.15
  -4 -13   6    0.32    0.13
  -4 -13   6    0.31    0.12
  -4 -13   6    0.47    0.16
   4  13  -6    0.38    0.12
  -4  13   6    0.58    0.13
  -4  13   6    0.28    0.15
   4  13  -6    0.39    0.15
  -3 -13   6    0.31    0.14
  -3 -13   6    0.27    0.13
  -3 -13   6    0.29    0.16
  -3 -13   6    0.19    0.13
  -3  13   6    0.20    0.13
   3  13  -6    0.21    0.14
   3  13  -6    0.42    0.14
  -2 -13   6    0.09    0.13
  -2 -13   6    0.15    0.14
  -2 -13   6    0.22    0.16
   2  13  -6    0.16    0.11
  -2  13   6    0.63    0.18
   2  13  -6    0.29    0.15
  -2  13   6    0.13    0.12
  -1 -13   6    2.99    0.41
  -1 -13   6    2.39    0.31
  -1  13   6    3.39    0.36
   1  13  -6    2.84    0.34
   1  13  -6    3.51    0.28
  -1  13   6    3.14    0.34
   0 -13   6    6.58    0.49
   0 -13   6    5.72    0.39
   0  13   6    5.82    0.41
   0  13   6    5.50    0.37
   0  13  -6    5.11    0.28
   0  13  -6    5.82    0.42
   1 -13   6    5.57    0.40
   1 -13   6    5.71    0.35
   1 -13   6    5.98    0.46
   1  13   6    5.60    0.40
  -1  13  -6    6.00    0.32
  -1  13  -6    6.42    0.42
  -1  13  -6    5.36    0.29
  -1  13  -6    5.40    0.36
  -2 -13  -6    5.89    0.43
   2 -13   6    6.64    0.43
  -2 -13  -6    6.37    0.33
  -2  13  -6    6.99    0.39
   2  13   6    6.59    0.36
  -2  13  -6    6.89    0.41
   3 -13   6    0.60    0.15
  -3 -13  -6    0.43    0.14
  -3  13  -6    0.73    0.15
  -3  13  -6    0.61    0.15
  -5 -14   6    8.04    0.35
  -4 -14   6    0.31    0.11
  -4 -14   6    0.10    0.10
  -4 -14   6    0.11    0.10
   4  14  -6    0.27    0.12
  -4  14   6    0.29    0.14
   4  14  -6    0.08    0.10
  -4  14   6    0.07    0.08
  -3 -14   6    8.54    0.50
  -3 -14   6    8.15    0.43
  -3 -14   6    8.55    0.43
   3  14  -6    8.01    0.46
   3  14  -6    7.97    0.41
  -3  14   6    8.11    0.41
  -2 -14   6    0.83    0.19
  -2 -14   6    0.94    0.20
  -2 -14   6    1.25    0.24
   2  14  -6    1.15    0.20
  -2  14   6    1.25    0.23
   2  14  -6    1.11    0.21
  -2  14   6    1.08    0.19
  -1 -14   6    8.48    0.49
  -1 -14   6    9.07    0.57
  -1  14   6    9.73    0.50
   1  14  -6    9.05    0.43
   1  14  -6    9.06    0.52
  -1  14   6    9.05    0.48
   0 -14   6    0.98    0.20
   0 -14   6    0.84    0.22
   0  14  -6    0.69    0.19
   0  14   6    0.77    0.19
   1 -14   6   31.31    0.94
   1 -14   6   32.84    1.12
   1  14   6   32.59    1.01
  -1  14  -6   30.81    1.03
  -1  14  -6   30.87    0.97
   2 -14   6    7.80    0.44
   2 -14   6    7.18    0.39
  -2 -14  -6    7.19    0.45
   2  14   6    6.96    0.34
  -2  14  -6    7.32    0.41
  -2  14  -6    7.32    0.38
   3 -14   6    2.76    0.23
  -3  14  -6    2.66    0.23
  -3  14  -6    2.94    0.22
  -4 -15   6    0.78    0.15
  -4 -15   6    0.62    0.14
  -4  15   6    0.92    0.14
   4  15  -6    0.62    0.12
  -4  15   6    0.78    0.18
   4  15  -6    0.73    0.16
  -3 -15   6    3.39    0.28
  -3 -15   6    3.71    0.28
   3  15  -6    4.04    0.31
  -3  15   6    3.98    0.28
   3  15  -6    3.73    0.27
  -2 -15   6   28.58    1.01
  -2 -15   6   29.24    0.96
  -2  15   6   29.59    0.91
  -2  15   6   29.49    0.94
   2  15  -6   30.30    1.00
   2  15  -6   28.83    0.89
  -1 -15   6   16.08    0.66
  -1 -15   6   17.00    0.74
  -1  15   6   16.05    0.64
   1  15  -6   17.04    0.70
   1  15  -6   16.32    0.56
  -1  15   6   15.85    0.65
   0 -15   6   15.74    0.72
   0 -15   6   15.44    0.61
   0  15  -6   16.16    0.67
   0  15  -6   16.37    0.68
   0  15   6   15.45    0.64
   1 -15   6    9.85    0.36
   1 -15   6   10.22    0.36
   1 -15   6    9.81    0.52
  -1  15  -6   10.09    0.50
   1  15   6   10.22    0.47
  -1  15  -6    9.44    0.43
   2 -15   6    2.97    0.23
   2 -15   6    3.78    0.29
  -2  15  -6    3.37    0.24
  -2  15  -6    3.26    0.26
   4  16  -6    0.25    0.10
  -4  16   6    0.36    0.10
  -3 -16   6    1.24    0.19
  -3 -16   6    1.33    0.20
   3  16  -6    1.19    0.16
  -3  16   6    1.42    0.19
   3  16  -6    1.13    0.19
  -2 -16   6    2.21    0.26
  -2  16   6    2.99    0.26
   2  16  -6    2.82    0.31
   2  16  -6    2.80    0.22
  -2  16   6    2.97    0.24
  -1 -16   6    7.34    0.45
  -1 -16   6    7.65    0.42
  -1  16   6    7.76    0.40
   1  16  -6    7.05    0.43
  -1  16   6    7.86    0.40
   0 -16   6   24.20    0.91
   0 -16   6   24.03    0.79
   0  16  -6   25.26    0.87
   0  16  -6   25.00    0.76
   0  16  -6   28.70    0.94
   0  16   6   25.04    0.83
  -1 -16  -6   10.20    0.47
   1 -16   6   10.31    0.50
  -1  16  -6   11.00    0.49
  -1  16  -6    9.64    0.41
   1  16   6   11.66    0.46
   2 -16   6   23.32    0.74
  -2  16  -6   22.03    0.71
  -3 -17   6    0.46    0.14
   3  17  -6    0.63    0.15
   3  17  -6    0.40    0.10
  -3  17   6    0.46    0.12
  -2 -17   6    1.78    0.22
  -2  17   6    1.57    0.20
   2  17  -6    2.03    0.24
   2  17  -6    1.95    0.16
  -2  17   6    1.82    0.21
  -1 -17   6    0.11    0.10
  -1  17   6    0.02    0.10
   1  17  -6    0.13    0.11
   1  17  -6    0.01    0.12
  -1  17   6    0.03    0.09
   0  17  -6    0.51    0.14
   0  17   6    0.35    0.12
   1 -17   6    1.19    0.18
  -1 -17  -6    1.31    0.17
  -1  17  -6    1.37    0.20
   1  17   6    1.47    0.18
  -2 -18   6    0.20    0.11
   2  18  -6    0.20    0.11
  -2  18   6    0.14    0.09
  -1 -18   6    9.61    0.40
  -1  18   6   10.12    0.41
   1  18  -6    9.76    0.36
   1  18  -6    9.88    0.45
   0  18  -6    0.91    0.16
   0  18   6    0.91    0.15
  -6   0   7   -0.07    0.11
  -6   0   7    0.00    0.12
  -5   0   7    0.00    0.13
  -5   0   7    0.11    0.09
  -5   0   7    0.02    0.15
  -4   0   7    0.03    0.12
  -4   0   7   -0.05    0.13
  -4   0   7    0.04    0.10
  -3   0   7    0.01    0.11
  -3   0   7    0.30    0.14
  -3   0   7    0.12    0.16
  -2   0   7    0.30    0.18
  -2   0   7    0.16    0.13
  -2   0   7   -0.02    0.10
   1   0  -7    0.03    0.10
  -1   0   7    0.10    0.11
  -1   0   7    0.15    0.10
  -1   0   7   -0.15    0.11
  -1   0   7   -0.07    0.10
   0   0   7   -0.06    0.12
   0   0  -7    0.04    0.09
   0   0   7    0.03    0.13
   0   0   7   -0.09    0.12
   0   0   7    0.12    0.12
   1   0   7    0.13    0.12
  -1   0  -7    0.13    0.11
   1   0   7    0.01    0.13
  -1   0  -7    0.07    0.09
   1   0   7    0.16    0.12
   2   0   7   -0.01    0.11
  -2   0  -7   -0.03    0.14
  -2   0  -7    0.02    0.12
   2   0   7    0.08    0.13
  -2   0  -7    0.06    0.11
  -3   0  -7    0.02    0.12
  -3   0  -7    0.08    0.09
  -4   0  -7    0.02    0.09
  -4   0  -7    0.15    0.09
  -6  -1   7    8.02    0.47
  -6  -1   7    7.39    0.47
  -6   1   7    6.91    0.46
  -6   1   7    7.65    0.46
  -5  -1   7    4.98    0.31
  -5  -1   7    4.23    0.41
  -5  -1   7    4.69    0.41
  -5   1   7    4.61    0.42
  -5   1   7    4.60    0.40
  -4  -1   7    2.68    0.35
  -4  -1   7    1.68    0.31
  -4  -1   7    2.08    0.26
  -4   1   7    2.06    0.30
  -4   1   7    2.02    0.36
  -4   1   7    2.43    0.27
  -3  -1   7    2.77    0.26
  -3  -1   7    3.29    0.39
  -3   1   7    2.82    0.27
  -3   1   7    2.35    0.36
  -2  -1   7   17.93    0.71
  -2  -1   7   20.65    0.76
  -2  -1   7   19.18    0.79
  -2  -1   7   19.71    0.90
  -2   1   7   19.44    0.78
  -2   1   7   20.23    0.87
  -2   1   7   19.92    0.74
  -1  -1   7   73.44    1.92
  -1  -1   7   71.00    2.11
  -1  -1   7   70.72    1.91
  -1  -1   7   74.32    1.74
   1  -1  -7   71.66    1.87
  -1   1   7   71.02    1.71
  -1   1   7   72.58    1.91
  -1   1   7   73.11    2.08
  -1   1   7   71.53    1.91
   1   1  -7   71.34    1.88
   0  -1  -7    4.72    0.32
   0  -1   7    4.76    0.34
   0  -1   7    4.72    0.36
   0  -1   7    5.07    0.35
   0  -1   7    4.49    0.40
   0   1   7    4.77    0.35
   0   1  -7    5.54    0.35
   0   1   7    5.19    0.34
   0   1   7    4.11    0.34
   0   1   7    4.78    0.40
  -1  -1  -7   66.58    1.71
   1  -1   7   67.24    1.81
   1  -1   7   64.84    1.94
  -1  -1  -7   66.74    1.74
   1  -1   7   67.38    1.77
   1   1   7   66.82    1.73
   1   1   7   67.30    1.90
  -1   1  -7   69.24    1.71
  -1   1  -7   67.67    1.99
  -1   1  -7   65.95    1.75
   1   1   7   67.00    1.80
   2  -1   7   10.04    0.56
  -2  -1  -7   10.03    0.59
  -2  -1  -7    9.48    0.47
   2  -1   7   10.12    0.48
  -2  -1  -7    9.65    0.51
   2   1   7    9.31    0.53
  -2   1  -7   10.01    0.60
  -2   1  -7    9.77    0.48
   2   1   7   10.00    0.48
  -2   1  -7   10.45    0.50
  -3  -1  -7    8.55    0.53
  -3  -1  -7    9.44    0.45
  -3   1  -7   10.78    0.48
  -3   1  -7    9.61    0.55
  -4  -1  -7    0.36    0.13
  -4  -1  -7    0.81    0.14
  -4   1  -7    0.78    0.14
  -4   1  -7    0.79    0.17
  -6  -2   7    1.49    0.26
  -6  -2   7    1.04    0.20
  -6   2   7    1.13    0.21
  -6   2   7    1.07    0.23
  -5  -2   7   45.97    1.35
  -5  -2   7   46.59    1.50
  -5  -2   7   44.86    1.45
  -5   2   7   46.31    1.48
  -5   2   7   45.50    1.42
  -4  -2   7   60.32    1.79
  -4  -2   7   59.13    1.85
  -4  -2   7   57.45    1.55
  -4   2   7   56.69    1.78
  -4   2   7   57.92    1.86
  -4   2   7   59.15    1.54
  -3  -2   7   78.96    2.25
  -3  -2   7   80.19    2.35
  -3  -2   7   83.75    2.10
  -3   2   7   83.09    2.32
  -3   2   7   81.42    2.07
  -2  -2   7  143.89    3.42
  -2  -2   7  146.06    3.57
  -2  -2   7  144.24    3.72
  -2  -2   7  141.11    3.43
  -2   2   7  145.96    3.42
  -2   2   7  141.72    3.61
  -1  -2   7   21.67    0.81
   1  -2  -7   21.82    0.78
  -1  -2   7   23.37    0.83
  -1  -2   7   22.96    0.69
  -1  -2   7   21.92    0.85
  -1  -2   7   23.48    0.99
  -1   2   7   21.33    0.63
  -1   2   7   21.41    0.90
   1   2  -7   22.88    0.80
  -1   2   7   22.77    0.81
  -1   2   7   22.45    0.81
   0  -2   7   77.01    2.05
   0  -2   7   76.96    2.23
   0  -2   7   84.72    2.12
   0  -2   7   77.40    1.99
   0  -2  -7   79.57    2.03
   0   2  -7   83.37    2.05
   0   2   7   79.11    2.18
   0   2   7   78.40    2.08
   0   2   7   80.03    2.06
   0   2   7   78.97    1.98
  -1  -2  -7    5.50    0.33
   1  -2   7    5.52    0.37
   1  -2   7    6.02    0.40
  -1   2  -7    5.12    0.45
  -1   2  -7    5.77    0.32
   1   2   7    5.12    0.38
  -1   2  -7    4.93    0.34
   1   2   7    5.39    0.38
   1   2   7    5.62    0.36
   1   2   7    5.97    0.34
   2  -2   7   37.35    1.45
  -2  -2  -7   41.31    1.24
  -2  -2  -7   42.20    1.20
   2  -2   7   41.68    1.19
  -2  -2  -7   42.72    1.40
  -2   2  -7   40.07    1.40
   2   2   7   40.90    1.20
  -2   2  -7   41.15    1.21
  -2   2  -7   41.25    1.19
   2   2   7   41.49    1.26
  -3  -2  -7    4.29    0.30
   3  -2   7    3.33    0.21
  -3  -2  -7    4.28    0.37
  -3   2  -7    4.03    0.36
  -3   2  -7    4.14    0.30
  -4  -2  -7   25.46    0.74
  -4  -2  -7   24.95    0.82
  -4   2  -7   23.63    0.80
  -4   2  -7   24.98    0.74
  -6  -3   7   16.55    0.69
  -6  -3   7   15.49    0.68
  -6   3   7   14.73    0.63
  -6   3   7   15.81    0.67
  -5  -3   7   10.69    0.60
  -5  -3   7   10.34    0.61
  -5  -3   7   10.31    0.53
  -5   3   7   10.03    0.58
  -4  -3   7    0.42    0.18
  -4  -3   7    1.14    0.29
  -4  -3   7    0.60    0.15
  -4   3   7    0.58    0.16
  -4   3   7    0.53    0.20
  -3  -3   7    5.54    0.36
  -3  -3   7    4.93    0.42
  -3  -3   7    5.41    0.47
  -3   3   7    4.50    0.40
  -3   3   7    4.57    0.32
  -2  -3   7    8.33    0.45
  -2  -3   7    6.67    0.42
  -2  -3   7    7.40    0.50
  -2  -3   7    8.46    0.60
  -2   3   7    8.01    0.51
  -2   3   7    7.82    0.44
  -1  -3   7   51.29    1.30
  -1  -3   7   51.32    1.68
  -1  -3   7   51.57    1.46
  -1  -3   7   51.18    1.46
  -1  -3   7   51.82    1.55
   1  -3  -7   49.57    1.40
  -1   3   7   49.25    1.23
   1   3  -7   49.39    1.42
  -1   3   7   51.29    1.45
  -1   3   7   49.47    1.55
  -1   3   7   49.39    1.43
   0  -3   7    9.66    0.49
   0  -3   7   10.29    0.60
   0  -3  -7    9.84    0.47
   0  -3   7    9.73    0.53
   0  -3   7    9.31    0.51
   0  -3   7   10.28    0.48
   0   3  -7   10.39    0.49
   0   3   7   10.11    0.51
   0   3   7    9.82    0.49
   0   3   7    9.90    0.46
   1  -3   7   42.99    1.30
  -1  -3  -7   43.70    1.20
   1  -3   7   44.33    1.28
  -1   3  -7   43.19    1.18
  -1   3  -7   42.35    1.24
   1   3   7   40.67    1.27
   1   3   7   43.77    1.16
   1   3   7   43.45    1.18
  -2  -3  -7   31.54    1.01
   2  -3   7   30.41    0.94
  -2  -3  -7   30.20    0.95
  -2  -3  -7   28.68    1.10
   2   3   7   29.80    0.98
   2   3   7   30.08    0.95
  -2   3  -7   30.09    0.93
  -2   3  -7   28.81    1.13
  -2   3  -7   28.11    0.95
  -3  -3  -7   18.42    0.78
  -3  -3  -7   18.66    0.66
   3  -3   7   16.23    0.55
   3   3   7   17.36    0.69
  -3   3  -7   17.96    0.66
  -3   3  -7   19.53    0.79
  -4  -3  -7    5.91    0.34
  -4  -3  -7    5.39    0.28
  -4   3  -7    5.07    0.32
  -4   3  -7    5.63    0.29
  -6  -4   7    1.13    0.22
  -6  -4   7    1.52    0.25
  -6   4   7    1.24    0.24
  -5  -4   7    0.30    0.18
  -5  -4   7    0.33    0.11
  -5  -4   7    0.20    0.17
  -5  -4   7    0.36    0.14
  -5   4   7    0.22    0.16
  -4  -4   7    0.20    0.12
  -4  -4   7    0.26    0.16
  -4  -4   7   -0.09    0.13
  -4   4   7    0.06    0.10
  -4   4   7    0.02    0.12
  -3  -4   7    0.18    0.11
  -3  -4   7    0.26    0.18
  -3  -4   7    0.08    0.15
  -3   4   7    0.12    0.11
  -3   4   7   -0.03    0.12
  -2  -4   7    4.08    0.44
  -2  -4   7    3.97    0.33
  -2  -4   7    3.94    0.50
  -2  -4   7    3.88    0.33
  -2   4   7    4.57    0.39
  -2   4   7    4.57    0.34
   2   4  -7    4.14    0.32
  -1  -4   7    0.56    0.18
  -1  -4   7    0.83    0.16
  -1  -4   7    0.69    0.23
  -1  -4   7    0.71    0.20
  -1  -4   7    0.85    0.21
   1  -4  -7    0.85    0.17
  -1   4   7    0.76    0.18
   1   4  -7    0.96    0.19
  -1   4   7    0.92    0.13
  -1   4   7    0.64    0.17
   0  -4   7    0.32    0.17
   0  -4   7    0.30    0.15
   0  -4   7    0.21    0.13
   0  -4   7    0.20    0.12
   0  -4  -7    0.11    0.09
   0  -4   7    0.16    0.13
   0   4   7    0.08    0.12
   0   4   7    0.13    0.13
   0   4  -7    0.16    0.11
   0   4   7    0.16    0.12
   1  -4   7    0.20    0.14
   1  -4   7    0.24    0.14
   1  -4   7    0.34    0.15
  -1  -4  -7    0.36    0.12
  -1   4  -7    0.33    0.11
   1   4   7    0.36    0.15
   1   4   7    0.31    0.10
  -1   4  -7    0.44    0.15
   1   4   7    0.27    0.10
   2  -4   7    2.89    0.26
  -2  -4  -7    2.90    0.30
  -2  -4  -7    3.11    0.42
  -2  -4  -7    3.72    0.35
  -2   4  -7    3.16    0.28
   2   4   7    3.15    0.28
  -2   4  -7    2.72    0.36
   2   4   7    2.87    0.28
  -2   4  -7    3.11    0.26
  -3  -4  -7    1.02    0.21
  -3  -4  -7    1.26    0.19
  -3   4  -7    1.37    0.21
   3   4   7    0.97    0.18
  -3   4  -7    1.64    0.28
  -4  -4  -7    1.49    0.17
  -4  -4  -7    1.43    0.20
  -4   4  -7    1.19    0.18
  -4   4  -7    1.45    0.19
  -6  -5   7   18.26    0.72
  -6  -5   7   17.46    0.70
  -6   5   7   16.96    0.68
  -5  -5   7   12.98    0.67
  -5  -5   7   12.74    0.61
  -5  -5   7   13.64    0.68
  -5  -5   7   13.98    0.52
  -5   5   7   13.35    0.65
  -4  -5   7    0.12    0.17
  -4  -5   7    0.13    0.15
  -4  -5   7    0.10    0.12
  -4   5   7    0.12    0.16
  -4   5   7    0.07    0.10
  -3  -5   7   17.77    0.69
  -3  -5   7   18.88    0.89
  -3  -5   7   17.97    0.83
  -3   5   7   17.91    0.67
  -3   5   7   17.00    0.95
  -3   5   7   16.26    0.76
  -2  -5   7    7.01    0.56
  -2  -5   7    7.17    0.51
  -2  -5   7    6.73    0.42
  -2  -5   7    7.34    0.44
  -2   5   7    7.07    0.41
   2   5  -7    6.13    0.39
  -1  -5   7   24.21    1.07
  -1  -5   7   25.51    0.77
  -1  -5   7   25.73    0.92
   1  -5  -7   24.85    0.84
  -1  -5   7   25.29    0.90
  -1  -5   7   24.32    1.00
   1   5  -7   25.53    0.87
  -1   5   7   25.81    0.66
  -1   5   7   25.36    0.88
  -1   5   7   25.13    0.88
   0  -5   7    0.12    0.14
   0  -5   7    0.01    0.12
   0  -5  -7    0.17    0.10
   0  -5   7    0.46    0.16
   0   5   7    0.02    0.11
   0   5  -7    0.67    0.17
   0   5   7    0.30    0.14
   0   5   7    0.05    0.12
   1  -5   7   34.16    1.08
   1  -5   7   33.92    1.05
   1  -5   7   32.04    1.11
   1   5   7   32.77    1.07
  -1   5  -7   33.09    0.94
  -1   5  -7   32.80    1.03
  -2  -5  -7    1.51    0.27
   2  -5   7    2.13    0.28
  -2  -5  -7    2.08    0.24
   2  -5   7    2.58    0.27
   2  -5   7    1.80    0.29
  -2  -5  -7    2.16    0.29
   2   5   7    2.48    0.26
   2   5   7    1.77    0.24
  -2   5  -7    2.49    0.29
  -2   5  -7    2.56    0.22
  -2   5  -7    2.17    0.22
  -3  -5  -7    0.13    0.11
  -3  -5  -7    0.23    0.11
  -3   5  -7    0.56    0.15
   3   5   7    0.46    0.14
  -3   5  -7    0.09    0.11
  -4  -5  -7    0.18    0.10
  -4   5  -7    0.19    0.10
  -6  -6   7   25.09    0.86
  -6  -6   7   25.85    0.90
  -6   6   7   28.71    1.15
  -5  -6   7    0.97    0.21
  -5  -6   7    0.96    0.23
  -5  -6   7    0.86    0.22
  -5  -6   7    0.71    0.15
  -5   6   7    1.05    0.23
  -4  -6   7    0.47    0.15
  -4  -6   7    0.38    0.17
  -4  -6   7    0.52    0.21
  -4   6   7    0.62    0.14
  -3  -6   7    3.15    0.42
  -3  -6   7    3.30    0.46
  -3  -6   7    3.44    0.30
  -3   6   7    2.99    0.46
  -3   6   7    3.46    0.28
  -2  -6   7    1.12    0.25
  -2  -6   7    1.66    0.26
  -2  -6   7    1.62    0.34
  -2  -6   7    1.05    0.21
   2   6  -7    2.14    0.26
  -2   6   7    2.02    0.27
   1  -6  -7    2.40    0.25
  -1  -6   7    2.62    0.39
  -1  -6   7    2.29    0.33
  -1  -6   7    3.20    0.35
  -1  -6   7    2.89    0.25
  -1  -6   7    2.65    0.32
  -1   6   7    3.23    0.29
   1   6  -7    3.31    0.33
  -1   6   7    3.24    0.34
   0  -6   7    0.38    0.19
   0  -6  -7    0.38    0.13
   0  -6   7    0.44    0.16
   0  -6   7    0.35    0.16
   0   6   7    0.33    0.13
   0   6   7    0.46    0.17
   0   6  -7    0.35    0.13
   0   6   7    0.19    0.14
   1  -6   7   46.98    1.34
   1  -6   7   45.69    1.44
   1  -6   7   48.49    1.38
   1  -6   7   46.48    1.33
  -1   6  -7   46.23    1.21
   1   6   7   44.42    1.30
  -1   6  -7   47.48    1.34
   1   6   7   47.08    1.37
  -2  -6  -7   99.51    2.47
   2  -6   7   97.13    2.53
  -2  -6  -7  101.72    2.67
   2  -6   7   96.24    2.55
   2  -6   7  101.10    2.54
  -2  -6  -7   99.68    2.40
   2   6   7   99.85    2.37
   2   6   7  101.61    2.44
  -2   6  -7   98.43    2.22
  -2   6  -7   96.70    2.45
   3  -6   7   21.63    0.75
  -3  -6  -7   22.48    0.71
  -3  -6  -7   22.03    0.84
  -3   6  -7   22.52    0.85
   3   6   7   22.21    0.71
  -3   6  -7   22.63    0.75
  -4   6  -7   27.82    0.79
  -6  -7   7    0.24    0.13
  -5  -7   7    0.10    0.13
  -5  -7   7    0.14    0.13
  -5  -7   7    0.03    0.10
  -5  -7   7    0.08    0.10
  -4  -7   7    0.08    0.13
  -4  -7   7   -0.05    0.10
  -4  -7   7    0.01    0.13
  -4   7   7    0.00    0.09
  -3  -7   7    0.67    0.21
  -3  -7   7    0.87    0.21
  -3  -7   7    0.71    0.24
  -3  -7   7    0.92    0.19
  -3   7   7    0.56    0.40
  -3   7   7    0.91    0.19
  -2  -7   7    0.18    0.15
  -2  -7   7    0.03    0.17
  -2  -7   7   -0.10    0.11
  -2  -7   7   -0.02    0.11
   2   7  -7    0.03    0.11
  -2   7   7    0.04    0.11
   1  -7  -7    3.40    0.28
  -1  -7   7    3.48    0.38
  -1  -7   7    3.03    0.35
  -1  -7   7    3.58    0.44
  -1  -7   7    2.63    0.42
  -1   7   7    2.66    0.31
   1   7  -7    3.10    0.32
  -1   7   7    2.77    0.31
   0  -7   7    0.75    0.24
   0  -7  -7    0.25    0.11
   0  -7   7    0.36    0.17
   0  -7   7    0.42    0.16
   0   7   7    0.56    0.18
   0   7   7    0.66    0.17
   0   7  -7    0.46    0.14
   0   7   7    0.69    0.17
   1  -7   7    4.40    0.33
   1  -7   7    4.06    0.37
   1  -7   7    4.28    0.33
   1  -7   7    4.12    0.34
   1  -7   7    3.68    0.45
   1   7   7    4.61    0.35
   1   7   7    4.22    0.33
  -1   7  -7    4.06    0.23
  -1   7  -7    3.89    0.37
  -2  -7  -7    2.04    0.33
  -2  -7  -7    1.92    0.25
   2  -7   7    1.53    0.24
   2  -7   7    1.43    0.24
  -2  -7  -7    1.66    0.21
   2  -7   7    1.02    0.21
   2   7   7    1.59    0.22
   2   7   7    1.76    0.17
   2   7   7    1.66    0.17
  -2   7  -7    1.60    0.24
  -3  -7  -7    2.78    0.29
   3  -7   7    3.03    0.26
  -3  -7  -7    3.36    0.23
  -3   7  -7    3.23    0.31
   3   7   7    3.28    0.22
  -3   7  -7    3.26    0.25
   3   7   7    2.89    0.21
  -5  -8   7    6.54    0.45
  -5  -8   7    6.56    0.44
  -5  -8   7    6.26    0.34
  -4  -8   7    1.69    0.28
  -4  -8   7    2.47    0.27
  -4  -8   7    2.25    0.34
  -4   8   7    1.92    0.32
  -4   8   7    2.35    0.25
  -3  -8   7    2.91    0.33
  -3  -8   7    2.06    0.34
  -3  -8   7    2.27    0.34
  -3  -8   7    2.14    0.28
   3   8  -7    2.64    0.30
  -3   8   7    2.73    0.30
  -2  -8   7   26.18    0.92
  -2  -8   7   25.66    1.09
  -2  -8   7   25.57    0.93
  -2  -8   7   25.36    1.07
   2   8  -7   26.20    0.88
  -2   8   7   24.43    1.07
  -2   8   7   26.65    0.89
  -1  -8   7    0.85    0.26
  -1  -8   7    1.17    0.22
  -1  -8   7    1.35    0.25
   1  -8  -7    1.19    0.19
  -1  -8   7    1.05    0.26
  -1   8   7    0.83    0.19
  -1   8   7    1.25    0.23
   1   8  -7    1.09    0.19
   0  -8   7    0.93    0.21
   0  -8   7    0.55    0.20
   0  -8   7    0.90    0.27
   0   8   7    0.82    0.20
   0   8   7    0.68    0.16
   0   8   7    0.76    0.18
   0   8  -7    0.68    0.15
   1  -8   7    1.12    0.20
   1  -8   7    1.22    0.21
   1  -8   7    1.21    0.20
   1  -8   7    1.42    0.26
   1  -8   7    1.36    0.30
  -1   8  -7    1.35    0.38
   1   8   7    1.42    0.22
  -1   8  -7    1.71    0.25
   1   8   7    1.40    0.23
   2  -8   7   16.32    0.67
   2  -8   7   16.94    0.70
  -2  -8  -7   15.91    0.61
   2  -8   7   16.67    0.67
  -2  -8  -7   16.17    0.74
   2   8   7   15.39    0.60
  -2   8  -7   16.79    0.64
  -3  -8  -7    3.20    0.29
   3  -8   7    2.83    0.27
   3  -8   7    3.10    0.27
   3  -8   7    2.83    0.25
  -3  -8  -7    2.79    0.21
  -3  -8  -7    3.12    0.21
  -3   8  -7    2.86    0.23
  -3   8  -7    2.79    0.28
  -5  -9   7   12.08    0.61
  -5  -9   7   12.59    0.49
  -5  -9   7   12.60    0.60
  -4  -9   7    0.10    0.10
  -4  -9   7    0.07    0.12
  -4  -9   7    0.03    0.10
  -4   9   7    0.12    0.10
  -4   9   7    0.14    0.14
  -3  -9   7    5.76    0.46
  -3  -9   7    6.03    0.49
  -3  -9   7    5.21    0.36
  -3  -9   7    5.40    0.38
   3   9  -7    5.64    0.36
  -3   9   7    5.15    0.34
  -2  -9   7   19.99    0.78
  -2  -9   7   19.51    0.90
  -2  -9   7   19.12    0.92
  -2  -9   7   19.85    0.79
  -2   9   7   20.87    0.76
   2   9  -7   20.58    0.75
  -1  -9   7   45.74    1.39
  -1  -9   7   44.98    1.35
  -1  -9   7   48.74    1.59
  -1  -9   7   46.41    1.59
  -1   9   7   43.87    1.35
  -1   9   7   45.32    1.35
   1   9  -7   46.56    1.34
   0  -9   7   20.38    0.88
   0  -9   7   18.66    0.77
   0  -9   7   21.85    0.96
   0   9  -7   20.90    0.71
   0   9   7   19.93    0.75
   0   9   7   20.52    0.65
   0   9   7   21.16    0.81
   1  -9   7   74.85    2.05
   1  -9   7   71.46    1.90
   1  -9   7   73.36    1.82
   1  -9   7   75.01    2.11
   1  -9   7   73.68    1.83
  -1   9  -7   71.07    1.96
   1   9   7   74.81    1.94
  -1   9  -7   71.44    1.89
   1   9   7   71.08    1.84
  -2  -9  -7   22.61    0.89
   2  -9   7   23.68    0.86
   2  -9   7   22.77    0.80
   2  -9   7   22.48    0.79
   2  -9   7   23.40    0.91
  -2  -9  -7   23.78    0.75
  -2   9  -7   23.73    0.79
   2   9   7   23.21    0.75
   3  -9   7   10.59    0.50
   3  -9   7   10.84    0.46
  -3  -9  -7   10.23    0.49
   3  -9   7   10.19    0.44
   3  -9   7   10.06    0.44
  -3   9  -7   10.95    0.43
  -3   9  -7    9.93    0.49
  -5 -10   7   29.07    0.98
  -5 -10   7   31.13    0.87
  -5 -10   7   28.44    1.03
  -4 -10   7   43.12    1.41
  -4 -10   7   44.80    1.25
  -4  10   7   45.40    1.19
  -4  10   7   41.63    1.42
  -3 -10   7   80.47    2.11
  -3 -10   7   83.83    2.14
  -3 -10   7   84.87    2.35
   3  10  -7   79.27    2.09
  -3  10   7   83.37    2.08
  -2 -10   7   78.36    2.08
  -2 -10   7   79.01    2.06
  -2 -10   7   75.95    2.22
  -2 -10   7   78.11    2.28
   2  10  -7   77.84    2.02
  -2  10   7   77.12    2.03
  -1 -10   7   56.33    1.60
  -1 -10   7   55.12    1.77
  -1 -10   7   55.88    1.77
  -1 -10   7   52.65    1.55
  -1  10   7   53.96    1.55
  -1  10   7   55.80    1.55
   1  10  -7   55.03    1.52
   0 -10   7   48.37    1.59
   0 -10   7   50.04    1.43
   0 -10   7   51.11    1.57
   0  10   7   48.01    1.42
   0  10  -7   46.88    1.29
   0  10   7   46.18    1.35
   1 -10   7    0.81    0.17
   1 -10   7    1.00    0.22
   1 -10   7    0.79    0.14
   1 -10   7    0.78    0.14
   1 -10   7    0.49    0.18
   1 -10   7    0.78    0.13
  -1  10  -7    0.60    0.17
  -1  10  -7    0.87    0.18
   1  10   7    0.86    0.18
   1  10   7    0.79    0.19
   2 -10   7    2.76    0.26
   2 -10   7    3.22    0.31
  -2 -10  -7    3.26    0.23
   2 -10   7    3.05    0.26
   2 -10   7    3.07    0.29
  -2 -10  -7    3.30    0.32
  -2  10  -7    2.80    0.26
  -2  10  -7    3.01    0.26
   2  10   7    2.92    0.28
   2  10   7    3.11    0.25
   3 -10   7    0.80    0.15
   3 -10   7    0.64    0.14
   3 -10   7    0.90    0.18
  -3  10  -7    0.72    0.16
  -3  10  -7    0.56    0.12
  -5 -11   7    0.35    0.11
  -5 -11   7    0.11    0.11
  -4 -11   7    0.14    0.11
  -4 -11   7    0.20    0.14
  -4  11   7    0.35    0.16
   4  11  -7    0.28    0.12
  -4  11   7    0.54    0.12
  -3 -11   7    0.83    0.18
  -3 -11   7    0.86    0.23
  -3 -11   7    1.11    0.20
   3  11  -7    0.95    0.18
  -3  11   7    0.96    0.19
  -2 -11   7    0.10    0.12
  -2 -11   7    0.16    0.16
  -2 -11   7    0.19    0.14
  -2  11   7   -0.03    0.09
   2  11  -7    0.08    0.11
  -2  11   7    0.01    0.12
  -1 -11   7    7.29    0.54
  -1 -11   7    7.32    0.45
  -1 -11   7    8.27    0.54
  -1  11   7    7.37    0.44
   1  11  -7    7.45    0.41
  -1  11   7    7.93    0.45
   0 -11   7    0.64    0.20
   0 -11   7    0.76    0.18
   0 -11   7    0.56    0.20
   0  11  -7    0.63    0.13
   0  11  -7    0.70    0.21
   0  11   7    0.68    0.18
   0  11   7    0.54    0.15
   1 -11   7    0.17    0.13
   1 -11   7    0.09    0.14
   1 -11   7    0.23    0.12
   1  11   7    0.30    0.13
  -1  11  -7    0.26    0.13
  -1  11  -7    0.14    0.12
  -1  11  -7    0.22    0.11
   2 -11   7    8.34    0.45
   2 -11   7    8.15    0.44
   2 -11   7    8.61    0.35
  -2 -11  -7    8.82    0.48
  -2 -11  -7    8.24    0.29
   2 -11   7    8.81    0.36
   2  11   7    7.58    0.36
  -2  11  -7    7.56    0.39
  -2  11  -7    7.99    0.39
   2  11   7    8.14    0.37
   3 -11   7    1.03    0.17
  -5 -12   7   17.37    0.57
  -4 -12   7    7.87    0.46
  -4 -12   7    8.26    0.40
  -4  12   7    8.56    0.37
   4  12  -7    8.92    0.40
  -4  12   7    8.38    0.48
  -3 -12   7   20.48    0.73
  -3 -12   7   19.55    0.84
  -3 -12   7   18.82    0.70
  -3  12   7   19.39    0.69
   3  12  -7   20.30    0.70
  -2 -12   7   54.01    1.53
  -2 -12   7   52.34    1.49
  -2 -12   7   53.80    1.69
  -2  12   7   54.00    1.50
   2  12  -7   54.53    1.48
  -1 -12   7    4.72    0.43
  -1 -12   7    4.86    0.37
   1  12  -7    4.60    0.30
   1  12  -7    3.62    0.45
  -1  12   7    4.79    0.34
  -1  12   7    4.27    0.33
   0 -12   7   11.22    0.60
   0 -12   7   10.76    0.62
   0 -12   7    9.56    0.49
   0  12   7   10.19    0.50
   0  12  -7    9.90    0.49
   1 -12   7    3.29    0.38
   1 -12   7    2.62    0.31
   1  12   7    3.18    0.31
  -1  12  -7    3.29    0.32
   2 -12   7    3.01    0.27
   2 -12   7    2.56    0.25
  -2  12  -7    2.25    0.22
  -2  12  -7    2.71    0.23
   2  12   7    2.40    0.20
  -4 -13   7    0.28    0.10
  -4 -13   7    0.39    0.12
  -4 -13   7    0.22    0.13
  -4  13   7    0.29    0.10
  -4  13   7    0.31    0.13
   4  13  -7    0.29    0.11
  -3 -13   7    0.66    0.18
  -3 -13   7    0.66    0.16
  -3 -13   7    0.50    0.14
  -3  13   7    0.59    0.15
   3  13  -7    0.67    0.14
  -2 -13   7   17.91    0.79
  -2 -13   7   16.17    0.63
  -2 -13   7   17.14    0.68
   2  13  -7   17.58    0.63
  -2  13   7   17.09    0.64
  -1 -13   7   28.03    1.03
  -1 -13   7   28.30    0.92
   1  13  -7   26.46    0.81
  -1  13   7   27.77    0.90
  -1  13   7   26.37    0.87
   1  13  -7   26.47    0.90
   0 -13   7   16.93    0.65
   0 -13   7   18.41    0.78
   0  13  -7   17.68    0.73
   0  13  -7   18.11    0.67
   0  13   7   18.12    0.68
   1 -13   7   40.55    1.23
   1  13   7   39.57    1.13
  -1  13  -7   40.22    1.15
   2 -13   7   12.26    0.50
  -2  13  -7   12.00    0.56
  -2  13  -7   11.61    0.46
  -4 -14   7    5.31    0.29
   4  14  -7    5.72    0.32
  -4  14   7    5.37    0.26
  -3 -14   7    5.40    0.31
  -3 -14   7    5.96    0.34
  -3 -14   7    5.40    0.37
   3  14  -7    5.84    0.32
  -3  14   7    5.66    0.31
  -2 -14   7    5.19    0.34
  -2 -14   7    6.02    0.41
  -2  14   7    5.20    0.32
   2  14  -7    5.08    0.30
   2  14  -7    4.99    0.33
  -2  14   7    5.72    0.33
  -1 -14   7    2.12    0.29
  -1 -14   7    1.49    0.21
   1  14  -7    1.92    0.17
  -1  14   7    2.02    0.25
   1  14  -7    2.16    0.25
  -1  14   7    1.42    0.21
   0 -14   7    0.77    0.16
   0 -14   7    0.68    0.17
   0  14  -7    0.81    0.16
   0  14   7    0.81    0.16
   0  14  -7    0.97    0.18
   1 -14   7   10.87    0.49
  -1 -14  -7    8.79    0.42
   1  14   7    9.86    0.41
  -1  14  -7    9.48    0.42
  -3 -15   7    0.44    0.13
  -3 -15   7    0.26    0.12
  -3 -15   7    0.39    0.13
   3  15  -7    0.38    0.10
  -3  15   7    0.42    0.12
  -2 -15   7    0.90    0.18
  -2 -15   7    0.92    0.16
   2  15  -7    0.98    0.14
  -2  15   7    0.91    0.15
  -2  15   7    0.83    0.16
   2  15  -7    0.84    0.16
  -1 -15   7    2.79    0.31
  -1 -15   7    3.12    0.25
  -1  15   7    3.23    0.25
   1  15  -7    2.74    0.24
  -1  15   7    2.89    0.23
   0 -15   7    0.16    0.09
   0 -15   7    0.05    0.10
   0  15   7    0.04    0.09
   0  15  -7   -0.03    0.08
   1 -15   7    0.10    0.10
  -1  15  -7    0.22    0.15
   1  15   7    0.05    0.10
  -2 -16   7    1.66    0.20
  -2 -16   7    1.79    0.31
  -2  16   7    1.94    0.21
  -1 -16   7    2.57    0.21
  -1 -16   7    2.58    0.25
   1  16  -7    2.31    0.27
  -1  16   7    2.40    0.23
   1  16  -7    2.45    0.21
  -1  16   7    2.39    0.20
   0 -16   7    2.49    0.23
   0  16  -7    2.41    0.33
   0  16   7    2.60    0.21
  -6   0   8   -0.01    0.13
  -5   0   8   20.47    0.84
  -5   0   8   19.84    0.76
  -4   0   8   56.96    1.48
  -4   0   8   52.41    1.57
  -4   0   8   55.88    1.72
  -3   0   8   64.49    2.00
  -3   0   8   67.38    1.77
  -2   0   8  241.28    5.41
   2   0  -8  233.09    5.36
  -2   0   8  235.37    5.38
  -2   0   8  236.59    5.66
  -1   0   8   91.44    2.36
  -1   0   8   91.13    2.53
   1   0  -8   93.09    2.33
  -1   0   8   94.77    2.37
   0   0   8   53.03    1.62
   0   0   8   49.99    1.45
   0   0   8   52.02    1.35
   0   0  -8   52.36    1.43
   0   0   8   53.71    1.50
   1   0   8  103.12    2.70
  -1   0  -8  104.88    2.44
   1   0   8  109.55    2.60
   1   0   8  102.54    2.52
   2   0   8    1.63    0.20
  -2   0  -8    1.08    0.23
   2   0   8    1.35    0.22
  -3   0  -8    0.57    0.11
  -3   0  -8    0.71    0.17
  -6  -1   8    3.26    0.30
  -5  -1   8   22.18    0.87
  -5  -1   8   20.61    0.62
  -5  -1   8   20.84    0.79
  -5   1   8   19.99    0.83
  -4  -1   8    1.76    0.23
  -4  -1   8    1.98    0.35
  -4  -1   8    1.52    0.24
  -4   1   8    1.96    0.34
  -4   1   8    1.75    0.23
  -3  -1   8    4.80    0.45
  -3  -1   8    4.01    0.36
  -3  -1   8    4.63    0.34
  -3   1   8    4.82    0.42
  -3   1   8    4.33    0.32
  -2  -1   8    0.62    0.18
  -2  -1   8    1.07    0.22
   2  -1  -8    1.05    0.20
  -2  -1   8    0.76    0.24
  -2   1   8    1.05    0.26
  -2   1   8    0.71    0.18
   2   1  -8    0.68    0.18
  -2   1   8    0.85    0.20
  -1  -1   8    6.75    0.23
  -1  -1   8    6.45    0.50
  -1  -1   8    6.64    0.41
  -1  -1   8    6.19    0.41
  -1  -1   8    6.54    0.23
   1  -1  -8    6.08    0.39
   1   1  -8    6.05    0.38
  -1   1   8    6.70    0.42
  -1   1   8    6.68    0.49
  -1   1   8    6.74    0.41
   0  -1   8   32.35    1.18
   0  -1   8   34.12    1.08
   0  -1   8   33.85    0.96
   0  -1  -8   33.44    1.01
   0   1   8   32.68    1.06
   0   1   8   30.78    1.01
   0   1  -8   34.42    1.02
   0   1   8   33.72    0.94
   0   1   8   32.96    1.16
   1  -1   8   43.89    1.26
   1  -1   8   42.58    1.38
   1  -1   8   41.63    1.19
   1   1   8   43.30    1.34
   1   1   8   44.23    1.27
  -1   1  -8   43.73    1.13
   1   1   8   43.84    1.20
   2  -1   8   52.97    1.37
  -2  -1  -8   52.40    1.56
   2  -1   8   52.18    1.50
  -2   1  -8   50.65    1.53
   2   1   8   53.20    1.37
  -2   1  -8   52.88    1.56
  -3  -1  -8    9.31    0.46
  -3  -1  -8    9.76    0.36
  -3   1  -8    9.28    0.36
  -5  -2   8    0.05    0.14
  -5  -2   8   -0.01    0.07
  -5  -2   8   -0.05    0.07
  -5  -2   8    0.04    0.12
  -5  -2   8    0.11    0.08
  -5   2   8    0.01    0.12
  -4  -2   8    0.09    0.13
  -4  -2   8    0.11    0.14
  -4  -2   8    0.07    0.11
  -4   2   8    0.20    0.11
  -4   2   8    0.25    0.16
  -3  -2   8    0.10    0.18
  -3  -2   8    0.17    0.13
  -3  -2   8    0.05    0.11
  -3   2   8    0.00    0.09
  -3   2   8    0.02    0.13
   2  -2  -8    2.34    0.28
  -2  -2   8    1.73    0.33
  -2  -2   8    1.70    0.26
  -2  -2   8    1.78    0.27
  -2  -2   8    1.79    0.25
  -2   2   8    1.81    0.26
  -2   2   8    1.83    0.31
   2   2  -8    1.72    0.23
  -2   2   8    1.61    0.24
  -1  -2   8    0.65    0.18
   1  -2  -8    0.71    0.15
  -1  -2   8    0.34    0.19
  -1  -2   8    0.83    0.11
  -1  -2   8    1.20    0.23
  -1  -2   8    0.95    0.11
   1   2  -8    0.88    0.17
  -1   2   8    1.02    0.24
  -1   2   8    0.90    0.22
  -1   2   8    1.07    0.22
   0  -2  -8    2.06    0.23
   0  -2   8    1.77    0.26
   0  -2   8    2.29    0.24
   0  -2   8    2.32    0.35
   0   2  -8    2.21    0.24
   0   2   8    2.03    0.25
   0   2   8    2.22    0.31
   0   2   8    2.07    0.27
   0   2   8    2.94    0.26
   1  -2   8    1.80    0.24
   1  -2   8    1.81    0.30
   1  -2   8    2.01    0.25
   1   2   8    1.40    0.21
   1   2   8    1.50    0.23
  -1   2  -8    1.74    0.18
  -2  -2  -8    1.72    0.29
  -2  -2  -8    1.16    0.14
  -2  -2  -8    1.60    0.17
   2  -2   8    1.78    0.27
   2   2   8    1.69    0.21
  -2   2  -8    2.09    0.31
  -2   2  -8    1.46    0.19
   3  -2   8    0.96    0.16
  -3  -2  -8    0.78    0.18
  -3  -2  -8    0.89    0.13
  -3   2  -8    0.87    0.18
  -3   2  -8    1.09    0.15
  -5  -3   8   24.22    0.77
  -5  -3   8   23.44    0.88
  -5  -3   8   23.25    0.77
  -5  -3   8   24.26    0.93
  -5  -3   8   25.89    0.74
  -5   3   8   23.76    0.89
  -4  -3   8    2.01    0.30
  -4  -3   8    1.95    0.32
  -4  -3   8    2.43    0.27
  -4   3   8    2.38    0.33
  -4   3   8    2.08    0.24
  -3  -3   8   15.47    0.65
  -3  -3   8   14.63    0.80
  -3  -3   8   15.94    0.74
  -3   3   8   15.98    0.76
  -3   3   8   16.69    0.64
   2  -3  -8   11.34    0.54
  -2  -3   8   11.90    0.57
  -2  -3   8   12.19    0.56
  -2  -3   8   11.08    0.68
  -2  -3   8   11.24    0.58
  -2   3   8   11.99    0.54
  -2   3   8   11.99    0.63
  -2   3   8   11.40    0.54
   2   3  -8   12.00    0.54
  -1  -3   8    0.28    0.14
  -1  -3   8    0.75    0.19
  -1  -3   8    0.53    0.22
   1  -3  -8    0.58    0.15
  -1  -3   8    0.64    0.18
  -1   3   8    0.30    0.14
  -1   3   8    0.46    0.16
   1   3  -8    0.79    0.18
   0  -3   8    1.80    0.23
   0  -3  -8    1.75    0.22
   0  -3   8    2.00    0.29
   0  -3   8    1.88    0.34
   0   3   8    1.79    0.25
   0   3  -8    1.56    0.21
   0   3   8    1.76    0.20
   0   3   8    1.26    0.23
   1  -3   8   16.77    0.76
   1  -3   8   16.10    0.62
   1  -3   8   16.13    0.64
   1   3   8   16.57    0.65
   1   3   8   16.92    0.60
  -1   3  -8   16.69    0.52
   2  -3   8   15.34    0.64
  -2  -3  -8   14.86    0.47
  -2  -3  -8   13.76    0.48
   2   3   8   14.16    0.53
  -2   3  -8   14.75    0.53
  -2   3  -8   13.17    0.64
   3  -3   8    0.32    0.11
  -3  -3  -8    0.39    0.14
  -3   3  -8    0.34    0.10
  -3   3  -8    0.26    0.12
  -5  -4   8    4.10    0.30
  -5  -4   8    5.31    0.40
  -5  -4   8    5.07    0.28
  -5  -4   8    4.68    0.30
  -5  -4   8    4.72    0.37
  -5   4   8    4.72    0.36
  -4  -4   8    0.14    0.14
  -4  -4   8   -0.07    0.09
  -4  -4   8    0.03    0.13
  -4   4   8    0.18    0.16
  -4   4   8    0.03    0.09
  -3  -4   8    0.98    0.20
  -3  -4   8    0.59    0.19
  -3  -4   8    0.68    0.24
  -3   4   8    1.16    0.25
  -3   4   8    0.82    0.18
  -2  -4   8   38.46    1.27
   2  -4  -8   37.29    1.14
  -2  -4   8   38.26    1.40
  -2  -4   8   39.12    1.18
  -2  -4   8   37.79    1.17
  -2   4   8   36.56    1.13
   2   4  -8   38.34    1.15
  -2   4   8   36.87    1.15
   1  -4  -8    0.20    0.09
  -1  -4   8    0.25    0.12
  -1  -4   8    0.31    0.09
  -1  -4   8    0.18    0.16
  -1  -4   8    0.27    0.14
  -1  -4   8    1.02    0.21
  -1   4   8    0.18    0.12
  -1   4   8    0.27    0.13
   1   4  -8    0.23    0.12
   0  -4  -8    0.12    0.09
   0  -4   8    0.18    0.13
   0  -4   8    0.27    0.13
   0  -4   8    0.19    0.12
   0  -4   8    0.33    0.18
   0   4  -8    0.20    0.10
   0   4   8    0.30    0.13
   0   4   8    0.30    0.14
   0   4   8    0.18    0.11
   1  -4   8   10.33    0.58
   1  -4   8   10.24    0.48
   1  -4   8    9.69    0.46
   1   4   8   10.21    0.49
   1   4   8   10.43    0.45
  -2  -4  -8   11.39    0.40
   2  -4   8   12.76    0.58
  -2  -4  -8   11.09    0.57
  -2  -4  -8   11.80    0.40
   2   4   8   12.23    0.47
  -2   4  -8   11.77    0.46
  -2   4  -8   12.19    0.59
   2   4   8   10.91    0.51
   3  -4   8    4.13    0.28
  -3   4  -8    3.84    0.29
  -5  -5   8   10.17    0.49
  -5  -5   8   10.85    0.56
  -5  -5   8   11.42    0.43
  -5  -5   8   10.91    0.49
  -5  -5   8   11.27    0.56
  -5   5   8   10.03    0.51
  -4  -5   8    6.85    0.47
  -4  -5   8    6.23    0.48
  -4  -5   8    7.11    0.38
  -4   5   8    6.39    0.34
  -3  -5   8    3.30    0.30
  -3  -5   8    2.23    0.33
  -3  -5   8    3.15    0.42
  -3   5   8    3.40    0.27
  -2  -5   8    9.87    0.64
  -2  -5   8    8.87    0.49
  -2  -5   8    9.45    0.56
  -2  -5   8    9.35    0.50
   2  -5  -8    8.71    0.44
   2   5  -8    9.89    0.48
  -2   5   8   10.32    0.49
  -2   5   8    8.77    0.45
  -1  -5   8    0.25    0.14
  -1  -5   8    0.21    0.09
  -1  -5   8    0.29    0.15
  -1  -5   8    0.26    0.18
   1  -5  -8    0.10    0.10
  -1  -5   8    0.22    0.13
  -1   5   8    0.12    0.12
  -1   5   8    0.37    0.15
   1   5  -8    0.28    0.13
   0  -5   8    4.01    0.39
   0  -5   8    3.39    0.27
   0  -5  -8    3.46    0.26
   0  -5   8    2.80    0.33
   0  -5   8    4.24    0.34
   0   5   8    3.21    0.27
   0   5  -8    3.39    0.26
   0   5   8    3.50    0.30
   0   5   8    3.27    0.22
   1  -5   8    8.42    0.44
   1  -5   8    8.15    0.43
   1  -5   8    8.57    0.53
   1  -5   8    8.77    0.46
   1   5   8    9.16    0.41
   1   5   8    9.17    0.45
  -1   5  -8    8.89    0.55
  -2  -5  -8    5.19    0.22
  -2  -5  -8    5.05    0.23
  -2  -5  -8    4.52    0.35
   2  -5   8    4.84    0.35
  -2   5  -8    4.40    0.27
  -2   5  -8    4.60    0.36
   2   5   8    4.73    0.28
   2   5   8    4.85    0.29
   3  -5   8    1.39    0.19
  -5  -6   8    0.04    0.12
  -5  -6   8    0.06    0.09
  -5  -6   8    0.05    0.09
  -5  -6   8    0.26    0.14
  -4  -6   8    0.09    0.13
  -4  -6   8    0.12    0.10
  -4  -6   8    0.09    0.12
  -4   6   8    0.13    0.09
  -3  -6   8    0.70    0.21
  -3  -6   8    0.78    0.18
  -3  -6   8    0.77    0.24
  -3   6   8    1.06    0.19
   3   6  -8    1.21    0.21
  -2  -6   8    1.56    0.28
   2  -6  -8    2.00    0.24
  -2  -6   8    1.84    0.34
  -2  -6   8    1.79    0.26
  -2  -6   8    2.53    0.31
  -2   6   8    1.29    0.21
  -2   6   8    2.16    0.28
   2   6  -8    1.98    0.25
  -1  -6   8    0.25    0.13
   1  -6  -8    0.30    0.12
  -1  -6   8    0.23    0.17
  -1  -6   8    0.13    0.08
  -1  -6   8    0.01    0.11
  -1  -6   8    0.17    0.14
  -1   6   8    0.20    0.12
   1   6  -8   -0.01    0.09
  -1   6   8    0.12    0.13
   0  -6   8    0.17    0.14
   0  -6   8    0.15    0.12
   0  -6   8    0.16    0.12
   0  -6   8    0.16    0.11
   0   6   8    0.09    0.09
   0   6  -8   -0.04    0.07
   0   6   8    0.05    0.10
   0   6   8    0.12    0.11
   1  -6   8    0.00    0.13
   1  -6   8    0.10    0.11
   1  -6   8    0.11    0.11
   1  -6   8   -0.05    0.12
   1   6   8    0.13    0.11
   1   6   8    0.09    0.11
  -1   6  -8    0.10    0.12
  -1   6  -8    0.02    0.11
  -2  -6  -8    2.44    0.31
   2  -6   8    2.16    0.28
   2   6   8    1.86    0.19
   2   6   8    1.89    0.21
  -2   6  -8    2.07    0.32
  -2   6  -8    2.12    0.30
  -5  -7   8   42.58    1.09
  -5  -7   8   40.31    1.23
  -5  -7   8   39.40    1.19
  -5  -7   8   39.71    1.21
  -4  -7   8    9.85    0.56
  -4  -7   8    9.27    0.55
  -4  -7   8    9.74    0.45
  -4   7   8    9.57    0.41
  -3  -7   8   24.49    0.99
  -3  -7   8   23.03    1.01
  -3  -7   8   25.35    0.85
  -3   7   8   24.09    0.80
   3   7  -8   24.37    0.83
  -2  -7   8   17.19    0.86
  -2  -7   8   18.15    0.71
  -2  -7   8   16.27    0.78
   2  -7  -8   17.23    0.65
  -2  -7   8   18.14    0.71
  -2   7   8   18.64    0.69
   2   7  -8   18.00    0.69
  -1  -7   8    2.54    0.17
  -1  -7   8    2.74    0.40
  -1  -7   8    2.23    0.27
  -1  -7   8    2.83    0.34
  -1  -7   8    2.94    0.34
   1  -7  -8    2.92    0.25
   1   7  -8    3.13    0.27
  -1   7   8    2.58    0.29
  -1   7   8    2.82    0.31
   0  -7   8    1.32    0.23
   0  -7   8    0.79    0.16
   0  -7   8    1.33    0.27
   0  -7   8    0.94    0.19
   0   7   8    0.96    0.21
   0   7   8    0.88    0.18
   0   7  -8    0.71    0.14
   1  -7   8   32.53    0.98
   1  -7   8   32.64    1.05
   1  -7   8   33.54    1.15
   1  -7   8   33.59    0.97
   1   7   8   32.01    0.99
  -1   7  -8   32.34    0.99
   1   7   8   33.81    0.91
   2  -7   8   22.38    0.73
  -2  -7  -8   21.81    0.80
   2  -7   8   23.20    0.81
   2   7   8   22.68    0.67
   2   7   8   22.15    0.66
  -2   7  -8   21.24    0.82
  -5  -8   8    0.64    0.17
  -5  -8   8    0.56    0.12
  -4  -8   8    5.04    0.39
  -4  -8   8    5.50    0.33
  -4  -8   8    5.90    0.43
  -4   8   8    5.82    0.30
  -3  -8   8    2.04    0.32
  -3  -8   8    1.99    0.34
  -3  -8   8    1.67    0.24
  -3  -8   8    1.48    0.22
   3   8  -8    1.67    0.23
  -3   8   8    2.00    0.25
  -2  -8   8   58.33    1.77
  -2  -8   8   57.74    1.61
  -2  -8   8   57.56    1.60
  -2  -8   8   60.03    1.85
   2  -8  -8   58.64    1.54
   2   8  -8   58.53    1.59
  -2   8   8   58.67    1.58
  -1  -8   8    8.24    0.51
  -1  -8   8    8.48    0.28
  -1  -8   8    8.75    0.46
  -1  -8   8    8.64    0.48
  -1  -8   8    9.05    0.58
  -1   8   8    8.29    0.44
  -1   8   8    8.65    0.45
   1   8  -8    8.69    0.43
   0  -8   8    4.99    0.39
   0  -8   8    4.96    0.31
   0  -8   8    5.37    0.43
   0  -8   8    4.81    0.34
   0   8  -8    4.74    0.27
   0   8   8    5.14    0.35
   1  -8   8   22.55    0.81
   1  -8   8   22.73    0.73
   1  -8   8   22.21    0.72
   1  -8   8   23.65    0.89
  -1   8  -8   21.26    0.69
   1   8   8   22.26    0.65
   1   8   8   22.81    0.75
   2  -8   8    0.39    0.12
   2  -8   8    0.41    0.14
   2   8   8    0.48    0.13
  -2   8  -8    0.52    0.16
   2   8   8    0.47    0.12
  -5  -9   8    0.15    0.16
  -4  -9   8    1.20    0.18
  -4  -9   8    1.08    0.23
  -4  -9   8    0.99    0.21
   4   9  -8    1.04    0.17
  -4   9   8    1.39    0.18
  -3  -9   8    0.28    0.16
  -3  -9   8    0.01    0.10
  -3  -9   8   -0.09    0.08
  -3  -9   8    0.00    0.13
   3   9  -8    0.06    0.10
  -3   9   8    0.05    0.10
  -2  -9   8    3.55    0.31
  -2  -9   8    4.03    0.47
  -2  -9   8    3.92    0.43
  -2  -9   8    3.78    0.31
  -2   9   8    3.68    0.30
   2   9  -8    3.90    0.30
  -1  -9   8    3.14    0.42
  -1  -9   8    3.14    0.37
  -1  -9   8    2.94    0.32
  -1   9   8    3.54    0.28
  -1   9   8    3.38    0.29
   1   9  -8    3.22    0.26
   0  -9   8    0.43    0.16
   0  -9   8    0.39    0.14
   0  -9   8    0.49    0.19
   0  -9   8    0.68    0.15
   0   9   8    0.52    0.15
   0   9  -8    0.44    0.09
   1  -9   8    0.22    0.11
   1  -9   8    0.21    0.12
   1  -9   8    0.32    0.13
   1  -9   8    0.23    0.14
   1   9   8    0.17    0.11
  -1   9  -8    0.10    0.07
  -1   9  -8    0.16    0.08
   2  -9   8    0.40    0.11
   2  -9   8    0.51    0.14
   2   9   8    0.50    0.10
  -4 -10   8   10.58    0.54
  -4 -10   8   10.58    0.44
   4  10  -8   10.94    0.44
  -4  10   8   10.85    0.41
  -3 -10   8    5.78    0.41
  -3 -10   8    5.13    0.33
  -3 -10   8    5.91    0.34
  -3 -10   8    6.00    0.44
   3  10  -8    5.81    0.34
  -3  10   8    5.91    0.33
  -2 -10   8   26.81    0.90
  -2 -10   8   28.48    1.06
  -2 -10   8   28.48    0.93
  -2 -10   8   30.06    1.07
   2  10  -8   29.27    0.90
  -2  10   8   28.98    0.91
  -1 -10   8   17.99    0.77
  -1 -10   8   17.23    0.69
  -1 -10   8   18.27    0.81
  -1  10   8   18.09    0.66
   1  10  -8   18.86    0.63
  -1  10   8   18.15    0.67
   0 -10   8    7.85    0.47
   0 -10   8    7.66    0.40
   0 -10   8    7.34    0.34
   0 -10   8    8.11    0.49
   0  10   8    8.50    0.42
   1 -10   8    9.40    0.45
   1 -10   8    7.53    0.45
   1 -10   8    9.21    0.48
   1 -10   8    8.46    0.37
   1  10   8    8.35    0.38
   2 -10   8    0.51    0.14
  -4 -11   8    1.77    0.20
  -4 -11   8    1.51    0.23
  -4  11   8    1.88    0.17
  -3 -11   8    3.46    0.26
  -3 -11   8    3.53    0.26
  -3 -11   8    4.27    0.36
  -3  11   8    3.77    0.26
   3  11  -8    3.76    0.27
  -2 -11   8    1.31    0.24
  -2 -11   8    1.46    0.20
  -2 -11   8    1.59    0.22
  -2  11   8    1.11    0.19
   2  11  -8    1.08    0.16
  -1 -11   8   16.31    0.63
  -1 -11   8   15.76    0.69
  -1 -11   8   16.42    0.71
  -1  11   8   15.59    0.58
  -1  11   8   15.31    0.59
   1  11  -8   15.51    0.54
   0 -11   8   11.18    0.55
   0 -11   8   12.02    0.41
   0 -11   8   11.50    0.48
   0 -11   8   12.17    0.56
   0  11  -8   10.73    0.51
   0  11   8   11.73    0.48
   1 -11   8   46.21    1.18
   1 -11   8   45.85    1.32
   1 -11   8   48.43    1.32
  -1 -11  -8   45.14    1.24
   1  11   8   48.99    1.23
  -3 -12   8   20.49    0.77
  -3 -12   8   18.12    0.63
  -3 -12   8   19.26    0.65
   3  12  -8   18.93    0.62
  -3  12   8   20.97    0.64
  -2 -12   8   51.44    1.38
  -2 -12   8   52.04    1.50
  -2  12   8   50.28    1.34
   2  12  -8   51.83    1.32
  -1 -12   8   25.74    0.92
  -1 -12   8   26.90    0.83
  -1  12   8   26.44    0.81
  -1  12   8   24.54    0.77
   1  12  -8   24.83    0.71
   0 -12   8    9.22    0.52
   0 -12   8    9.86    0.42
   0 -12   8   10.08    0.49
   0 -12   8   10.33    0.33
   0  12  -8    9.77    0.41
   0  12   8   10.01    0.43
   1 -12   8   18.34    0.54
   1 -12   8   18.68    0.66
   1  12   8   18.40    0.57
  -3 -13   8    0.37    0.13
  -3 -13   8    0.24    0.10
   3  13  -8    0.15    0.08
  -3  13   8    0.38    0.11
  -2 -13   8    0.34    0.14
  -2 -13   8    0.58    0.13
   2  13  -8    0.43    0.09
  -2  13   8    0.41    0.11
  -2  13   8    0.32    0.11
  -1 -13   8    0.80    0.17
  -1 -13   8    1.02    0.16
  -1  13   8    1.06    0.16
  -1  13   8    0.94    0.15
   0 -13   8   15.51    0.59
   0 -13   8   14.01    0.49
   0  13   8   15.69    0.53
  -2 -14   8    8.59    0.37
  -2 -14   8    9.18    0.44
  -2  14   8    8.08    0.34
  -1 -14   8    5.08    0.32
  -1 -14   8    4.96    0.27
  -1  14   8    4.63    0.26
  -5   0   9    0.05    0.12
  -4   0   9   -0.06    0.11
  -4   0   9    0.09    0.08
  -3   0   9   -0.03    0.08
  -3   0   9    0.23    0.14
  -2   0   9    0.00    0.10
   2   0  -9    0.17    0.10
  -2   0   9    0.13    0.13
  -2   0   9    0.14    0.11
  -1   0   9    0.11    0.10
  -1   0   9    0.11    0.12
   1   0  -9    0.07    0.09
  -1   0   9   -0.01    0.09
   0   0  -9    0.05    0.07
   0   0   9   -0.04    0.11
   0   0   9    0.06    0.10
   1   0   9    0.03    0.10
  -1   0  -9   -0.04    0.09
   1   0   9    0.07    0.09
   1   0   9    0.05    0.08
   2   0   9    0.10    0.09
  -5  -1   9    5.46    0.36
  -4  -1   9    7.37    0.34
  -4  -1   9    6.99    0.46
  -4   1   9    7.10    0.34
  -4   1   9    6.35    0.41
  -3  -1   9    2.43    0.23
  -3  -1   9    2.40    0.34
  -3   1   9    2.22    0.25
  -3   1   9    1.92    0.29
   2  -1  -9   20.30    0.70
  -2  -1   9   21.27    0.75
  -2  -1   9   20.46    0.73
  -2  -1   9   21.84    0.88
   2   1  -9   21.40    0.73
  -2   1   9   20.17    0.83
  -2   1   9   20.94    0.72
  -2   1   9   21.27    0.74
  -1  -1   9    1.80    0.23
  -1  -1   9    1.55    0.22
  -1  -1   9    1.82    0.29
   1  -1  -9    1.94    0.22
  -1   1   9    2.00    0.24
   1   1  -9    1.88    0.21
  -1   1   9    2.23    0.31
  -1   1   9    1.97    0.24
   0  -1   9    0.23    0.13
   0  -1  -9    0.40    0.10
   0  -1   9    0.11    0.10
   0   1   9    0.29    0.13
   0   1   9    0.14    0.11
   0   1  -9    0.20    0.08
  -1  -1  -9    2.69    0.24
   1  -1   9    2.45    0.22
   1  -1   9    2.40    0.18
   1  -1   9    2.47    0.25
  -1   1  -9    2.73    0.24
   1   1   9    2.43    0.22
   1   1   9    2.82    0.17
   2   1   9   10.42    0.37
  -4  -2   9    5.36    0.30
  -4  -2   9    5.27    0.40
  -4   2   9    4.87    0.27
  -4   2   9    4.52    0.35
  -3  -2   9    0.23    0.12
  -3  -2   9    0.11    0.13
   3   2  -9    0.02    0.09
  -3   2   9    0.27    0.11
  -3   2   9    0.21    0.12
  -2  -2   9   14.20    0.70
  -2  -2   9   14.31    0.58
  -2  -2   9   14.57    0.57
   2  -2  -9   14.25    0.55
   2   2  -9   13.87    0.56
  -2   2   9   13.22    0.64
  -2   2   9   14.19    0.56
  -2   2   9   13.40    0.55
   1  -2  -9   73.51    1.83
  -1  -2   9   76.61    2.05
  -1  -2   9   75.29    1.90
  -1  -2   9   71.27    1.86
   1   2  -9   74.11    1.84
  -1   2   9   60.22    2.17
  -1   2   9   73.09    1.86
  -1   2   9   79.34    1.90
   0  -2   9   20.84    0.73
   0  -2  -9   21.59    0.66
   0   2  -9   21.01    0.65
   0   2   9   21.42    0.73
   1  -2   9   74.50    1.69
  -1  -2  -9   71.27    1.82
   1  -2   9   72.51    1.78
   1  -2   9   71.40    1.89
   1   2   9   72.07    1.78
   1   2   9   73.99    1.65
  -1   2  -9   71.22    1.77
   2   2   9   11.99    0.43
  -4  -3   9    7.62    0.48
  -4  -3   9    7.93    0.36
  -4  -3   9    6.83    0.39
  -4   3   9    8.13    0.34
  -4   3   9    6.46    0.39
  -3  -3   9    4.64    0.33
  -3  -3   9    4.61    0.40
  -3  -3   9    5.08    0.32
  -3   3   9    4.35    0.34
  -3   3   9    4.86    0.30
   3   3  -9    5.19    0.31
  -2  -3   9    7.23    0.50
   2  -3  -9    7.41    0.36
  -2  -3   9    7.31    0.40
  -2  -3   9    7.01    0.39
  -2   3   9    7.41    0.38
  -2   3   9    6.75    0.37
   2   3  -9    7.11    0.38
  -1  -3   9    1.26    0.20
  -1  -3   9    1.31    0.21
  -1  -3   9    1.16    0.24
   1  -3  -9    1.31    0.18
  -1   3   9    1.08    0.18
   1   3  -9    1.33    0.18
  -1   3   9    1.35    0.20
   0  -3   9    0.73    0.19
   0  -3   9    0.87    0.16
   0   3  -9    0.44    0.10
   0   3   9    0.37    0.12
   1  -3   9    7.35    0.42
  -1  -3  -9    6.85    0.38
   1  -3   9    7.57    0.29
   1  -3   9    6.99    0.34
  -1   3  -9    7.57    0.34
   1   3   9    7.43    0.26
   1   3   9    7.12    0.35
  -4  -4   9    0.12    0.08
  -4  -4   9    0.03    0.10
  -4  -4   9    0.04    0.13
  -4   4   9    0.10    0.08
  -3  -4   9    1.24    0.19
  -3  -4   9    1.73    0.29
  -3  -4   9    1.56    0.23
  -3   4   9    1.37    0.19
   3   4  -9    1.34    0.19
  -2  -4   9    0.21    0.15
  -2  -4   9    0.32    0.13
  -2  -4   9    0.08    0.10
   2  -4  -9    0.08    0.09
  -2  -4   9    0.09    0.11
  -2   4   9    0.13    0.10
  -2   4   9    0.12    0.09
   2   4  -9    0.22    0.11
   1  -4  -9    2.31    0.23
  -1  -4   9    2.65    0.35
  -1  -4   9    2.30    0.22
  -1  -4   9    2.06    0.26
   1   4  -9    2.46    0.22
  -1   4   9    2.25    0.26
  -1   4   9    2.42    0.27
   0  -4   9    0.34    0.14
   0  -4   9   -0.06    0.08
   0   4  -9    0.02    0.06
   0   4   9    0.11    0.09
   1  -4   9    6.14    0.31
   1  -4   9    6.65    0.27
   1  -4   9    6.32    0.39
  -1   4  -9    6.39    0.28
   1   4   9    6.24    0.32
  -4  -5   9   19.23    0.79
  -4  -5   9   20.81    0.66
  -4   5   9   21.17    0.63
  -3  -5   9   17.94    0.78
  -3  -5   9   17.28    0.69
  -3  -5   9   17.48    0.63
   3   5  -9   17.02    0.61
  -3   5   9   17.62    0.61
  -2  -5   9   52.33    1.43
   2  -5  -9   52.45    1.38
  -2  -5   9   55.29    1.64
  -2  -5   9   52.90    1.43
  -2  -5   9   51.92    1.48
  -2   5   9   52.26    1.40
   2   5  -9   52.29    1.39
  -2   5   9   50.67    1.39
  -1  -5   9    2.89    0.37
  -1  -5   9    2.69    0.26
   1  -5  -9    2.57    0.22
  -1  -5   9    2.41    0.26
  -1   5   9    2.97    0.24
   1   5  -9    2.83    0.23
  -1   5   9    2.92    0.25
   0  -5   9    4.31    0.35
   0  -5   9    4.29    0.29
   0   5   9    3.91    0.28
   0   5  -9    4.29    0.22
  -1  -5  -9    1.53    0.19
   1  -5   9    1.93    0.25
   1  -5   9    2.05    0.18
   1  -5   9    2.10    0.16
   1   5   9    1.53    0.18
  -4  -6   9   10.29    0.48
  -4  -6   9   10.19    0.53
  -4  -6   9   10.36    0.42
  -4   6   9   10.83    0.40
  -3  -6   9   16.61    0.67
  -3  -6   9   16.63    0.60
  -3  -6   9   16.49    0.74
  -3   6   9   16.62    0.57
   3   6  -9   15.19    0.57
   2  -6  -9    4.46    0.27
  -2  -6   9    3.97    0.29
  -2  -6   9    4.40    0.30
  -2  -6   9    4.10    0.32
  -2  -6   9    4.24    0.38
  -2   6   9    4.25    0.28
   2   6  -9    4.49    0.28
  -2   6   9    4.35    0.28
  -1  -6   9    5.82    0.37
  -1  -6   9    6.70    0.37
  -1  -6   9    7.18    0.45
  -1   6   9    7.06    0.36
   1   6  -9    6.32    0.33
  -1   6   9    6.67    0.35
   0  -6   9    0.68    0.14
   0  -6   9    0.66    0.19
   0  -6   9    0.77    0.18
   0   6   9    0.63    0.14
  -1  -6  -9   11.62    0.46
   1  -6   9   12.66    0.37
   1  -6   9   12.77    0.54
   1  -6   9   11.52    0.42
   1   6   9   12.63    0.45
  -4  -7   9    2.48    0.26
  -4  -7   9    2.03    0.19
  -4  -7   9    2.09    0.28
  -4   7   9    2.18    0.18
  -3  -7   9    8.73    0.40
  -3  -7   9    8.61    0.39
  -3  -7   9    9.80    0.49
  -3  -7   9    9.51    0.53
   3   7  -9   10.03    0.42
  -3   7   9    9.47    0.40
  -2  -7   9    3.39    0.26
  -2  -7   9    4.08    0.36
  -2  -7   9    3.47    0.26
  -2  -7   9    3.40    0.30
   2   7  -9    3.45    0.24
  -2   7   9    3.52    0.25
  -2   7   9    3.28    0.25
  -1  -7   9    5.95    0.41
  -1  -7   9    5.57    0.34
  -1  -7   9    5.91    0.36
  -1   7   9    5.65    0.31
   1   7  -9    5.89    0.30
  -1   7   9    5.93    0.33
   0  -7   9    1.88    0.22
   0  -7   9    2.26    0.23
   0  -7   9    1.54    0.22
   0   7   9    1.69    0.20
   1  -7   9    1.52    0.21
   1  -7   9    2.05    0.13
   1   7   9    2.28    0.19
  -3  -8   9    0.62    0.12
  -3  -8   9    0.65    0.13
  -3  -8   9    0.63    0.18
  -3  -8   9    0.90    0.18
   3   8  -9    0.96    0.15
  -3   8   9    0.78    0.14
  -2  -8   9    1.86    0.22
  -2  -8   9    2.14    0.26
  -2  -8   9    2.11    0.30
  -2  -8   9    1.49    0.19
   2   8  -9    1.92    0.20
  -2   8   9    2.16    0.20
  -2   8   9    1.84    0.21
  -1  -8   9    3.80    0.30
  -1  -8   9    4.44    0.34
  -1  -8   9    4.15    0.28
   1   8  -9    4.29    0.23
  -1   8   9    3.59    0.25
  -1   8   9    3.75    0.26
   0  -8   9   -0.07    0.07
   0  -8   9   -0.03    0.08
   0  -8   9    0.06    0.10
   0   8  -9   -0.06    0.09
   0   8   9    0.06    0.09
   1  -8   9    4.41    0.30
  -3  -9   9    6.50    0.44
  -3  -9   9    6.39    0.39
  -3  -9   9    6.47    0.32
   3   9  -9    7.00    0.32
  -3   9   9    7.17    0.32
  -2  -9   9   18.29    0.63
  -2  -9   9   17.00    0.59
  -2  -9   9   19.03    0.73
  -2  -9   9   19.65    0.70
   2   9  -9   18.95    0.59
  -2   9   9   17.90    0.58
  -2   9   9   18.24    0.60
  -1  -9   9    0.32    0.12
  -1  -9   9    0.38    0.11
  -1  -9   9    0.25    0.13
  -1   9   9    0.20    0.10
  -1   9   9    0.46    0.11
   1   9  -9    0.46    0.08
   0  -9   9    0.60    0.13
   0  -9   9    0.61    0.13
   0  -9   9    0.83    0.18
   0   9   9    0.73    0.13
  -2 -10   9   12.10    0.46
  -2 -10   9   12.06    0.52
  -2 -10   9   12.33    0.55
   2  10  -9   12.26    0.42
  -2  10   9   12.37    0.45
  -1 -10   9   45.52    1.27
  -1 -10   9   44.66    1.18
  -1 -10   9   44.05    1.23
  -1  10   9   44.42    1.16
   0  10   9   32.96    0.91
  -3   0  10    0.32    0.10
   2   0 -10    6.05    0.28
  -2   0  10    5.35    0.33
  -2   0  10    5.87    0.29
  -2   0  10    6.28    0.30
   1   0 -10   44.66    1.12
  -1   0  10   46.62    1.18
  -3  -1  10    0.13    0.08
  -3   1  10    0.00    0.08
  -2  -1  10    1.39    0.17
   2  -1 -10    1.58    0.17
  -2  -1  10    1.22    0.16
  -2  -1  10    1.35    0.20
   2   1 -10    1.54    0.16
  -2   1  10    1.36    0.17
  -2   1  10    1.22    0.15
  -1  -1  10    4.58    0.26
  -1  -1  10    4.27    0.30
   1  -1 -10    4.68    0.23
   1   1 -10    4.48    0.22
  -1   1  10    4.47    0.26
  -3  -2  10    0.00    0.07
  -3   2  10    0.06    0.07
  -2  -2  10    0.04    0.09
  -2  -2  10   -0.01    0.08
  -2  -2  10   -0.04    0.10
   2  -2 -10    0.02    0.07
  -2   2  10    0.05    0.11
   2   2 -10    0.00    0.07
  -2   2  10    0.06    0.09
  -1  -2  10    0.49    0.14
  -1  -2  10    0.59    0.12
  -1   2  10    0.68    0.13
   1   2 -10    0.78    0.11
  -2  -3  10   18.44    0.59
   2  -3 -10   18.49    0.55
  -2  -3  10   18.62    0.63
  -2  -3  10   18.06    0.66
   2   3 -10   18.11    0.56
  -2   3  10   18.16    0.57
  -1  -3  10   23.89    0.78
  -1  -3  10   24.65    0.71
  -1   3  10   24.13    0.71
   1   3 -10   24.22    0.74
  -2  -4  10    7.84    0.39
   2   4 -10    6.85    0.39
  -2   4  10    7.46    0.32
  -1  -4  10    3.22    0.21
  -1  -4  10    3.24    0.27
  -1   4  10    3.21    0.24
   0   0   0    0.00    0.00
;
_shelx_hkl_checksum              87817
_shelx_res_file
;
    n16025.res created by SHELXL-2014/7
REM SHELXT solution in P2(1)/c
CELL  1.54178  6.51698   19.39270    8.59908   90.0000  102.2869   90.0000
ZERR    4.000  0.00117    0.00348    0.00161    0.0000    0.0054    0.0000
LATT  1
SYMM -X, 1/2+Y, 1/2-Z
SFAC  C  H N CL GA
UNIT 20 36 4 12  4
TEMP -163.13
SIZE 0.111 0.168 0.226
L.S. 12 4
BOND $H
CONF
ACTA
HTAB
FMAP 2
PLAN 20
WGHT    0.031000    0.275000
FVAR       0.16298
GA1   5    0.572502    0.616137    0.637920    11.00000    0.02527    0.02897 =
         0.01932   -0.00039    0.00074   -0.00094
CL1   4    0.530735    0.708610    0.767502    11.00000    0.03951    0.03256 =
         0.03055   -0.00620    0.00762   -0.00260
CL2   4    0.878805    0.608498    0.585215    11.00000    0.02827    0.05635 =
         0.03449   -0.00601    0.00752   -0.00090
CL3   4    0.484977    0.525143    0.750649    11.00000    0.04281    0.03077 =
         0.03799    0.00590    0.00984   -0.00061
C1    1    0.361865    0.624691    0.427002    11.00000    0.02809    0.02939 =
         0.02441   -0.00097    0.00442   -0.00058
N1    3    0.242901    0.629201    0.310303    11.00000    0.02528    0.02777 =
         0.02074   -0.00191    0.00400    0.00022
C2    1    0.086900    0.634367    0.158964    11.00000    0.02785    0.03745 =
         0.01962   -0.00120   -0.00275    0.00149
C3    1   -0.028668    0.701422    0.166952    11.00000    0.04907    0.05281 =
         0.04589   -0.00715   -0.01418    0.01989
H3A   2   -0.133038    0.704805    0.071280    11.00000    0.06998
H3B   2   -0.102134    0.698470    0.241228    11.00000    0.08216
H3C   2    0.064263    0.742545    0.170869    11.00000    0.06469
C4    1    0.209836    0.633425    0.028188    11.00000    0.04730    0.06641 =
         0.02058    0.00178    0.00449   -0.00498
H4A   2    0.114197    0.637903   -0.067557    11.00000    0.04673
H4B   2    0.313565    0.670479    0.037940    11.00000    0.04827
H4C   2    0.285894    0.591229    0.028921    11.00000    0.05787
C5    1   -0.055391    0.571800    0.152134    11.00000    0.04239    0.05752 =
         0.03083   -0.00669   -0.00165   -0.01711
H5A   2   -0.159963    0.573930    0.054295    11.00000    0.04840
H5B   2    0.016851    0.527898    0.151952    11.00000    0.05987
H5C   2   -0.123840    0.574360    0.238176    11.00000    0.06191
HKLF 4
REM
REM R1 =  0.0211 for    1791 Fo > 4sig(Fo)  and  0.0223 for all    1876 data
REM    127 parameters refined using      0 restraints
END
WGHT      0.0310      0.2750
REM No hydrogen bonds found for HTAB generation
REM Highest difference peak  0.327,  deepest hole -0.310,  1-sigma level  0.058
Q1    1   0.4567  0.6178  0.4998  11.00000  0.05    0.33
Q2    1   0.7887  0.6227  0.4579  11.00000  0.05    0.23
Q3    1   0.8105  0.6367  0.4839  11.00000  0.05    0.22
Q4    1   0.4024  0.5123  0.6571  11.00000  0.05    0.22
Q5    1   0.7081  0.6192  0.7744  11.00000  0.05    0.21
Q6    1   0.1661  0.6330  0.2423  11.00000  0.05    0.21
Q7    1   0.8606  0.5602  0.5633  11.00000  0.05    0.20
Q8    1   0.1515  0.6331  0.1020  11.00000  0.05    0.20
Q9    1   0.5997  0.6670  0.7292  11.00000  0.05    0.19
Q10   1   0.9671  0.6114  0.7097  11.00000  0.05    0.18
Q11   1   0.3472  0.6502  0.3853  11.00000  0.05    0.18
Q12   1  -0.2284  0.6590 -0.0031  11.00000  0.05    0.18
Q13   1   0.3117  0.6495  0.3468  11.00000  0.05    0.17
Q14   1   0.2364  0.6251  0.6821  11.00000  0.05    0.17
Q15   1   0.0236  0.6659  0.1721  11.00000  0.05    0.17
Q16   1   0.4140  0.7289  0.6411  11.00000  0.05    0.17
Q17   1  -0.0723  0.5474  0.2371  11.00000  0.05    0.17
Q18   1   0.2534  0.6122  0.3251  11.00000  0.05    0.17
Q19   1  -0.1200  0.6597 -0.1858  11.00000  0.05    0.16
Q20   1  -0.2770  0.6427 -0.0757  11.00000  0.05    0.16
;
_shelx_res_checksum              61249
loop_
_space_group_symop_operation_xyz
'x, y, z'
'-x, y+1/2, -z+1/2'
'-x, -y, -z'
'x, -y-1/2, z-1/2'
loop_
_atom_site_type_symbol
_atom_site_label
_atom_site_fract_x
_atom_site_fract_y
_atom_site_fract_z
_atom_site_U_iso_or_equiv
_atom_site_adp_type
_atom_site_calc_flag
_atom_site_occupancy
Ga Ga1 0.57250(3) 0.61614(2) 0.63792(2) 0.02511(9) Uani d 1
Cl Cl1 0.53074(7) 0.70861(2) 0.76750(5) 0.03418(12) Uani d 1
Cl Cl2 0.87880(7) 0.60850(3) 0.58522(6) 0.03958(13) Uani d 1
Cl Cl3 0.48498(7) 0.52514(2) 0.75065(5) 0.03701(12) Uani d 1
C C1 0.3619(3) 0.62469(9) 0.4270(2) 0.0275(4) Uani d 1
N N1 0.2429(2) 0.62920(7) 0.31030(16) 0.0247(3) Uani d 1
C C2 0.0869(3) 0.63437(10) 0.1590(2) 0.0295(4) Uani d 1
C C3 -0.0287(4) 0.70142(13) 0.1670(3) 0.0529(6) Uani d 1
H H3A -0.133(5) 0.7048(15) 0.071(4) 0.070(8) Uiso d 1
H H3B -0.102(5) 0.6985(18) 0.241(4) 0.082(11) Uiso d 1
H H3C 0.064(4) 0.7425(16) 0.171(4) 0.065(8) Uiso d 1
C C4 0.2098(4) 0.63342(14) 0.0282(2) 0.0452(5) Uani d 1
H H4A 0.114(4) 0.6379(13) -0.068(3) 0.047(6) Uiso d 1
H H4B 0.314(4) 0.6705(13) 0.038(3) 0.048(7) Uiso d 1
H H4C 0.286(5) 0.5912(16) 0.029(3) 0.058(8) Uiso d 1
C C5 -0.0554(4) 0.57180(13) 0.1521(3) 0.0450(5) Uani d 1
H H5A -0.160(4) 0.5739(13) 0.054(3) 0.048(6) Uiso d 1
H H5B 0.017(5) 0.5279(16) 0.152(3) 0.060(8) Uiso d 1
H H5C -0.124(5) 0.5744(15) 0.238(4) 0.062(8) Uiso d 1
loop_
_atom_site_aniso_label
_atom_site_aniso_U_11
_atom_site_aniso_U_22
_atom_site_aniso_U_33
_atom_site_aniso_U_12
_atom_site_aniso_U_13
_atom_site_aniso_U_23
Ga1 0.02527(14) 0.02897(14) 0.01932(13) -0.00094(7) 0.00074(9) -0.00039(7)
Cl1 0.0395(2) 0.0326(2) 0.0306(2) -0.00260(17) 0.00762(18) -0.00620(16)
Cl2 0.0283(2) 0.0564(3) 0.0345(2) -0.00090(18) 0.00752(18) -0.00601(19)
Cl3 0.0428(3) 0.0308(2) 0.0380(2) -0.00061(17) 0.00984(19) 0.00590(17)
C1 0.0281(9) 0.0294(8) 0.0244(9) -0.0006(6) 0.0044(7) -0.0010(6)
N1 0.0253(7) 0.0278(7) 0.0207(7) 0.0002(5) 0.0040(6) -0.0019(5)
C2 0.0278(9) 0.0374(9) 0.0196(8) 0.0015(7) -0.0028(7) -0.0012(7)
C3 0.0491(13) 0.0528(14) 0.0459(13) 0.0199(11) -0.0142(11) -0.0072(11)
C4 0.0473(12) 0.0664(15) 0.0206(9) -0.0050(11) 0.0045(9) 0.0018(9)
C5 0.0424(11) 0.0575(14) 0.0308(10) -0.0171(10) -0.0016(9) -0.0067(9)
loop_
_atom_type_symbol
_atom_type_description
_atom_type_scat_dispersion_real
_atom_type_scat_dispersion_imag
_atom_type_scat_source
C C 0.0181 0.0091 'International Tables Vol C Tables 4.2.6.8 and 6.1.1.4'
H H 0.0000 0.0000 'International Tables Vol C Tables 4.2.6.8 and 6.1.1.4'
N N 0.0311 0.0180 'International Tables Vol C Tables 4.2.6.8 and 6.1.1.4'
Cl Cl 0.3639 0.7018 'International Tables Vol C Tables 4.2.6.8 and 6.1.1.4'
Ga Ga -1.2846 0.7763 'International Tables Vol C Tables 4.2.6.8 and 6.1.1.4'
loop_
_geom_angle_atom_site_label_1
_geom_angle_atom_site_label_2
_geom_angle_atom_site_label_3
_geom_angle
C1 Ga1 Cl2 107.40(5)
C1 Ga1 Cl3 106.00(5)
Cl2 Ga1 Cl3 112.78(2)
C1 Ga1 Cl1 104.90(5)
Cl2 Ga1 Cl1 113.07(2)
Cl3 Ga1 Cl1 112.01(2)
N1 C1 Ga1 179.26(16)
C1 N1 C2 179.35(18)
N1 C2 C3 105.96(15)
N1 C2 C4 106.28(15)
C3 C2 C4 113.1(2)
N1 C2 C5 106.27(15)
C3 C2 C5 112.49(19)
C4 C2 C5 112.12(18)
C2 C3 H3A 106.9(18)
C2 C3 H3B 109(2)
H3A C3 H3B 103(3)
C2 C3 H3C 112.6(17)
H3A C3 H3C 107(2)
H3B C3 H3C 117(3)
C2 C4 H4A 107.3(16)
C2 C4 H4B 113.1(14)
H4A C4 H4B 109(2)
C2 C4 H4C 111.2(17)
H4A C4 H4C 110(2)
H4B C4 H4C 106(2)
C2 C5 H5A 108.1(15)
C2 C5 H5B 114.0(17)
H5A C5 H5B 107(2)
C2 C5 H5C 108.3(18)
H5A C5 H5C 109(2)
H5B C5 H5C 111(2)
loop_
_geom_bond_atom_site_label_1
_geom_bond_atom_site_label_2
_geom_bond_distance
Ga1 C1 2.0351(18)
Ga1 Cl2 2.1441(6)
Ga1 Cl3 2.1481(5)
Ga1 Cl1 2.1589(5)
C1 N1 1.133(2)
N1 C2 1.474(2)
C2 C3 1.512(3)
C2 C4 1.513(3)
C2 C5 1.521(3)
C3 H3A 0.95(3)
C3 H3B 0.88(4)
C3 H3C 1.00(3)
C4 H4A 0.92(3)
C4 H4B 0.98(3)
C4 H4C 0.96(3)
C5 H5A 0.96(3)
C5 H5B 0.97(3)
C5 H5C 0.94(3)

_cod_database_fobs_code 1542884
