#------------------------------------------------------------------------------
#$Date: 2016-02-20 04:38:48 +0200 (Sat, 20 Feb 2016) $
#$Revision: 176770 $
#$URL: svn://www.crystallography.net/cod/cif/1/54/25/1542529.cif $
#------------------------------------------------------------------------------
#
# This file is available in the Crystallography Open Database (COD),
# http://www.crystallography.net/
#
# All data on this site have been placed in the public domain by the
# contributors.
#
data_1542529
loop_
_publ_author_name
'Golen, James A.'
'Manke, David R.'
_publ_section_title
;
 7-Bromo-1<i>H</i>-indole-2,3-dione
;
_journal_coeditor_code           VM4006
_journal_issue                   2
_journal_name_full               IUCrData
_journal_page_first              x160268
_journal_paper_doi               10.1107/S2414314616002686
_journal_volume                  1
_journal_year                    2016
_chemical_formula_iupac          'C8 H4 Br N O2'
_chemical_formula_moiety         'C8 H4 Br N O2'
_chemical_formula_sum            'C8 H4 Br N O2'
_chemical_formula_weight         226.03
_chemical_name_systematic
;
7-Bromo-1<i>H</i>-indole-2,3-dione
;
_space_group_crystal_system      monoclinic
_space_group_IT_number           14
_space_group_name_Hall           '-P 2ybc'
_space_group_name_H-M_alt        'P 1 21/c 1'
_symmetry_space_group_name_Hall  '-P 2ybc'
_symmetry_space_group_name_H-M   'P 1 21/c 1'
_atom_sites_solution_hydrogens   mixed
_audit_creation_method
;
Olex2 1.2
(compiled 2015.09.30 svn.r3233 for OlexSys, GUI svn.r5103)
;
_cell_angle_alpha                90
_cell_angle_beta                 91.917(7)
_cell_angle_gamma                90
_cell_formula_units_Z            4
_cell_length_a                   3.8320(7)
_cell_length_b                   13.072(2)
_cell_length_c                   15.004(3)
_cell_measurement_reflns_used    7365
_cell_measurement_temperature    120(2)
_cell_measurement_theta_max      25.31
_cell_measurement_theta_min      3.13
_cell_volume                     751.2(2)
_computing_cell_refinement
;
SAINT (Bruker, 2014)
;
_computing_data_collection
;
APEX2 (Bruker, 2014)
;
_computing_data_reduction
;
SAINT (Bruker, 2014)
;
_computing_molecular_graphics
;
<i>OLEX2</i> (Dolomanov <i>et al.</i>,  2009)
;
_computing_publication_material
;
<i>OLEX2</i> (Dolomanov <i>et al.</i>,  2009) and
publCIF (Westrip, 2010)
;
_computing_structure_refinement
;
SHELXL2014 (Sheldrick, 2015)
;
_computing_structure_solution
;
SHELXS97 (Sheldrick, 2008)
;
_diffrn_ambient_temperature      120.15
_diffrn_measured_fraction_theta_full 0.997
_diffrn_measured_fraction_theta_max 0.997
_diffrn_measurement_device_type  'Bruker D8 Venture CMOS'
_diffrn_measurement_method       '\f and \w scans'
_diffrn_radiation_monochromator  TRIUMPH
_diffrn_radiation_type           MoK\a
_diffrn_radiation_wavelength     0.71073
_diffrn_reflns_av_R_equivalents  0.0514
_diffrn_reflns_limit_h_max       4
_diffrn_reflns_limit_h_min       -4
_diffrn_reflns_limit_k_max       15
_diffrn_reflns_limit_k_min       -15
_diffrn_reflns_limit_l_max       18
_diffrn_reflns_limit_l_min       -18
_diffrn_reflns_number            17212
_diffrn_reflns_theta_full        25.250
_diffrn_reflns_theta_max         25.327
_diffrn_reflns_theta_min         3.117
_diffrn_standards_number         0
_exptl_absorpt_coefficient_mu    5.421
_exptl_absorpt_correction_T_max  0.2590
_exptl_absorpt_correction_T_min  0.1784
_exptl_absorpt_correction_type   multi-scan
_exptl_absorpt_process_details
;
(SADABS; Bruker, 2014)
;
_exptl_crystal_colour            orange
_exptl_crystal_density_diffrn    1.999
_exptl_crystal_description       BLOCK
_exptl_crystal_F_000             440
_exptl_crystal_size_max          0.18
_exptl_crystal_size_mid          0.14
_exptl_crystal_size_min          0.08
_refine_diff_density_max         0.686
_refine_diff_density_min         -0.371
_refine_ls_extinction_method     none
_refine_ls_goodness_of_fit_ref   1.185
_refine_ls_hydrogen_treatment    mixed
_refine_ls_matrix_type           full
_refine_ls_number_parameters     112
_refine_ls_number_reflns         1374
_refine_ls_number_restraints     1
_refine_ls_restrained_S_all      1.185
_refine_ls_R_factor_all          0.0344
_refine_ls_R_factor_gt           0.0286
_refine_ls_shift/su_max          0.001
_refine_ls_shift/su_mean         0.000
_refine_ls_structure_factor_coef Fsqd
_refine_ls_weighting_details
'w=1/[\s^2^(Fo^2^)+(0.0305P)^2^+1.3045P] where P=(Fo^2^+2Fc^2^)/3'
_refine_ls_weighting_scheme      calc
_refine_ls_wR_factor_gt          0.0694
_refine_ls_wR_factor_ref         0.0720
_reflns_number_gt                1231
_reflns_number_total             1374
_reflns_threshold_expression     'I > 2\s(I)'
_cod_data_source_file            vm4006sup1.cif
_cod_data_source_block           I
_cod_original_cell_volume        751.1(2)
_cod_database_code               1542529
_shelx_space_group_comment
;
The symmetry employed for this shelxl refinement is uniquely defined
by the following loop, which should always be used as a source of
symmetry information in preference to the above space-group names.
They are only intended as comments.
;
_shelx_estimated_absorpt_t_min   0.442
_shelx_estimated_absorpt_t_max   0.671
_shelx_hkl_file
;
   1   0   0  732.13   29.30
  -1   0   0  744.63   29.50
  -1   0   0  745.93   29.40
   1   0   0  796.62   29.70
   1   0   0  722.73   29.40
   1   0   0  771.22   29.40
  -1   0   0  742.03   29.50
  -1   0   0  759.82   29.60
   2   0   0 1555.44   61.59
   2   0   0 1654.33   61.79
  -2   0   0 1555.54   62.19
  -2   0   0 1608.34   62.29
  -2   0   0 1605.94   62.09
  -2   0   0 1536.55   61.99
   2   0   0 1666.33   62.39
   2   0   0 1561.04   62.09
  -3   0   0  345.37   19.50
  -3   0   0  353.66   20.00
  -3   0   0  328.57   19.50
   3   0   0  327.17   17.70
   3   0   0  307.47   18.00
  -3   0   0  307.97   19.20
   3   0   0  305.87   18.60
  -4   0   0  353.56   25.10
  -4   0   0  358.16   26.60
  -4   0   0  394.76   27.00
  -4   0   0  324.87   25.40
   4   0   0  343.57   21.90
  -1  -1   0 1139.19   44.40
  -1  -1   0 1084.09   44.30
   1  -1   0 1172.78   45.00
   1  -1   0 1176.48   45.00
  -1  -1   0 1114.09   44.30
   1  -1   0 1224.48   44.90
   1  -1   0 1184.28   44.90
  -1   1   0 1218.78   45.10
   1   1   0 1164.48   44.10
  -1   1   0 1146.39   44.90
  -1   1   0 1145.39   44.90
   1   1   0 1124.29   44.30
   1   1   0 1226.08   44.20
   1   1   0 1105.09   44.50
  -1   1   0 1193.28   45.00
  -2  -1   0  419.16   19.80
  -2  -1   0  438.86   20.00
   2  -1   0  436.06   20.50
  -2  -1   0  435.86   19.80
   2  -1   0  415.86   21.00
   2  -1   0  468.25   20.30
   2  -1   0  450.25   20.10
  -2  -1   0  467.55   20.10
   2   1   0  467.65   19.20
  -2   1   0  487.65   21.00
   2   1   0  453.25   19.90
  -2   1   0  439.56   20.70
  -2   1   0  457.25   20.70
   2   1   0  457.45   19.00
  -2   1   0  451.45   20.60
  -3  -1   0  552.14   26.20
   3  -1   0  557.34   25.80
  -3  -1   0  514.95   26.10
  -3  -1   0  530.95   26.30
   3  -1   0  556.34   25.70
  -3  -1   0  510.85   25.90
   3  -1   0  544.75   26.50
   3   1   0  555.04   23.80
   3   1   0  516.05   25.40
   3   1   0  547.95   24.20
  -3   1   0  560.74   27.20
  -3   1   0  580.74   27.10
  -3   1   0  497.45   26.80
  -3   1   0  591.34   27.50
  -4  -1   0  390.06   25.70
  -4  -1   0  351.26   26.50
  -4  -1   0  396.86   25.50
   4  -1   0  361.06   23.80
   4  -1   0  353.66   25.50
   4  -1   0  363.36   22.90
   4  -1   0  397.76   26.30
  -4  -1   0  340.17   25.30
   4   1   0  353.36   20.10
  -4   1   0  398.66   28.10
  -4   1   0  364.26   26.50
  -4   1   0  386.66   25.90
  -4   1   0  366.06   27.70
   0  -2   0 2584.94   97.29
   0  -2   0 2690.53   97.19
   0  -2   0 2580.34   97.09
   0  -2   0 2574.24   97.19
   0   2   0 2654.23   97.59
   0   2   0 2414.06   97.69
   1  -2   0   13.30    3.70
   1  -2   0   13.90    3.70
   1  -2   0   14.50    4.00
   1  -2   0   13.30    3.70
  -1  -2   0   10.60    2.30
  -1   2   0   12.50    3.80
   1   2   0    6.00    2.20
  -1   2   0   14.30    3.60
  -1   2   0   10.80    3.80
   1   2   0   11.70    2.20
  -1   2   0   10.30    3.50
  -2  -2   0  512.65   22.50
  -2  -2   0  500.85   22.40
   2  -2   0  580.04   24.20
   2  -2   0  545.45   24.20
  -2  -2   0  534.25   22.70
   2  -2   0  562.44   24.00
   2  -2   0  542.35   24.50
  -2  -2   0  526.35   22.80
  -2   2   0  539.65   24.00
  -2   2   0  568.24   24.40
   2   2   0  518.75   22.40
   2   2   0  516.55   22.50
  -2   2   0  562.64   24.30
  -2   2   0  534.45   24.40
   3  -2   0  229.28   17.80
   3  -2   0  237.38   17.20
  -3  -2   0  222.68   15.70
  -3  -2   0  226.78   15.70
   3  -2   0  238.68   16.60
  -3  -2   0  233.88   15.90
  -3  -2   0  245.88   16.10
  -3   2   0  237.98   17.80
   3   2   0  228.18   14.90
  -3   2   0  242.18   18.40
   3   2   0  229.58   14.90
  -3   2   0  210.08   17.80
  -3   2   0  216.98   18.40
   4  -2   0   68.69   14.10
   4  -2   0   72.79   14.00
  -4  -2   0   62.79   13.30
   4  -2   0   91.79   13.80
   4  -2   0   82.99   12.60
  -4  -2   0   54.19   13.00
  -4  -2   0   61.59   12.60
  -4  -2   0   61.49   12.10
  -4   2   0   57.79   15.60
  -4   2   0   74.29   15.40
  -4   2   0   62.79   13.90
   4   2   0   58.39   12.10
  -4   2   0   61.39   13.60
   0  -3   0   -2.00    1.90
   0  -3   0   -0.50    2.00
   0  -3   0   -2.20    1.90
   0  -3   0   -0.50    1.90
   0   3   0   -2.60    1.80
   0   3   0    0.00    1.90
   0   3   0   -3.00    1.60
   1  -3   0  322.67   14.70
   1  -3   0  308.37   14.60
   1  -3   0  297.37   14.80
   1  -3   0  324.97   14.60
  -1   3   0  300.37   14.60
  -1   3   0  319.67   14.70
  -1   3   0  303.87   14.40
  -1   3   0  311.17   14.60
  -2  -3   0  221.68   10.40
   2  -3   0  187.08   13.40
  -2  -3   0  197.68   10.40
   2  -3   0  193.58   13.30
   2  -3   0  138.29   13.90
  -2  -3   0  195.28   10.80
  -2  -3   0  198.18   10.30
   2  -3   0  207.28   13.50
  -2   3   0  175.48   13.00
  -2   3   0  182.48   13.50
   2   3   0  208.98   10.30
   2   3   0  181.88   10.20
  -2   3   0  171.28   13.50
  -2   3   0  185.88   13.50
  -3  -3   0   79.89    8.80
   3  -3   0   84.69   11.20
   3  -3   0   75.09   10.50
  -3  -3   0   67.99    8.50
  -3  -3   0   61.29    8.60
   3  -3   0   82.69   10.30
  -3  -3   0   75.29    8.80
  -3   3   0   73.49   11.70
   3   3   0   66.09    8.10
  -3   3   0   75.69   11.20
  -3   3   0   68.09   11.20
  -3   3   0   51.79   10.60
   3   3   0   75.49    8.00
  -4  -3   0   83.39   13.00
  -4  -3   0   54.49   13.20
  -4  -3   0   90.69   13.90
   4  -3   0   92.49   14.70
   4  -3   0   98.29   16.10
   4  -3   0  102.49   15.00
  -4  -3   0   99.69   12.70
   4  -3   0   98.79   14.40
  -4   3   0   71.39   14.90
  -4   3   0   70.29   14.70
  -4   3   0   88.39   16.60
  -4   3   0   78.49   16.10
   4   3   0   98.89   12.50
   0  -4   0  583.44   23.40
   0  -4   0  598.04   23.50
   0  -4   0  593.54   23.60
   0  -4   0  566.24   23.30
   0   4   0  584.64   23.10
   0   4   0  616.34   23.10
   0   4   0  580.84   23.40
   1  -4   0    3.80    4.30
   1  -4   0    9.90    4.60
   1  -4   0    4.10    4.00
  -1   4   0    7.80    4.60
  -1   4   0    8.80    4.80
  -1   4   0   16.70    4.80
  -1   4   0    5.90    4.60
  -2  -4   0  131.99    7.80
  -2  -4   0  121.69    7.60
   2  -4   0  125.79   12.30
   2  -4   0  104.19   12.80
  -2  -4   0  127.49    7.90
   2  -4   0  139.09   12.60
  -2  -4   0  123.19    7.90
   2  -4   0  138.99   12.20
  -2   4   0  147.79   12.70
   2   4   0  130.49    7.50
   2   4   0  133.09    7.80
  -2   4   0  126.89   12.50
  -2   4   0  112.79   11.80
  -2   4   0  142.99   12.70
  -3   4   0   24.80    9.60
   4  -4   0   23.20   12.80
   4  -4   0   27.00   13.70
  -4  -4   0    4.00    9.60
  -4  -4   0   13.80   10.30
   4  -4   0   15.60   14.40
   4  -4   0   14.50   14.60
  -4  -4   0    1.60   11.00
  -4  -4   0   -8.60   11.30
  -4   4   0  -10.00   15.00
   4   4   0   14.40    9.90
   4   4   0    1.50    7.30
  -4   4   0   18.40   14.00
  -4   4   0   21.00   14.70
  -4   4   0  -22.80   13.80
   0  -5   0   -6.70    3.00
   0  -5   0   -9.00    2.90
   0  -5   0   -0.50    3.00
   0   5   0   -0.20    3.40
   0   5   0   -6.40    2.30
   0   5   0   -4.80    3.00
   0   5   0    6.40    2.90
   1  -5   0  263.27   13.90
   1  -5   0  246.58   13.70
   1  -5   0  241.48   13.90
   1  -5   0  253.17   13.60
  -1   5   0  246.48   13.80
  -1   5   0  269.27   14.10
  -1   5   0  253.37   13.70
  -1   5   0  280.57   14.00
   2  -5   0   -9.10    7.20
   2  -5   0    3.40    6.40
   2  -5   0   -0.50    6.50
   2  -5   0    6.00    6.70
  -2   5   0   -0.90    6.90
  -2   5   0    2.40    6.80
  -2   5   0    1.70    6.60
  -2   5   0    0.10    6.10
   3  -5   0   78.69   12.20
  -3  -5   0   67.09    7.60
   3  -5   0   91.49   13.60
  -3  -5   0   62.49    7.50
   3  -5   0   68.19   11.70
   3  -5   0   93.69   12.90
  -3  -5   0   66.79    8.20
  -3  -5   0   80.39    8.20
  -3   5   0   71.09   11.90
   3   5   0   67.99    7.20
  -3   5   0   84.29   13.40
   3   5   0   58.49    7.20
  -3   5   0  104.59   13.80
  -3   5   0   79.89   12.50
  -4  -5   0   28.60   11.50
   4  -5   0   58.79   16.40
   4  -5   0   45.50   16.00
  -4  -5   0   32.90    9.80
   4  -5   0   88.69   17.70
   4  -5   0   29.50   13.80
  -4  -5   0   35.90   10.10
  -4  -5   0   53.29   12.50
  -4   5   0   34.80   15.90
  -4   5   0   17.30   16.70
   4   5   0   35.00    9.80
  -4   5   0   32.40   16.40
  -4   5   0   49.70   15.80
   0  -6   0  755.22   30.00
   0  -6   0  764.62   30.10
   0  -6   0  670.83   30.00
   0  -6   0  756.82   30.30
   0   6   0  749.62   30.10
   0   6   0  739.93   29.40
   0   6   0  740.83   30.10
   0   6   0  819.22   29.40
   1  -6   0  225.38   13.20
   1  -6   0  188.68   13.40
   1  -6   0  202.38   12.60
   1  -6   0  218.08   13.20
  -1   6   0  213.58   13.30
  -1   6   0  212.88   13.20
  -1   6   0  203.08   12.70
  -1   6   0  209.68   13.00
   2  -6   0 1573.44   66.59
   2  -6   0 1745.73   66.89
   2  -6   0 1655.83   66.59
   2  -6   0 1598.24   66.99
  -2   6   0 1628.54   66.59
  -2   6   0 1596.14   66.99
  -2   6   0 1781.22   67.19
  -2   6   0 1683.73   66.89
  -3  -6   0  263.57   15.40
   3  -6   0  264.97   23.40
   3  -6   0  275.27   22.70
   3  -6   0  261.87   21.90
   3  -6   0  275.37   22.60
  -3  -6   0  258.47   14.90
  -3   6   0  268.37   23.30
  -3   6   0  227.68   22.30
  -3   6   0  256.97   23.80
  -4  -6   0   73.19   13.10
   4  -6   0   94.79   18.40
  -4  -6   0   85.89   13.40
   4  -6   0   66.19   16.10
   4  -6   0   73.59   16.30
   4  -6   0   84.79   19.80
  -4   6   0   50.19   17.40
  -4   6   0   42.60   18.20
  -4   6   0   22.60   17.40
  -4   6   0   55.59   18.30
   0  -7   0   -6.30    4.20
   0  -7   0   -0.60    4.10
   0  -7   0   -3.80    4.20
   0  -7   0    0.80    4.40
   0   7   0   -1.50    3.40
   0   7   0    0.90    4.00
   0   7   0   -5.20    4.10
   1  -7   0 2951.60  114.39
   1  -7   0 2942.61  114.39
   1  -7   0 3070.59  114.79
   1  -7   0 2863.11  114.29
  -1   7   0 3002.10  114.49
  -1   7   0 2994.00  114.29
  -1   7   0 2983.20  114.49
  -1   7   0 2973.80  114.09
   2  -7   0  179.58   16.10
   2  -7   0  161.18   16.10
   2  -7   0  188.68   18.20
   2  -7   0  209.48   17.20
  -2   7   0  211.38   16.50
  -2   7   0  196.48   17.10
  -2   7   0  205.38   17.80
  -2   7   0  196.38   17.10
  -3  -7   0  309.27   16.70
  -3  -7   0  290.27   16.30
   3  -7   0  329.77   25.80
   3  -7   0  334.67   25.50
   3  -7   0  346.47   24.90
  -3   7   0  328.37   25.70
  -3   7   0  340.17   25.90
  -3   7   0  278.87   25.60
  -4  -7   0  256.27   22.60
   4  -7   0  354.26   31.10
   4  -7   0  295.07   32.80
   4  -7   0  321.17   30.70
  -4  -7   0  296.27   22.80
   4  -7   0  271.27   31.00
  -4   7   0  289.37   33.80
  -4   7   0  264.07   30.80
  -4   7   0  302.87   32.60
  -4   7   0  322.07   27.80
   0  -8   0 1165.28   44.90
   0  -8   0 1156.18   44.70
   0  -8   0 1126.49   44.60
   0  -8   0 1055.39   44.30
   0   8   0 1129.49   44.50
   0   8   0 1053.79   43.10
   0   8   0 1144.39   44.50
   1  -8   0   32.10    8.60
   1  -8   0   47.60    7.60
  -1  -8   0   37.80    4.10
   1  -8   0   47.90    7.80
  -1  -8   0   37.60    4.40
   1  -8   0   52.09    8.20
  -1   8   0   47.90    8.20
  -1   8   0   49.40    7.50
  -1   8   0   43.20    8.00
  -1   8   0   46.10    8.00
   2  -8   0 1353.76   56.39
   2  -8   0 1333.87   56.19
   2  -8   0 1394.96   57.39
   2  -8   0 1337.47   56.19
  -2   8   0 1420.96   56.79
  -2   8   0 1319.57   56.59
  -2   8   0 1325.47   55.79
  -2   8   0 1263.17   56.49
   3  -8   0  105.99   15.60
  -3  -8   0  101.09   10.10
   3  -8   0  119.69   16.50
  -3   8   0  117.79   16.60
  -3   8   0  112.49   16.50
  -3   8   0   89.19   15.40
   0  -9   0   -3.50    5.90
   0  -9   0    3.60    5.30
   0  -9   0    5.10    5.50
   0  -9   0    6.20    5.50
   0   9   0    7.80    5.60
   0   9   0    4.90    5.40
  -1  -9   0  904.31   40.90
   1  -9   0 1189.48   45.20
   1  -9   0 1078.79   44.30
   1  -9   0 1069.39   44.10
   1  -9   0 1099.59   44.40
  -1  -9   0  917.51   40.90
  -1   9   0 1012.20   44.10
  -1   9   0 1091.99   44.50
  -1   9   0 1121.69   44.20
  -1   9   0 1068.39   43.40
   2  -9   0   54.19   12.00
   2  -9   0   58.59   11.50
   2  -9   0   52.89   11.70
   2  -9   0   55.69   11.60
  -2   9   0   59.29   11.80
  -2   9   0   58.99   12.30
  -2   9   0   50.39   11.40
  -2   9   0   60.39   10.90
   3  -9   0  121.79   19.60
   3  -9   0  146.39   18.00
   3  -9   0   54.19   14.50
  -3   9   0  129.79   18.00
  -3   9   0   80.29   15.30
  -3   9   0  109.89   16.60
  -3   9   0   91.49   16.30
   0 -10   0  573.24   25.50
   0 -10   0  546.75   25.20
   0 -10   0  586.84   25.50
   0  10   0  503.25   25.10
   0  10   0  566.04   24.80
   1 -10   0   57.59    9.40
  -1 -10   0   82.29    8.70
   1 -10   0   65.39   10.20
  -1 -10   0  101.49    9.20
   1 -10   0   62.19   10.20
   1 -10   0   87.69   11.80
  -1  10   0   69.49    9.10
  -1  10   0   66.39   10.10
  -1  10   0   82.49   11.10
  -1  10   0   66.39    9.90
   2 -10   0   93.89   15.40
   2 -10   0   59.19   12.70
   2 -10   0   56.09   12.20
   2 -10   0   93.49   14.40
  -2  10   0   94.39   13.60
  -2  10   0   81.99   12.70
  -2  10   0   88.39   13.30
  -2  10   0   50.29   12.90
   3 -10   0   40.90   16.80
   3 -10   0   49.40   16.30
   3 -10   0   56.79   17.10
  -3  10   0   31.30   15.30
  -3  10   0   51.39   16.10
  -3  10   0   47.70   17.20
  -3  10   0   38.70   14.60
   0 -11   0   25.90    7.60
   0 -11   0   21.30    7.70
   0 -11   0   19.80    7.30
   0  11   0    9.10    7.40
   0  11   0   23.10    7.00
  -1 -11   0  260.47   15.80
   1 -11   0  319.57   20.90
   1 -11   0  288.57   19.60
   1 -11   0  288.77   20.90
  -1 -11   0  278.37   15.70
   1 -11   0  322.77   21.80
  -1  11   0  283.57   17.80
  -1  11   0  302.77   20.70
  -1  11   0  292.07   19.30
  -1  11   0  294.47   20.10
   2 -11   0   13.40   13.50
   2 -11   0   -3.80   12.20
   2 -11   0  -10.10   10.80
   2 -11   0    2.80   11.60
  -2  11   0   19.30   11.90
  -2  11   0   -7.30   10.80
  -2  11   0   10.60   10.40
  -2  11   0    6.90   12.40
   3 -11   0   36.50   17.90
   3 -11   0   54.39   16.30
   3 -11   0   43.90   19.40
  -3  11   0   69.89   16.90
  -3  11   0   51.09   19.00
  -3  11   0   82.59   19.00
  -3  11   0   70.29   17.80
   0 -12   0  106.99   11.50
   0 -12   0  113.09   12.00
   0 -12   0  109.29   14.00
   0  12   0  101.19   12.90
   0  12   0  101.59   10.80
   1 -12   0   29.20   11.00
   1 -12   0   25.60   11.10
  -1 -12   0   40.70    7.70
  -1 -12   0   45.10    8.20
   1 -12   0   23.90   10.00
  -1  12   0   33.70   10.00
  -1  12   0   45.80   10.80
  -1  12   0   33.80    8.90
  -1  12   0   -2.50    9.90
   2 -12   0   36.00   14.70
   2 -12   0    5.90   13.10
   2 -12   0   17.60   12.70
  -2  12   0   25.10   13.90
  -2  12   0   13.40   12.90
  -2  12   0    9.70   11.40
  -2  12   0   26.90   13.10
   0 -13   0   28.20   10.30
   0 -13   0   10.30    9.20
   0 -13   0   -5.30    9.90
   0 -13   0   -6.30    8.60
   0  13   0   -4.40    7.60
   1 -13   0  362.56   23.60
   1 -13   0  395.46   26.00
  -1 -13   0  330.97   20.00
   1 -13   0  348.77   25.20
  -1 -13   0  306.37   20.30
  -1  13   0  367.36   21.30
  -1  13   0  372.36   24.80
  -1  13   0  263.87   30.30
  -1  13   0  370.86   22.10
   2 -13   0   21.50   14.90
   2 -13   0    7.20   15.10
   2 -13   0   -2.60   14.50
  -2  13   0   19.40   15.00
  -2  13   0   11.20   14.50
  -2  13   0   10.70   14.70
   0 -14   0  478.75   26.70
   0 -14   0  408.66   25.00
   0 -14   0  436.76   26.90
   0 -14   0  428.66   25.40
   0  14   0  419.26   25.10
  -1 -14   0   46.70   10.70
  -1 -14   0   50.19   10.70
   1 -14   0   43.60   13.50
   1 -14   0   38.20   11.80
   1 -14   0   34.30   13.70
  -1  14   0   38.10   10.90
  -1  14   0   35.80   13.80
   2 -14   0  133.59   19.50
   2 -14   0  145.19   20.70
   2 -14   0  233.38   28.50
  -2  14   0  137.79   18.90
  -2  14   0  102.19   19.10
  -2  14   0  156.78   21.10
   0 -15   0    2.80   11.90
   0 -15   0  -19.20   11.30
   0 -15   0   12.00   12.40
   0 -15   0  -19.10   11.90
   0  15   0  -17.70    8.50
   0  15   0    5.80   12.00
   1 -15   0  259.17   27.30
   1 -15   0  246.28   26.90
   1 -15   0  217.08   23.20
  -1 -15   0  221.38   20.80
   1 -15   0  236.48   22.30
  -1 -15   0  197.88   20.90
  -1  15   0  251.67   24.30
  -1  15   0  228.88   19.80
  -4   0   1   40.90   12.70
   4   0  -1   24.90    9.60
  -4   0   1   16.80   12.20
  -4   0   1   27.40   11.90
  -4   0   1   25.00   12.70
   4   0  -1   48.80    8.40
   4   0  -1   -6.30    9.30
   3   0  -1   13.40    6.80
  -3   0   1   16.00    7.60
   3   0  -1   24.70    8.60
  -3   0   1   10.80    7.10
  -3   0   1   26.40    8.40
  -2   0   1    7.30    4.80
   2   0  -1    6.00    3.90
  -2   0   1   -1.50    4.70
   2   0  -1  -10.90    4.80
   2   0  -1   -2.80    4.30
  -2   0   1   -3.90    4.80
  -2   0   1    2.70    4.60
   2   0  -1   -1.40    4.30
  -1   0   1   -3.10    2.30
  -1   0   1   -1.50    2.50
   1   0  -1   -5.40    2.20
   1   0  -1   -5.40    2.40
  -1   0   1   -2.50    2.50
   1   0  -1   -3.90    2.30
   1   0  -1   -3.20    2.30
  -1   0   1   -5.90    2.30
  -1   0  -1   -2.20    2.70
  -1   0  -1   -2.90    2.60
   1   0   1   -3.20    2.50
  -1   0  -1   -5.40    2.60
  -1   0  -1   -4.30    2.50
   1   0   1   -4.80    2.50
   1   0   1   -2.60    2.70
   1   0   1   -4.70    2.50
   2   0   1   11.60    4.50
  -2   0  -1   -0.10    4.40
   2   0   1   -4.10    4.30
  -2   0  -1   -7.20    4.70
  -2   0  -1   -1.60    4.90
   2   0   1   -2.90    4.50
   2   0   1   -4.60    4.50
  -2   0  -1    1.20    4.90
  -3   0  -1   -3.80    7.80
   3   0   1    7.80    8.40
  -3   0  -1    8.40    7.90
   3   0   1   11.50    7.30
   3   0   1   -1.10    7.00
   3   0   1    0.40    6.30
  -3   0  -1    3.30    7.60
  -3   0  -1    5.30    7.20
   4   0   1   47.40    9.40
  -4   0  -1   52.39   13.50
   4   0   1   48.70   10.40
  -4   0  -1   35.80   13.60
  -4   0  -1   57.79   13.20
  -4   0  -1   43.80   12.40
   4  -1  -1   48.30   12.90
   4  -1  -1   81.39   14.40
  -4  -1   1   54.49   12.80
  -4  -1   1   41.00   12.60
   4  -1  -1   50.69   11.90
   4  -1  -1   50.99   10.60
  -4  -1   1   33.90   12.90
  -4  -1   1   35.90   12.30
  -4   1   1   35.50   13.10
  -4   1   1   24.80   12.60
  -4   1   1   51.79   12.50
  -4   1   1   33.70   13.10
  -3  -1   1  121.59   14.20
   3  -1  -1  143.99   13.00
  -3   1   1  123.09   14.60
   3   1  -1  120.69   12.80
   3   1  -1  156.78   11.60
  -2  -1   1   23.60    5.30
  -2  -1   1   29.60    5.20
  -2  -1   1   28.10    5.40
   2  -1  -1   42.90    5.80
   2  -1  -1   46.40    6.20
  -2  -1   1   34.10    5.80
   2  -1  -1   27.60    5.50
   2   1  -1   40.10    4.70
  -2   1   1   33.50    6.00
  -2   1   1   35.10    6.20
  -2   1   1   28.70    6.00
   2   1  -1   34.20    5.20
  -2   1   1   35.50    6.20
   1  -1  -1   41.70    4.10
  -1  -1   1   28.60    3.60
  -1  -1   1   34.10    3.20
   1  -1  -1   43.20    4.20
   1  -1  -1   25.90    3.70
  -1  -1   1   20.80    3.10
   1  -1  -1   31.50    3.80
  -1  -1   1   33.30    3.20
  -1   1   1   33.60    4.00
  -1   1   1   43.80    4.20
  -1   1   1   38.60    4.20
   1   1  -1   34.40    3.60
   1   1  -1   27.80    3.30
   1   1  -1   34.30    3.20
   1   1  -1   32.20    3.10
  -1   1   1   37.80    4.20
  -1  -1  -1   49.40    4.70
   1  -1   1   67.39    5.60
   1  -1   1   59.69    5.70
  -1  -1  -1   59.79    5.00
  -1  -1  -1   52.39    4.70
   1  -1   1   58.19    5.70
  -1   1  -1   42.60    5.50
  -1   1  -1   55.99    5.60
  -1   1  -1   57.39    5.60
   1   1   1   54.69    4.20
   1   1   1   55.59    4.80
  -1   1  -1   52.39    5.90
   1   1   1   60.09    5.20
  -2  -1  -1   60.69    6.40
   2  -1   1   65.19    8.50
   2  -1   1   74.09    7.40
  -2  -1  -1   63.39    6.60
  -2  -1  -1   47.40    6.20
  -2  -1  -1   62.89    6.80
   2  -1   1   51.49    6.50
  -2   1  -1   72.39    7.60
   2   1   1   55.39    6.20
  -2   1  -1   62.99    7.10
   2   1   1   66.19    7.50
  -2   1  -1   53.89    7.00
  -2   1  -1   68.19    7.20
   2   1   1   50.89    6.70
  -3   1  -1    8.60    7.90
  -4  -1  -1    0.40   12.10
   4  -1   1    8.90   11.00
   4  -1   1   27.20   12.80
  -4  -1  -1   -2.10   11.70
  -4  -1  -1   20.30   11.60
   4  -1   1    4.30   10.30
  -4  -1  -1    4.00   12.40
   4  -1   1   21.60   12.50
   4   1   1   18.60    8.70
  -4   1  -1   17.00   13.20
   4   1   1    4.10    5.40
  -4   1  -1   15.60   12.60
  -4   1  -1    5.60   11.80
  -4   1  -1   27.50   13.50
  -4  -2   1  536.55   30.90
   4  -2  -1  574.94   32.10
  -4  -2   1  548.85   30.50
   4  -2  -1  588.74   30.80
   4  -2  -1  585.04   29.80
  -4  -2   1  532.05   30.50
  -4  -2   1  566.94   30.30
   4   2  -1  518.05   29.50
  -4   2   1  585.84   32.50
  -4   2   1  566.54   33.70
  -4   2   1  555.24   33.00
  -4   2   1  538.45   32.70
   3  -2  -1   39.00    9.90
   3  -2  -1   46.20    9.10
   3  -2  -1   34.30    8.90
  -3  -2   1   42.10    8.10
   3  -2  -1   46.40    8.60
  -3  -2   1   46.40    8.00
  -3  -2   1   40.60    8.00
  -3  -2   1   48.60    8.20
  -3   2   1   49.20    9.60
   3   2  -1   33.90    7.60
  -3   2   1   35.20    9.60
  -3   2   1   35.60    9.80
  -3   2   1   21.80    8.30
   2  -2  -1  130.19   11.70
  -2  -2   1  134.39    9.00
  -2  -2   1  139.39    9.60
   2  -2  -1  172.08   11.50
   2  -2  -1  131.89   10.90
  -2  -2   1  143.99    9.30
  -2  -2   1  127.99    9.30
   2  -2  -1  156.78   11.30
  -2   2   1  149.88   11.70
  -2   2   1  139.59   11.50
  -2   2   1  151.68   11.30
   2   2  -1  140.39    9.10
  -2   2   1  157.18   11.40
   2   2  -1  121.69    9.10
   1  -2  -1  590.94   24.20
   1  -2  -1  581.54   24.30
  -1  -2   1  625.74   22.70
  -1  -2   1  572.64   22.90
   1  -2  -1  614.04   24.20
  -1  -2   1  553.94   22.80
   1  -2  -1  626.84   24.20
  -1   2   1  600.34   24.20
  -1   2   1  574.14   24.20
   1   2  -1  581.44   22.90
  -1   2   1  583.44   24.30
  -1   2   1  617.34   24.30
   1   2  -1  559.44   22.80
   0  -2  -1 1063.49   38.20
   0  -2  -1  970.40   38.00
   0  -2   1  899.81   37.90
   0  -2  -1 1100.29   38.20
   0  -2  -1 1086.09   38.20
   0  -2   1 1004.70   38.10
   0  -2   1  948.21   38.10
   0  -2   1  980.00   38.10
   0   2  -1  922.41   37.90
   0   2   1  912.51   37.90
   0   2  -1 1036.20   38.00
   0   2   1 1069.69   38.20
   1  -2   1 6819.02  247.58
  -1  -2  -1 5977.20  246.48
   1  -2   1 6767.52  247.78
   1  -2   1 6689.43  247.58
  -1  -2  -1 6626.64  246.78
  -1  -2  -1 6482.35  246.78
   1  -2   1 6677.33  247.68
  -1   2  -1 6420.56  247.68
  -1   2  -1 6699.53  247.68
   1   2   1 6368.66  246.68
  -1   2  -1 6810.92  247.58
   1   2   1 6598.44  246.88
  -1   2  -1 6585.14  247.68
  -2  -2  -1   43.50    5.80
  -2  -2  -1   54.49    7.10
  -2  -2  -1   51.99    5.80
   2  -2   1   72.59    7.60
   2  -2   1   52.29    7.00
   2  -2   1   35.90    6.00
  -2  -2  -1   54.79    5.90
   2   2   1   48.40    5.50
  -2   2  -1   48.90    6.70
   2   2   1   57.69    5.00
   2   2   1   49.50    5.60
  -2   2  -1   58.39    7.30
  -2   2  -1   46.40    6.80
  -2   2  -1   39.90    6.90
  -3  -2  -1  335.77   18.70
   3  -2   1  333.97   20.80
   3  -2   1  342.27   20.00
  -3  -2  -1  318.17   18.80
  -3  -2  -1  296.47   18.60
   3  -2   1  303.07   20.50
  -3  -2  -1  332.67   18.90
   3  -2   1  352.66   20.10
  -3   2  -1  304.97   20.60
  -3   2  -1  352.86   21.60
   3   2   1  318.17   18.10
  -3   2  -1  310.77   20.70
  -3   2  -1  355.96   21.50
   3   2   1  323.67   18.10
   4  -2   1   85.89   15.40
  -4  -2  -1   67.89   12.80
  -4  -2  -1   81.59   14.20
  -4  -2  -1   72.29   13.10
   4  -2   1  114.39   15.40
   4  -2   1  105.59   13.30
   4  -2   1  105.29   14.20
  -4  -2  -1   50.09   13.20
  -4   2  -1   90.49   15.80
   4   2   1   72.89   12.50
  -4   2  -1   65.59   14.40
  -4   2  -1   66.19   15.60
  -4   2  -1   75.49   14.50
  -4  -3   1   50.29   12.10
  -4  -3   1   68.09   13.10
  -4  -3   1   50.69   11.40
   4  -3  -1   60.19   14.10
   4  -3  -1   65.19   15.10
  -4  -3   1   62.39   12.70
   4  -3  -1   65.59   13.50
   4   3  -1   64.99   11.70
  -4   3   1   64.09   15.50
  -4   3   1   55.09   14.60
  -4   3   1   36.70   13.50
  -4   3   1   76.49   15.30
   3  -3  -1  813.92   35.40
  -3  -3   1  811.62   33.60
   3  -3  -1  801.52   35.20
   3  -3  -1  767.62   36.40
  -3  -3   1  782.22   33.20
  -3  -3   1  738.63   33.10
   3  -3  -1  703.83   35.10
  -3  -3   1  741.73   33.10
  -3   3   1  819.82   36.70
  -3   3   1  770.72   35.80
   3   3  -1  747.43   32.50
  -3   3   1  779.72   36.50
   3   3  -1  780.12   32.80
  -3   3   1  785.82   36.00
  -2  -3   1 1411.06   59.09
  -2  -3   1 1522.35   59.39
   2  -3  -1 1492.55   61.49
  -2  -3   1 1534.45   59.29
   2  -3  -1 1623.34   61.19
   2  -3  -1 1680.53   61.29
  -2  -3   1 1440.06   59.09
   2  -3  -1 1583.84   61.19
   2   3  -1 1494.95   59.19
  -2   3   1 1543.05   61.39
  -2   3   1 1618.54   61.39
  -2   3   1 1575.84   61.29
  -2   3   1 1517.65   61.09
   1  -3  -1 1932.61   76.19
   1  -3  -1 1856.11   75.99
   1  -3  -1 2100.39   76.19
   1  -3  -1 1999.70   76.09
  -1   3   1 1926.81   75.99
  -1   3   1 2026.50   76.19
  -1   3   1 1968.20   76.09
  -1   3   1 2036.70   76.19
   0  -3  -1 4521.85  162.78
   0  -3  -1 4183.88  162.58
   0  -3   1 4323.87  162.68
   0  -3   1 4020.40  162.58
   0  -3   1 4124.29  162.48
   0  -3  -1 4593.44  162.68
   0  -3  -1 4525.25  162.78
   0   3  -1 4379.46  162.58
   0   3   1 4207.38  162.48
   0   3  -1 4154.08  162.38
   0   3   1 4584.14  162.78
   0   3  -1 4298.67  162.68
   1  -3   1  223.58   12.30
  -1  -3  -1  231.88   10.30
  -1  -3  -1  226.28    9.90
   1  -3   1  244.68   12.10
   1  -3   1  242.68   12.10
   1  -3   1  256.57   12.20
   1   3   1  228.38   10.20
  -1   3  -1  232.88   12.10
  -1   3  -1  235.68   12.20
   1   3   1  226.28    9.80
  -1   3  -1  251.87   12.00
  -1   3  -1  237.48   12.00
  -2  -3  -1 2232.38   87.49
   2  -3   1 2414.36   89.29
  -2  -3  -1 2244.98   87.59
  -2  -3  -1 2262.87   87.59
   2  -3   1 2300.27   89.29
  -2  -3  -1 2155.08   87.39
   2  -3   1 2382.86   89.09
  -2   3  -1 2295.07   89.19
  -2   3  -1 2440.16   89.59
   2   3   1 2176.98   87.39
  -2   3  -1 2398.96   89.59
   2   3   1 2215.28   87.59
  -2   3  -1 2331.07   89.39
  -3  -3  -1   23.10    7.30
  -3  -3  -1   30.20    7.20
   3  -3   1   19.10    9.20
  -3  -3  -1   27.60    7.50
   3  -3   1   23.50    8.60
   3  -3   1   24.10    9.30
  -3  -3  -1   25.60    7.10
  -3   3  -1    9.20    8.60
   3   3   1   33.20    6.90
  -3   3  -1   23.50   10.10
   3   3   1   22.20    6.80
  -3   3  -1   30.40    9.70
  -3   3  -1    1.50    9.20
  -4  -3  -1  188.38   18.90
  -4  -3  -1  159.08   19.10
  -4  -3  -1  170.28   21.10
   4  -3   1  197.38   24.40
   4  -3   1  226.68   23.10
  -4  -3  -1  213.78   22.00
   4  -3   1  213.08   23.90
   4  -3   1  186.58   23.60
  -4   3  -1  232.08   26.40
   4   3   1  175.28   18.70
  -4   3  -1  194.48   24.70
  -4   3  -1  223.18   21.10
  -4   3  -1  199.78   24.30
   4  -4  -1  618.04   36.70
  -4  -4   1  648.24   33.30
   4  -4  -1  697.73   35.40
  -4  -4   1  631.74   31.40
  -4  -4   1  734.63   34.20
  -4  -4   1  628.64   32.20
  -4   4   1  676.93   38.10
  -4   4   1  723.43   39.00
  -4   4   1  692.23   39.10
  -4   4   1  649.43   37.20
   4   4  -1  601.64   31.50
   3  -4  -1    6.30    9.60
   3  -4  -1   23.00    9.40
   3  -4  -1   15.50    9.40
  -3  -4   1   20.70    7.20
  -3  -4   1   -3.70    6.80
  -3  -4   1   12.80    6.60
  -3  -4   1    3.70    6.30
   3  -4  -1    3.40    8.80
   3   4  -1    2.90    6.00
  -3   4   1    6.30    8.80
  -3   4   1   18.30    9.90
   3   4  -1   12.50    5.80
  -3   4   1   17.80   10.30
  -3   4   1    8.30    9.70
  -2  -4   1  855.31   34.60
   2  -4  -1  939.21   37.60
   2  -4  -1  913.11   38.10
   2  -4  -1  927.61   37.60
  -2  -4   1  816.12   34.50
  -2  -4   1  829.82   34.50
  -2  -4   1  845.42   34.70
   2  -4  -1  923.91   37.60
  -2   4   1  896.81   37.90
  -2   4   1  937.11   38.00
  -2   4   1  894.71   37.60
  -2   4   1  907.21   37.80
   1  -4  -1 3462.75  135.29
   1  -4  -1 3601.04  135.69
   1  -4  -1 3592.04  135.49
   1  -4  -1 3621.04  135.49
  -1   4   1 3567.54  135.59
  -1   4   1 3525.85  135.49
  -1   4   1 3620.54  135.59
  -1   4   1 3515.25  135.39
   0  -4  -1  818.82   30.20
   0  -4  -1  749.42   30.00
   0  -4   1  750.22   30.10
   0  -4   1  739.23   30.10
   0  -4  -1  808.12   30.20
   0  -4   1  752.22   30.00
   0  -4  -1  822.32   30.30
   0   4  -1  743.63   30.10
   0   4   1  725.33   29.90
   0   4  -1  765.32   29.70
   0   4  -1  782.22   29.90
   0   4   1  774.62   30.20
   1  -4   1 2168.38   86.69
   1  -4   1 2178.28   86.89
   1  -4   1 2294.87   86.69
   1  -4   1 2281.17   86.79
  -1   4  -1 2205.68   86.69
  -1   4  -1 2338.07   86.69
  -1   4  -1 2305.87   86.79
  -1   4  -1 2266.47   86.89
   2  -4   1   11.40    6.20
   2  -4   1    4.70    6.30
  -2  -4  -1    9.50    3.90
  -2  -4  -1    9.10    3.90
  -2  -4  -1    7.80    3.70
   2  -4   1  -13.10    6.70
  -2  -4  -1    6.60    3.80
   2  -4   1   12.80    6.40
   2   4   1   10.30    3.50
   2   4   1    7.10    3.90
  -2   4  -1    5.70    7.00
  -2   4  -1    4.00    5.60
  -2   4  -1    2.20    6.40
  -2   4  -1    4.50    5.80
  -3  -4  -1 1270.07   51.19
  -3  -4  -1 1198.88   50.99
  -3  -4  -1 1198.88   51.19
  -3  -4  -1 1238.98   51.39
   3  -4   1 1303.17   54.49
   3  -4   1 1365.76   53.99
   3  -4   1 1352.06   54.09
   3   4   1 1233.08   50.59
  -3   4  -1 1302.67   54.29
  -3   4  -1 1322.97   54.79
  -3   4  -1 1245.98   54.79
  -3   4  -1 1387.96   55.09
   3   4   1 1212.18   50.89
   4  -4   1  193.08   19.70
  -4  -4  -1  163.88   20.30
  -4  -4  -1  139.59   17.70
   4  -4   1  180.98   18.80
  -4  -4  -1  165.68   20.20
  -4  -4  -1  127.59   17.00
   4  -4   1  160.88   18.50
  -4   4  -1  192.68   20.70
   4   4   1  175.08   17.60
  -4   4  -1  147.89   19.50
  -4   4  -1  196.28   20.30
  -4   4  -1  194.98   20.80
   4  -5  -1   44.50   14.30
  -4  -5   1   17.30    9.10
   4  -5  -1   28.80   15.20
   4  -5  -1   27.80   15.60
  -4  -5   1   17.20   11.20
  -4  -5   1   -5.90   11.30
  -4  -5   1   22.90    9.80
  -4   5   1   35.50   15.30
  -4   5   1    2.80   14.70
  -4   5   1    1.30   16.50
  -4   5   1   47.40   16.60
   4   5  -1   22.60    9.30
   4   5  -1   -2.90    6.80
   3  -5  -1  546.15   28.40
   3  -5  -1  532.05   29.40
  -3  -5   1  505.95   23.60
   3  -5  -1  532.45   28.30
  -3  -5   1  498.95   23.30
  -3  -5   1  497.35   22.50
  -3  -5   1  512.25   22.90
   3  -5  -1  525.55   28.60
  -3   5   1  520.35   29.70
  -3   5   1  562.14   29.10
  -3   5   1  532.25   29.30
  -3   5   1  524.65   28.30
   3   5  -1  484.85   22.10
   3   5  -1  478.15   22.30
   2  -5  -1  424.36   22.00
   2  -5  -1  444.26   22.10
   2  -5  -1  414.76   22.60
   2  -5  -1  414.76   22.00
  -2   5   1  454.65   22.50
  -2   5   1  439.76   22.60
  -2   5   1  405.66   21.70
  -2   5   1  425.56   22.30
   1  -5  -1 1131.69   45.90
   1  -5  -1 1148.49   45.90
   1  -5  -1 1215.88   46.30
   1  -5  -1 1148.69   45.90
  -1   5   1 1099.99   45.70
  -1   5   1 1151.78   46.10
  -1   5   1 1124.29   46.00
  -1   5   1 1183.68   46.10
   0  -5   1 1896.51   74.99
   0  -5  -1 2087.49   75.09
   0  -5  -1 1859.11   74.89
   0  -5   1 1919.01   74.99
   0  -5  -1 1975.50   75.09
   0  -5  -1 2116.19   75.19
   0  -5   1 1932.01   74.89
   0   5  -1 2008.80   74.69
   0   5   1 1876.71   74.59
   0   5  -1 1773.32   75.79
   0   5  -1 1974.20   74.99
   0   5   1 2107.29   75.19
   0   5  -1 2040.80   74.49
   1  -5   1  208.88   12.30
   1  -5   1  219.38   12.20
   1  -5   1  180.58   12.60
   1  -5   1  191.88   11.90
  -1   5  -1  216.08   12.40
  -1   5  -1  201.08   12.20
  -1   5  -1  207.28   12.40
  -1   5  -1  196.18   11.90
   2  -5   1 1441.26   57.49
   2  -5   1 1531.35   57.29
   2  -5   1 1336.67   56.69
   2  -5   1 1383.46   56.79
  -2  -5  -1 1329.87   53.99
  -2  -5  -1 1269.77   53.69
  -2   5  -1 1516.85   57.49
  -2   5  -1 1457.25   56.89
  -2   5  -1 1345.57   56.99
  -2   5  -1 1443.66   57.19
   3  -5   1   31.90   10.30
  -3  -5  -1   25.30    7.40
  -3  -5  -1   30.90    7.00
  -3  -5  -1   33.10    7.00
  -3  -5  -1   25.80    6.30
   3  -5   1   -1.00   10.00
   3  -5   1   30.90   10.90
  -3   5  -1   33.80   11.40
   3   5   1   21.30    6.30
  -3   5  -1   34.80   11.20
  -3   5  -1    4.60    8.90
  -3   5  -1    9.80   10.00
   3   5   1   22.80    5.90
   4  -5   1  163.98   21.20
   4  -5   1  200.48   20.60
  -4  -5  -1  218.28   21.00
  -4  -5  -1  175.98   20.80
  -4  -5  -1  169.18   17.60
   4  -5   1  198.18   20.30
  -4  -5  -1  185.48   17.20
   4  -5   1  147.19   19.20
  -4   5  -1  214.08   22.60
  -4   5  -1  232.88   29.90
  -4   5  -1  148.09   19.50
  -4   5  -1  223.28   22.10
   4   5   1  199.48   16.80
  -4  -6   1   98.09   13.30
   4  -6  -1   77.69   18.80
   4  -6  -1  100.29   17.20
  -4  -6   1   91.59   13.00
   4  -6  -1  127.99   18.80
  -4   6   1   80.89   18.30
  -4   6   1   78.39   19.30
  -4   6   1   87.89   18.40
  -4   6   1   45.60   17.40
  -3  -6   1   92.89   10.90
   3  -6  -1   68.09   14.20
  -3  -6   1   85.19   10.80
   3  -6  -1   91.29   13.20
   3  -6  -1   69.89   12.90
   3  -6  -1   65.69   12.00
  -3   6   1   73.99   12.50
  -3   6   1   71.19   14.20
  -3   6   1   84.29   13.90
   2  -6  -1  291.97   19.70
   2  -6  -1  309.17   19.30
   2  -6  -1  317.07   19.00
   2  -6  -1  305.57   18.80
  -2   6   1  347.07   20.00
  -2   6   1  339.67   19.90
  -2   6   1  294.97   18.60
  -2   6   1  315.57   19.70
   1  -6  -1  963.80   39.90
   1  -6  -1  969.60   39.90
   1  -6  -1  988.30   40.40
   1  -6  -1  972.10   40.00
  -1   6   1  959.50   40.00
  -1   6   1  978.70   39.80
  -1   6   1  961.40   40.10
  -1   6   1 1024.90   40.10
   0  -6   1   10.70    4.00
   0  -6   1   10.70    3.90
   0  -6  -1    2.70    3.80
   0  -6  -1    2.80    3.90
   0  -6  -1   -2.10    3.70
   0  -6   1   13.20    3.70
   0  -6  -1    5.00    3.60
   0   6   1    5.00    3.70
   0   6  -1   10.70    3.50
   0   6  -1   13.30    3.70
   0   6   1   -1.40    3.20
   0   6   1    1.80    4.00
   0   6  -1    8.10    3.50
   1  -6   1  271.37   16.50
   1  -6   1  301.67   15.90
   1  -6   1  270.77   15.60
   1  -6   1  310.67   15.90
  -1   6  -1  291.27   15.90
  -1   6  -1  324.97   16.30
  -1   6  -1  309.77   16.10
  -1   6  -1  324.47   15.70
   2  -6   1   27.50    8.00
   2  -6   1   12.70    7.60
   2  -6   1   10.70    8.70
   2  -6   1   26.70    7.90
  -2   6  -1   32.80    8.50
  -2   6  -1   30.20    8.00
  -2   6  -1   23.00    7.80
  -2   6  -1   30.20    8.30
  -3  -6  -1  257.07   16.30
   3  -6   1  299.37   23.00
   3  -6   1  289.97   23.20
   3  -6   1  240.08   22.10
  -3  -6  -1  255.27   15.60
  -3   6  -1  291.67   24.20
  -3   6  -1  250.97   22.50
  -3   6  -1  289.77   24.10
   4  -6   1   50.59   17.70
   4  -6   1   40.80   18.00
  -4  -6  -1   36.80    9.90
   4  -6   1   72.89   18.00
   4  -6   1   37.10   16.60
  -4  -6  -1   21.50   12.10
  -4  -6  -1   34.60    9.10
  -4  -6  -1   27.60   11.50
  -4   6  -1   33.10   17.50
  -4   6  -1   28.60   17.40
  -4   6  -1   55.09   19.00
  -4   6  -1   68.79   18.60
   4  -7  -1   67.39   15.90
   4  -7  -1   38.90   17.40
  -4  -7   1   37.30   11.70
   4  -7  -1   62.89   18.40
  -4  -7   1   34.40   11.70
  -4   7   1   58.39   18.80
  -4   7   1   56.29   18.50
  -4   7   1   41.70   17.80
  -4   7   1   30.30   17.00
   3  -7  -1  135.99   16.20
  -3  -7   1  167.08   11.90
   3  -7  -1  138.89   16.60
  -3  -7   1  165.28   11.50
   3  -7  -1  137.99   16.30
  -3   7   1  137.99   16.70
  -3   7   1  120.39   16.50
  -3   7   1  133.39   16.20
   2  -7  -1    8.00    8.40
   2  -7  -1    9.70    7.90
   2  -7  -1   20.40    8.80
   2  -7  -1    4.60    9.10
  -2   7   1   18.40    8.70
  -2   7   1   16.10    8.00
  -2   7   1   13.80    8.50
  -2   7   1    6.30    8.80
   1  -7  -1   13.80    6.50
   1  -7  -1   23.80    6.00
   1  -7  -1   26.60    6.70
   1  -7  -1   22.10    6.60
  -1   7   1   19.10    5.90
  -1   7   1   16.00    6.50
  -1   7   1   24.90    6.20
  -1   7   1   18.20    6.90
   0  -7  -1  418.06   18.80
   0  -7  -1  435.36   19.20
   0  -7  -1  451.25   19.10
   0  -7   1  404.86   19.00
   0  -7   1  417.06   18.80
   0  -7  -1  455.75   19.40
   0  -7   1  429.86   19.10
   0   7  -1  409.96   18.80
   0   7  -1  442.66   17.60
   0   7   1  416.06   18.00
   0   7   1  438.46   18.90
   0   7  -1  395.66   18.80
   0   7  -1  409.86   17.90
   0   7   1  443.46   19.10
   1  -7   1  111.39   11.40
   1  -7   1  112.19   11.10
   1  -7   1   90.19   11.00
  -1   7  -1  105.89   11.70
  -1   7  -1  129.69   11.30
  -1   7  -1  116.19   11.70
  -1   7  -1  119.69   10.70
   2  -7   1  195.88   16.80
   2  -7   1  209.78   17.40
   2  -7   1  184.98   16.70
   2  -7   1  196.38   17.80
  -2   7  -1  209.98   16.80
  -2   7  -1  197.68   17.40
  -2   7  -1  195.08   17.20
  -2   7  -1  197.18   17.60
   3  -7   1   40.80   13.00
  -3   7  -1   53.99   13.50
  -3   7  -1   49.70   13.60
  -3   7  -1   63.39   14.00
   4  -7   1   84.09   20.60
   4  -7   1   52.09   17.90
  -4  -7  -1   78.69   12.70
   4  -7   1   74.19   19.10
   4  -7   1   87.39   19.80
  -4  -7  -1   67.69   13.60
  -4   7  -1  101.99   20.90
  -4   7  -1   45.30   19.30
  -4   7  -1   43.50   18.30
  -4   7  -1   94.59   20.60
   3  -8  -1   52.29   15.70
  -3  -8   1   43.50    6.10
   3  -8  -1   42.10   13.90
   3  -8  -1   57.29   14.40
  -3   8   1   38.60   13.80
  -3   8   1   49.00   14.80
  -3   8   1   35.00   14.30
   2  -8  -1   18.50    9.50
   2  -8  -1    6.70    8.60
   2  -8  -1   23.90    9.60
   2  -8  -1   12.60    9.50
  -2   8   1   11.60    8.70
  -2   8   1   16.90    9.00
  -2   8   1   25.40    9.90
  -2   8   1    6.80   10.10
   1  -8  -1   -3.50    6.50
   1  -8  -1   11.60    6.50
   1  -8  -1    7.60    6.80
   1  -8  -1   16.30    6.30
  -1   8   1    4.10    6.60
  -1   8   1    7.30    6.30
  -1   8   1   -0.20    5.70
  -1   8   1   12.90    6.90
   0  -8  -1   97.59    9.60
   0  -8   1  107.09    9.50
   0  -8  -1  104.09   10.00
   0  -8  -1   95.19    9.20
   0  -8   1  102.99    9.60
   0  -8   1  132.29   10.00
   0  -8  -1   79.69    8.40
   0   8  -1  106.89    9.20
   0   8  -1  105.99    9.40
   0   8   1   85.89    7.60
   0   8   1  104.89    7.40
   0   8  -1  118.39    6.80
   0   8   1  103.99    9.50
   0   8  -1  111.09    7.40
   0   8   1   83.69    9.20
   1  -8   1   92.79   11.40
  -1  -8  -1   81.39    6.80
   1  -8   1  104.69   11.90
   1  -8   1   93.39    9.40
  -1  -8  -1   74.29    7.50
   1  -8   1  101.19   10.20
  -1   8  -1   97.99   11.90
  -1   8  -1  101.99   10.80
  -1   8  -1  106.99   10.10
  -1   8  -1   97.09   12.00
   2  -8   1   47.30   10.70
   2  -8   1   59.59   10.60
   2  -8   1   54.99   10.70
  -2   8  -1   51.69   10.30
  -2   8  -1   56.19   10.40
  -2   8  -1   60.19   11.30
  -2   8  -1   72.29   10.60
  -3  -8  -1   64.39    7.80
   3  -8   1   56.69   17.80
  -3  -8  -1   92.59   10.80
   3  -8   1   72.19   15.00
   3  -8   1   64.79   13.50
  -3   8  -1   70.09   14.90
  -3   8  -1   98.49   23.70
  -3   8  -1   50.19   14.00
  -3   8  -1   91.19   15.60
   3  -9  -1  133.49   17.00
   3  -9  -1  169.18   20.80
   3  -9  -1  148.09   18.50
   3  -9  -1  226.98   28.10
  -3   9   1  106.19   17.90
  -3   9   1  136.59   18.40
  -3   9   1  124.99   17.10
  -3   9   1  131.89   17.60
   2  -9  -1   84.39   12.80
   2  -9  -1   63.79   10.90
   2  -9  -1   71.09   12.40
   2  -9  -1   73.09   13.40
  -2   9   1   57.39   10.50
  -2   9   1   53.99   11.60
  -2   9   1   58.79   11.70
  -2   9   1   69.69   12.10
   1  -9  -1  147.79   14.50
   1  -9  -1  127.59   13.30
  -1  -9   1  147.79    9.10
   1  -9  -1  146.29   14.60
  -1  -9   1  128.09    9.10
   1  -9  -1  143.69   14.80
  -1   9   1  145.29   14.40
  -1   9   1  126.49   12.70
  -1   9   1  137.79   14.40
  -1   9   1  138.89   13.60
   0  -9   1  627.84   27.80
   0  -9  -1  601.34   27.60
   0  -9   1  668.43   27.70
   0  -9  -1  641.84   28.00
   0  -9  -1  656.33   28.00
   0  -9   1  673.03   27.80
   0  -9  -1  686.03   28.30
   0   9   1  624.04   27.70
   0   9   1  574.54   25.60
   0   9  -1  629.64   27.40
   0   9   1  683.13   25.70
   0   9  -1  613.64   27.60
   0   9   1  663.73   27.70
   1  -9   1  286.87   17.70
  -1  -9  -1  216.68   13.10
  -1  -9  -1  218.48   12.80
   1  -9   1  298.37   17.40
   1  -9   1  295.17   17.40
  -1   9  -1  275.47   16.30
  -1   9  -1  267.07   17.20
  -1   9  -1  294.77   17.60
  -1   9  -1  270.77   17.50
   2  -9   1   94.79   12.70
   2  -9   1  148.59   19.00
   2  -9   1  114.59   13.50
  -2   9  -1  129.89   14.70
  -2   9  -1  124.09   14.00
  -2   9  -1  122.29   13.30
  -2   9  -1  115.89   13.50
   3  -9   1   31.00   14.40
   3  -9   1   18.70   17.60
  -3  -9  -1   34.00    6.60
   3  -9   1   47.80   15.10
  -3   9  -1   38.30   15.40
  -3   9  -1   23.20   15.30
  -3   9  -1   50.59   15.10
  -3   9  -1   16.80   15.10
   3 -10  -1   98.49   18.40
   3 -10  -1  113.99   19.70
   3 -10  -1  165.08   21.10
   3 -10  -1  104.79   16.00
  -3  10   1  127.39   18.70
  -3  10   1  129.89   19.50
  -3  10   1  113.99   17.40
  -3  10   1  118.49   19.20
   2 -10  -1  396.46   26.40
   2 -10  -1  464.95   29.00
   2 -10  -1  434.06   26.80
   2 -10  -1  450.45   27.20
  -2  10   1  448.66   25.60
  -2  10   1  454.75   26.70
  -2  10   1  357.26   27.30
  -2  10   1  439.46   27.60
   1 -10  -1  447.56   24.20
   1 -10  -1  428.76   23.20
   1 -10  -1  423.16   22.60
   1 -10  -1  411.96   23.50
  -1 -10   1  390.06   18.80
  -1 -10   1  375.06   18.70
  -1  10   1  431.86   22.70
  -1  10   1  412.86   22.80
  -1  10   1  430.26   23.50
  -1  10   1  434.26   21.60
   0 -10  -1    6.90    6.80
   0 -10   1   13.10    6.50
   0 -10   1   13.80    6.90
   0 -10  -1   17.90    6.70
   0 -10   1    9.00    6.60
   0 -10   1    1.30    6.50
   0 -10  -1   -5.00    6.30
   0 -10  -1   -9.60    6.60
   0  10  -1   17.70    6.00
   0  10  -1    3.00    6.00
   0  10   1  -15.00    5.10
   0  10   1   -0.60    6.10
   1 -10   1 1312.47   52.39
  -1 -10  -1 1092.99   49.20
  -1 -10  -1 1116.59   49.50
   1 -10   1 1274.77   52.59
   1 -10   1 1246.28   52.59
  -1  10  -1 1346.77   52.79
  -1  10  -1 1355.76   51.49
  -1  10  -1 1308.87   51.89
  -1  10  -1 1327.47   52.69
   2 -10   1   39.60   12.80
   2 -10   1   24.70   11.90
   2 -10   1   26.50   10.70
  -2  10  -1   46.50   12.40
  -2  10  -1   36.30   11.60
  -2  10  -1   35.60   12.60
  -2  10  -1   28.90   10.70
   3 -10   1  357.36   30.80
   3 -10   1  317.47   30.70
   3 -10   1  358.16   31.70
   3 -10   1  361.26   29.30
  -3  10  -1  366.46   31.00
  -3  10  -1  305.47   31.70
  -3  10  -1  356.06   31.30
  -3  10  -1  331.27   30.10
   3 -11  -1  476.75   35.10
   3 -11  -1  413.56   33.70
   3 -11  -1  437.46   33.60
   3 -11  -1  353.96   35.10
  -3  11   1  444.46   33.10
  -3  11   1  400.06   33.70
  -3  11   1  446.16   35.40
  -3  11   1  420.66   36.40
   2 -11  -1  142.89   17.30
   2 -11  -1  133.99   15.70
   2 -11  -1  148.29   16.90
   2 -11  -1  182.38   19.00
  -2  11   1  129.99   16.30
  -2  11   1  164.08   17.50
  -2  11   1  149.09   16.00
  -2  11   1  164.98   19.70
   1 -11  -1  135.49   17.80
   1 -11  -1  155.58   16.30
  -1 -11   1  157.48   12.10
  -1 -11   1  156.78   12.50
   1 -11  -1  156.68   18.70
   1 -11  -1  171.18   17.50
  -1  11   1  188.38   16.80
  -1  11   1  176.78   17.60
  -1  11   1  187.68   17.80
  -1  11   1  180.58   15.10
   0 -11  -1 1901.31   73.69
   0 -11   1 1966.80   73.49
   0 -11  -1 1774.92   73.89
   0 -11  -1 1853.01   73.59
   0 -11  -1 1920.81   73.99
   0 -11   1 1940.61   73.69
   0 -11   1 1699.43   73.49
   0 -11   1 1919.31   73.69
   0  11  -1 1874.21   73.29
   0  11   1 1764.92   73.29
   0  11   1 1848.42   73.29
   0  11  -1 1893.51   73.29
   1 -11   1  655.73   30.20
   1 -11   1  621.04   29.40
  -1 -11  -1  530.25   26.10
   1 -11   1  604.54   30.10
  -1 -11  -1  508.35   25.60
  -1  11  -1  590.74   29.60
  -1  11  -1  613.44   27.70
  -1  11  -1  596.54   30.00
  -1  11  -1  623.44   28.80
   2 -11   1  357.86   27.00
   2 -11   1  390.86   28.40
   2 -11   1  356.86   26.40
  -2  11  -1  395.86   28.20
  -2  11  -1  412.56   25.40
  -2  11  -1  420.16   27.10
  -2  11  -1  353.76   26.90
   3 -11   1   10.50   17.30
   3 -11   1   27.50   18.00
   3 -11   1    7.10   17.10
   3 -11   1   -9.20   16.60
  -3  11  -1   -9.60   16.10
  -3  11  -1   -8.90   17.60
  -3  11  -1   15.60   18.30
  -3  11  -1   26.00   15.90
   2 -12  -1   95.89   14.30
   2 -12  -1  129.59   17.80
   2 -12  -1  138.39   19.20
   2 -12  -1  120.09   17.10
  -2  12   1  109.59   14.60
  -2  12   1  140.69   17.50
  -2  12   1  150.18   17.80
  -2  12   1  118.69   16.50
   1 -12  -1   65.19   13.30
  -1 -12   1   61.59    8.40
  -1 -12   1   50.79    8.30
   1 -12  -1   83.19   11.90
   1 -12  -1   66.09   11.80
   1 -12  -1   65.29   12.80
  -1  12   1   55.59   10.60
  -1  12   1   56.09   11.90
  -1  12   1   70.79   12.10
  -1  12   1   54.99    9.80
   0 -12   1   24.20    8.60
   0 -12  -1   18.20    8.70
   0 -12   1    3.00    8.60
   0 -12  -1    6.30    8.60
   0 -12   1   20.40    8.70
   0 -12  -1   20.90    8.50
   0 -12   1    8.30    8.30
   0 -12  -1   18.10    9.40
   0  12   1   23.80    7.90
   0  12  -1   27.60    7.90
   0  12  -1    8.00    7.90
   0  12   1   17.60    8.40
   1 -12   1  820.02   37.70
   1 -12   1  780.82   36.60
   1 -12   1  847.62   37.80
  -1 -12  -1  695.73   33.50
  -1 -12  -1  685.73   33.10
  -1  12  -1  791.32   35.40
  -1  12  -1  842.92   37.40
  -1  12  -1  802.32   34.50
   2 -12   1   23.10   13.80
   2 -12   1   54.79   15.30
   2 -12   1   19.60   13.80
  -2  12  -1   28.80   14.20
  -2  12  -1   57.09   14.70
  -2  12  -1   48.00   12.60
  -2  12  -1    3.50   12.80
   2 -13  -1  125.49   16.50
   2 -13  -1  193.48   20.80
   2 -13  -1  197.28   22.10
   2 -13  -1  156.18   19.90
  -2  13   1  158.98   19.80
  -2  13   1  198.38   20.60
  -2  13   1  148.59   19.00
   1 -13  -1  173.18   22.00
   1 -13  -1  177.98   17.40
  -1 -13   1  149.99   15.40
   1 -13  -1  182.28   21.20
  -1 -13   1  140.29   15.20
   1 -13  -1  162.18   19.20
  -1  13   1  151.68   17.20
  -1  13   1  159.78   17.60
  -1  13   1  172.88   20.20
  -1  13   1  150.78   16.40
   0 -13   1  467.25   25.00
   0 -13   1  445.06   23.80
   0 -13  -1  433.46   25.50
   0 -13  -1  438.06   25.00
   0 -13   1  433.96   25.20
   0 -13  -1  408.26   24.30
   0 -13   1  453.45   24.50
  -1 -13  -1   68.29   10.10
   1 -13   1   66.59   13.60
   1 -13   1   65.29   13.70
   1 -13   1   81.09   14.00
   1 -13   1   64.39   12.00
  -1 -13  -1   58.29   10.20
  -1  13  -1   54.79   16.70
  -1  13  -1   36.00   12.20
  -1  13  -1   88.99   10.90
  -1  13  -1   74.69   11.30
   2 -13   1  240.28   28.10
  -2 -13  -1  221.98   15.80
   2 -13   1  254.97   28.00
  -2 -13  -1  230.58   15.50
   2 -13   1  243.68   27.00
   2 -13   1  215.08   26.20
  -2  13  -1  207.18   26.50
  -2  13  -1  247.68   26.70
  -2  13  -1  205.38   26.00
   2 -14  -1   84.19   17.20
   2 -14  -1  115.89   20.10
   2 -14  -1  114.59   20.00
  -2  14   1   99.19   19.70
  -2  14   1   84.39   18.10
  -2  14   1   86.09   17.90
   1 -14  -1  163.98   18.60
  -1 -14   1  167.68   17.60
   1 -14  -1  153.18   17.00
  -1 -14   1  152.88   17.10
   1 -14  -1  197.48   23.60
  -1  14   1  191.78   18.00
  -1  14   1  140.39   18.20
   0 -14   1  112.39   13.80
   0 -14   1  104.19   13.10
   0 -14  -1  103.99   13.00
   0 -14  -1  120.39   15.00
   0 -14   1  108.69   13.30
   0 -14  -1   99.69   13.60
   0 -14   1  114.69   14.20
   0  14  -1   93.49   12.80
   0  14   1   97.19   13.10
  -1 -14  -1  142.29   17.50
   1 -14   1  166.08   17.30
  -1 -14  -1  130.89   13.50
   1 -14   1  144.29   15.70
   1 -14   1  151.48   17.80
   1 -14   1  140.49   17.20
  -1  14  -1  135.69   17.80
  -1  14  -1  146.99   16.90
  -2 -14  -1   10.30    9.10
   2 -14   1  -10.70   16.50
   2 -14   1   -7.40   16.70
  -2 -14  -1   25.10    8.90
   2 -14   1   -9.10   17.50
   2 -14   1    6.30   15.40
  -2  14  -1  -14.00   16.40
  -2  14  -1  -17.20   14.60
  -2  14  -1   14.30   16.00
   1 -15  -1   -4.40   12.00
   1 -15  -1   27.90   15.30
  -1 -15   1    1.60   10.70
  -1 -15   1   -1.50   11.30
   1 -15  -1    9.90   14.80
  -1  15   1   21.30   14.20
  -1  15   1    6.10   10.80
  -1  15   1  -10.10   11.80
   0 -15   1   21.20   13.10
   0 -15   1   23.50   12.70
   0 -15   1  -11.60   12.00
   0 -15  -1   11.00   13.50
   0 -15  -1   -6.20   11.10
   0 -15   1  -21.60   11.10
   0 -15  -1   -1.00   11.80
   0 -15  -1   11.30   12.60
   0  15  -1   -2.00   11.70
   0  15   1   -7.90    8.70
   0  15  -1    0.50    8.80
   0  15   1  -10.10   11.80
   1 -15   1    5.40   14.60
   1 -15   1    0.70   15.10
  -1 -15  -1   28.50   12.10
  -1 -15  -1   -9.80   11.10
   1 -15   1  -22.60   14.60
   1 -15   1    0.10   12.30
  -1  15  -1    0.20   10.60
  -1  15  -1   11.70   15.50
  -1  15  -1   13.40   12.20
  -4   0   2   74.19   14.10
  -4   0   2   52.19   13.90
  -4   0   2   68.09   13.40
   4   0  -2   63.39   10.60
  -4   0   2   65.59   13.80
   3   0  -2 2489.95   93.59
  -3   0   2 2416.66   94.99
  -3   0   2 2395.36   94.49
   3   0  -2 2356.26   93.19
  -3   0   2 2428.66   94.59
   3   0  -2 2384.56   94.39
  -3   0   2 2518.15   94.99
   3   0  -2 2362.76   94.69
  -2   0   2   91.59    9.70
   2   0  -2   93.59    9.90
  -2   0   2   97.49    9.80
   2   0  -2  106.79    8.90
   2   0  -2  101.59    8.50
  -2   0   2   89.39    9.20
   2   0  -2   96.49    9.20
  -2   0   2  103.09    9.70
   1   0  -2 4171.38  139.99
  -1   0   2 3663.43  139.89
  -1   0   2 3723.63  139.99
   1   0  -2 3696.03  139.79
  -1   0   2 3718.23  139.89
   1   0  -2 3782.32  139.99
  -1   0   2 3689.83  139.99
   1   0  -2 3189.88  139.79
  -1   0  -2 9531.15  364.66
  -1   0  -2 9899.11  364.66
  -1   0  -2 9926.31  364.66
   1   0   2 9741.83  364.66
   1   0   2 9588.24  364.46
   1   0   2 9999.00  364.66
  -1   0  -2 9361.46  364.56
   1   0   2 9674.33  364.66
   2   0   2 1269.47   51.19
  -2   0  -2 1293.77   51.19
  -2   0  -2 1244.88   51.09
  -2   0  -2 1301.57   51.39
   2   0   2 1336.47   51.39
   2   0   2 1298.87   50.79
   2   0   2 1286.17   50.89
  -2   0  -2 1283.47   51.29
   3   0   2   62.79    9.80
   3   0   2   79.89    9.20
   3   0   2   78.39    9.60
  -3   0  -2   77.29   10.20
  -3   0  -2   76.79   10.40
  -3   0  -2   75.29   10.20
  -3   0  -2   82.39   10.80
   3   0   2   70.99   10.30
   4   0   2  419.96   31.10
  -4   0  -2  421.16   29.10
  -4   0  -2  404.86   28.20
   4   0   2  442.56   24.60
  -4   0  -2  417.16   27.10
  -4   0  -2  406.36   28.50
  -4  -1   2  372.16   26.40
  -4  -1   2  419.36   27.00
   4  -1  -2  395.06   23.60
  -4  -1   2  414.26   27.30
   4  -1  -2  411.16   24.50
  -4  -1   2  430.96   26.60
   4  -1  -2  361.26   26.40
  -4   1   2  383.56   28.60
  -4   1   2  406.66   27.60
  -4   1   2  411.36   28.10
  -4   1   2  410.16   28.10
   3  -1  -2   16.80    7.20
  -3  -1   2   -2.80    7.90
   3  -1  -2   -7.80    7.30
  -3  -1   2   -3.60    7.00
   3  -1  -2    5.90    7.90
  -3  -1   2    4.00    7.50
  -3  -1   2   -0.70    7.20
   3  -1  -2    7.80    6.80
  -3   1   2    6.80    7.80
  -3   1   2   12.00    8.30
  -3   1   2    1.30    8.20
   3   1  -2   14.00    5.90
  -3   1   2   -5.90    8.30
   3   1  -2    0.30    5.80
   3   1  -2    6.30    7.00
  -2  -1   2 1695.83   64.89
  -2  -1   2 1634.34   64.49
   2  -1  -2 1658.43   64.79
   2  -1  -2 1600.54   65.09
  -2  -1   2 1672.23   64.69
   2  -1  -2 1601.14   65.39
  -2  -1   2 1606.04   64.49
   2  -1  -2 1731.43   64.99
  -2   1   2 1757.22   65.39
   2   1  -2 1747.63   64.09
  -2   1   2 1670.93   65.19
   2   1  -2 1581.54   63.69
  -2   1   2 1654.83   65.19
   2   1  -2 1648.14   64.59
  -2   1   2 1703.23   65.39
   1  -1  -2  344.17   15.30
  -1  -1   2  352.56   14.60
   1  -1  -2  355.16   15.20
   1  -1  -2  350.76   15.20
   1  -1  -2  370.06   15.30
  -1  -1   2  330.77   14.50
  -1  -1   2  367.16   14.70
  -1  -1   2  324.27   14.40
   1   1  -2  351.46   14.50
  -1   1   2  338.57   15.20
  -1   1   2  349.47   15.30
   1   1  -2  399.16   14.60
  -1   1   2  332.17   15.20
   1   1  -2  320.77   14.10
  -1   1   2  345.87   15.30
   0  -1   2   46.10    3.50
   0  -1  -2   34.60    4.40
   0  -1   2   33.40    3.90
   0  -1  -2   33.50    3.50
   0  -1  -2   37.00    3.40
   0  -1   2   37.60    4.10
   0  -1  -2   34.70    3.70
   0  -1   2   32.80    3.50
   0   1   2   32.30    3.80
   0   1  -2   36.60    4.50
   0   1   2   42.70    3.60
   0   1  -2   36.50    3.50
   0   1   2   33.40    4.10
   0   1  -2   32.90    3.50
   0   1   2   33.60    3.40
   1  -1   2 7725.23  297.67
   1  -1   2 8047.29  297.77
   1  -1   2 8091.69  297.57
   1  -1   2 8010.80  297.67
  -1  -1  -2 7898.21  297.37
  -1  -1  -2 7595.04  297.17
  -1  -1  -2 8248.67  297.57
  -1  -1  -2 8038.30  297.37
  -1   1  -2 7856.71  297.67
   1   1   2 8408.16  297.57
  -1   1  -2 7659.03  297.57
   1   1   2 7636.54  296.97
   1   1   2 7881.81  297.37
  -1   1  -2 7765.32  297.67
  -2  -1  -2  715.13   30.50
   2  -1   2  728.43   30.80
   2  -1   2  763.52   31.50
   2  -1   2  754.02   31.30
   2  -1   2  752.92   30.90
  -2  -1  -2  731.93   30.70
  -2  -1  -2  717.53   30.60
  -2  -1  -2  733.43   30.70
   2   1   2  729.73   29.80
  -2   1  -2  755.52   31.40
   2   1   2  712.63   30.50
   2   1   2  770.52   30.40
  -2   1  -2  727.83   31.00
  -2   1  -2  733.53   31.30
  -2   1  -2  713.13   31.20
  -3  -1  -2  873.01   38.50
   3  -1   2  924.01   38.30
   3  -1   2  883.61   39.50
  -3  -1  -2  896.71   38.60
   3  -1   2  921.21   38.50
  -3  -1  -2  889.81   38.80
   3  -1   2  859.91   39.20
  -3  -1  -2  904.11   38.90
   3   1   2  912.11   36.70
   3   1   2  883.41   37.40
  -3   1  -2  879.11   39.30
  -3   1  -2  917.91   39.70
  -3   1  -2  878.11   39.40
   3   1   2  874.11   38.30
  -3   1  -2  915.11   39.80
  -4  -1  -2   -0.40   12.40
   4  -1   2   23.80   10.90
  -4  -1  -2   -6.10   11.10
   4  -1   2    1.50   12.60
  -4  -1  -2    9.10   12.20
   4  -1   2    3.70   13.20
   4  -1   2   13.50   11.20
  -4  -1  -2   20.60   11.60
   4   1   2    3.80    5.90
  -4   1  -2    3.30   13.00
  -4   1  -2   28.60   13.50
   4   1   2    8.80    9.10
  -4   1  -2   22.00   13.20
  -4   1  -2    2.80   12.20
  -4  -2   2   55.49   12.60
  -4  -2   2   19.10   11.40
   4  -2  -2   70.89   13.80
  -4  -2   2   24.60   12.10
   4  -2  -2   50.19   12.50
  -4  -2   2   56.89   12.30
  -4   2   2   53.29   14.20
  -4   2   2   40.30   14.60
  -4   2   2   30.40   13.40
  -4   2   2   47.00   14.00
   3  -2  -2  568.44   26.20
   3  -2  -2  515.65   26.60
  -3  -2   2  547.25   25.40
  -3  -2   2  516.65   25.00
   3  -2  -2  521.15   25.80
  -3  -2   2  516.15   24.80
  -3  -2   2  527.55   25.40
   3  -2  -2  511.35   27.00
   3   2  -2  532.65   24.70
  -3   2   2  508.75   27.40
  -3   2   2  541.55   27.00
   3   2  -2  507.25   24.70
  -3   2   2  485.55   26.70
  -3   2   2  547.75   27.40
   2  -2  -2   13.60    5.70
  -2  -2   2    9.10    4.40
  -2  -2   2    5.60    4.40
   2  -2  -2    2.40    5.70
  -2  -2   2    6.40    4.50
  -2  -2   2    6.80    4.70
   2  -2  -2    6.80    5.50
   2  -2  -2   11.10    4.90
  -2   2   2    6.00    5.20
   2   2  -2    4.10    4.30
   2   2  -2    0.00    4.20
  -2   2   2   14.20    6.00
  -2   2   2    3.20    5.40
  -2   2   2   13.20    5.70
  -1  -2   2  778.62   29.80
   1  -2  -2  739.53   30.80
  -1  -2   2  825.22   29.80
   1  -2  -2  710.63   30.80
   1  -2  -2  800.12   30.90
  -1  -2   2  699.73   29.40
   1  -2  -2  768.02   30.80
  -1  -2   2  747.43   29.70
  -1   2   2  778.02   31.00
  -1   2   2  760.02   30.80
   1   2  -2  770.92   29.70
  -1   2   2  796.22   30.90
   1   2  -2  785.72   29.70
  -1   2   2  774.92   30.80
   0  -2   2  848.62   32.10
   0  -2  -2  885.91   32.10
   0  -2   2  828.82   32.10
   0  -2  -2  886.31   32.00
   0  -2   2  821.62   32.00
   0  -2  -2  852.11   32.10
   0  -2   2  788.12   31.80
   0   2  -2  765.72   31.70
   0   2   2  874.11   32.10
   0   2  -2  813.22   31.90
   0   2   2  774.22   31.90
   0   2   2  818.12   31.90
   0   2   2  702.93   31.90
   0   2  -2  835.82   32.00
   0   2  -2  885.41   32.30
   1  -2   2  560.54   23.40
   1  -2   2  580.94   23.40
  -1  -2  -2  567.34   22.60
  -1  -2  -2  564.84   22.70
   1  -2   2  573.04   23.50
  -1  -2  -2  528.95   22.20
   1  -2   2  562.54   23.20
  -1  -2  -2  566.84   22.50
  -1   2  -2  511.35   23.30
   1   2   2  553.14   22.40
   1   2   2  616.44   22.00
  -1   2  -2  530.85   23.30
  -1   2  -2  579.04   23.40
   1   2   2  509.55   21.60
   1   2   2  571.04   22.70
  -1   2  -2  578.24   23.20
   2  -2   2   80.69    8.80
  -2  -2  -2   92.59    8.60
   2  -2   2   83.09   10.60
  -2  -2  -2   82.49    8.80
  -2  -2  -2  107.59    8.60
  -2  -2  -2   88.99    8.80
   2  -2   2   83.09   10.20
   2  -2   2   95.89   10.40
   2   2   2   95.99    8.80
   2   2   2   95.09    8.30
  -2   2  -2   93.69   10.60
  -2   2  -2   96.89   10.90
   2   2   2   96.09    6.80
  -2   2  -2   91.89   10.60
   2   2   2   81.49    8.40
  -2   2  -2   96.29   10.70
   3  -2   2   16.30    9.10
   3  -2   2   13.20    8.80
  -3  -2  -2   10.70    7.40
   3  -2   2   19.60    8.90
  -3  -2  -2    9.70    7.40
   3  -2   2   19.30    8.50
  -3  -2  -2   19.10    7.60
  -3  -2  -2   27.70    8.20
  -3   2  -2   12.20    8.30
  -3   2  -2   12.30    8.40
   3   2   2   17.90    6.20
  -3   2  -2    7.30    9.00
  -3   2  -2   17.20    9.20
   3   2   2   21.80    7.40
   3   2   2   14.10    7.20
   3   2   2   14.20    4.70
  -4  -2  -2  300.97   24.50
  -4  -2  -2  252.97   23.20
  -4  -2  -2  257.77   22.00
   4  -2   2  252.57   25.10
  -4  -2  -2  205.48   21.40
   4  -2   2  273.77   22.80
   4  -2   2  233.48   24.50
   4  -2   2  246.28   23.50
  -4   2  -2  262.47   26.10
  -4   2  -2  252.77   25.30
  -4   2  -2  258.57   25.70
   4   2   2  215.08   21.40
  -4   2  -2  239.88   24.90
   4  -3  -2   28.50   12.50
   4  -3  -2   50.09   14.50
   4  -3  -2   18.60   11.70
  -4  -3   2   16.70   11.80
  -4  -3   2   48.80   12.60
  -4  -3   2   13.90   11.60
  -4  -3   2    4.40   10.70
   4  -3  -2   36.60   13.70
  -4   3   2   27.20   13.70
  -4   3   2   28.70   14.30
  -4   3   2   18.00   14.50
   4   3  -2   42.70   11.40
  -4   3   2   37.30   15.40
   4   3  -2    7.10    7.30
   3  -3  -2   26.50    8.80
   3  -3  -2   20.40    8.40
   3  -3  -2    2.10    9.00
   3  -3  -2   14.70    8.50
  -3   3   2   20.60    8.80
  -3   3   2    1.20    8.60
  -3   3   2   15.00    9.60
   2  -3  -2   87.99   10.50
  -2  -3   2   60.29    7.40
  -2  -3   2   57.39    5.90
  -2  -3   2   59.19    6.90
   2  -3  -2   60.99    7.70
   2  -3  -2   47.60    8.40
   2  -3  -2   92.19   10.70
  -2  -3   2   55.29    6.20
  -2   3   2   71.39    8.40
  -2   3   2   65.69    7.60
   2   3  -2   57.39    5.90
   2   3  -2   65.89    6.80
  -2   3   2   70.39    8.80
  -1  -3   2  130.89    6.70
  -1  -3   2  143.69    7.10
   1  -3  -2  129.49    9.40
   1  -3  -2  133.39    9.50
   1  -3  -2  145.79    9.20
   1  -3  -2  138.59    8.90
   1   3  -2  140.69    6.60
  -1   3   2  131.79    9.00
  -1   3   2  138.49    9.30
  -1   3   2  146.59    9.70
   1   3  -2  151.58    7.10
  -1   3   2  135.89    9.20
   0  -3   2  918.61   37.10
   0  -3   2  914.21   37.20
   0  -3  -2  947.61   37.10
   0  -3   2  983.10   37.30
   0  -3  -2 1035.20   37.30
   0  -3  -2  989.30   37.30
   0  -3   2  905.81   36.90
   0  -3  -2 1063.99   37.40
   0   3   2 1005.40   37.30
   0   3  -2  904.21   36.80
   0   3   2  921.71   37.00
   0   3   2  968.60   37.10
   0   3  -2  915.11   37.10
   0   3   2  965.00   37.80
   0   3  -2  968.00   37.10
   1  -3   2   62.49    7.40
   1  -3   2   71.69    7.40
  -1  -3  -2   69.49    6.00
  -1  -3  -2   72.49    5.10
  -1  -3  -2   66.69    5.00
   1  -3   2   73.39    7.50
   1  -3   2   71.59    7.20
  -1  -3  -2   71.09    5.60
   1   3   2   57.49    5.80
  -1   3  -2   60.29    7.30
  -1   3  -2   66.69    7.10
   1   3   2   74.19    5.40
  -1   3  -2   74.79    7.40
  -1   3  -2   60.69    7.50
  -2  -3  -2   65.59    6.60
   2  -3   2   76.99    8.60
  -2  -3  -2   97.79    8.30
   2  -3   2   47.80    7.80
  -2  -3  -2   60.99    6.50
   2  -3   2   69.39    8.20
  -2  -3  -2   64.89    8.00
   2  -3   2   94.89    9.60
  -2   3  -2   59.99    8.40
   2   3   2   65.29    7.60
  -2   3  -2   49.40    7.60
  -2   3  -2   78.09    8.80
  -2   3  -2   78.29    8.50
   2   3   2   75.89    8.00
   3  -3   2  238.48   18.90
  -3  -3  -2  247.58   16.40
   3  -3   2  263.57   19.80
  -3  -3  -2  215.18   15.90
  -3  -3  -2  243.78   16.60
  -3  -3  -2  223.38   15.70
   3  -3   2  293.27   19.60
   3  -3   2  260.97   19.90
  -3   3  -2  200.68   18.70
  -3   3  -2  265.77   20.80
   3   3   2  257.47   15.50
  -3   3  -2  277.87   19.90
   3   3   2  245.88   15.60
  -3   3  -2  242.38   20.40
   4  -3   2   35.60   14.50
  -4  -3  -2    7.50   10.70
   4  -3   2   28.40   13.20
  -4  -3  -2    8.80   10.40
  -4  -3  -2   36.80   12.60
  -4  -3  -2   13.90   12.40
   4  -3   2   41.90   14.00
   4  -3   2   29.90   13.80
  -4   3  -2    9.50   14.00
   4   3   2   -0.30    8.00
  -4   3  -2   11.20   14.30
   4   3   2   22.30   11.00
  -4   3  -2    2.60   14.40
  -4   3  -2   28.80   13.80
  -4  -4   2   83.39   12.00
  -4   4   2   45.10   15.10
  -4   4   2   60.19   17.00
   4   4  -2   85.89   11.60
  -4   4   2   46.30   16.30
  -4   4   2  102.49   17.10
  -3  -4   2    1.00    6.70
   3  -4  -2  -10.10    9.50
  -3  -4   2    1.10    6.50
  -3  -4   2  -13.90    6.40
   3  -4  -2   -7.00    7.90
   3  -4  -2   -3.60    8.50
   3  -4  -2   -5.00    8.90
  -3  -4   2   -5.90    6.20
   3   4  -2    1.60    5.50
  -3   4   2   -8.10    9.40
  -3   4   2    8.80    9.40
  -3   4   2   -0.60    9.90
   3   4  -2   -6.20    5.90
  -3   4   2   -6.10    9.10
   2  -4  -2    8.20    7.50
  -2  -4   2   22.90    4.30
   2  -4  -2   26.50    6.90
  -2  -4   2   19.60    3.80
  -2  -4   2   16.30    3.90
   2  -4  -2   25.40    6.80
  -2  -4   2   12.60    4.20
   2  -4  -2   22.10    5.90
   2   4  -2   16.50    4.10
  -2   4   2   18.20    6.80
  -2   4   2   27.50    7.40
  -2   4   2   23.10    7.00
  -2   4   2   22.80    6.50
   1  -4  -2  617.24   25.90
   1  -4  -2  625.94   25.60
   1  -4  -2  626.34   25.60
   1  -4  -2  567.14   25.80
  -1   4   2  608.94   25.80
  -1   4   2  590.24   25.60
  -1   4   2  624.04   25.80
  -1   4   2  567.14   25.70
   0  -4   2  128.59    7.70
   0  -4   2  133.09    7.70
   0  -4  -2  141.79    7.90
   0  -4  -2  145.59    7.90
   0  -4   2  130.99    7.40
   0  -4   2  122.29    7.30
   0  -4  -2  138.49    7.50
   0  -4  -2  137.69    7.70
   0   4  -2  133.59    7.40
   0   4   2  143.49    7.40
   0   4   2  127.09    7.40
   0   4  -2  119.69    6.70
   0   4   2  151.48    7.80
   1  -4   2  120.79    9.10
  -1  -4  -2  121.69    6.30
   1  -4   2  113.29    9.30
  -1  -4  -2  107.09    6.40
   1  -4   2  113.09    8.90
   1  -4   2  122.39    9.40
  -1  -4  -2  116.89    6.90
  -1  -4  -2  109.79    6.90
   1   4   2  107.19    6.70
  -1   4  -2  118.39    9.50
  -1   4  -2  119.89    8.80
  -1   4  -2   96.19    9.00
  -1   4  -2  115.69    9.30
   1   4   2  119.59    6.80
  -2  -4  -2   94.09    8.40
   2  -4   2   59.89    8.20
   2  -4   2   43.70    7.70
   2  -4   2   68.29    8.60
   2  -4   2   57.19    8.30
  -2  -4  -2   77.39    7.70
  -2  -4  -2   71.39    7.60
  -2  -4  -2   73.99    7.90
  -2   4  -2   54.29    8.50
   2   4   2   60.49    7.80
  -2   4  -2   60.79    8.30
  -2   4  -2   48.30    8.50
   2   4   2   67.29    7.00
  -2   4  -2   72.89    9.00
  -3  -4  -2   19.30    7.40
   3  -4   2    4.60    9.10
  -3  -4  -2   16.90    7.10
  -3  -4  -2    2.40    6.30
   3  -4   2   16.20   10.70
   3  -4   2   27.30    9.80
  -3  -4  -2   21.20    7.40
   3  -4   2   17.80   10.20
   3   4   2   10.00    6.30
  -3   4  -2   -2.00   10.20
  -3   4  -2   22.90   10.00
  -3   4  -2    7.70   10.30
  -3   4  -2   -5.30    8.80
   3   4   2   14.40    6.40
  -4  -4  -2    3.40   10.20
   4  -4   2   14.10   14.50
  -4  -4  -2  -19.00   10.70
   4  -4   2   43.20   15.50
  -4  -4  -2   24.00    9.90
   4  -4   2   17.90   14.80
  -4  -4  -2   -2.10   11.70
  -4   4  -2   22.30   15.20
  -4   4  -2    9.80   14.30
  -4   4  -2  -12.10   15.00
  -4   4  -2   15.10   15.70
   4   4   2   12.90   10.10
   4   4   2    8.00    8.00
   4  -5  -2   86.39   15.80
   4  -5  -2   62.89   16.40
  -4  -5   2  130.89   14.30
  -4  -5   2   74.19   13.40
  -4  -5   2   96.59   11.60
   4  -5  -2   98.29   16.40
  -4  -5   2   78.09   10.70
   4  -5  -2  104.69   17.40
  -4   5   2  109.49   19.50
  -4   5   2   97.89   18.60
  -4   5   2   88.89   18.90
   4   5  -2   87.89   11.20
  -4   5   2   98.79   18.00
   3  -5  -2   32.30    9.30
   3  -5  -2   32.80   11.80
   3  -5  -2   31.30   10.90
   3  -5  -2   27.40   10.30
  -3   5   2   27.70   11.40
  -3   5   2   37.30   11.40
  -3   5   2   34.80   10.90
  -3   5   2   32.90   10.20
   2  -5  -2  217.48   17.20
   2  -5  -2  235.98   15.80
   2  -5  -2  254.37   16.30
   2  -5  -2  236.08   16.30
  -2   5   2  243.48   16.50
  -2   5   2  227.98   16.10
  -2   5   2  238.08   16.50
  -2   5   2  237.78   16.60
   1  -5  -2  522.75   23.50
   1  -5  -2  540.55   23.40
   1  -5  -2  564.54   23.70
  -1   5   2  514.15   23.30
  -1   5   2  511.75   23.10
  -1   5   2  529.15   23.50
  -1   5   2  509.85   23.40
   0  -5  -2  494.55   20.50
   0  -5  -2  503.85   20.40
   0  -5  -2  506.35   20.50
   0  -5  -2  471.95   20.20
   0  -5   2  453.45   20.00
   0  -5   2  475.05   20.30
   0  -5   2  499.15   20.50
   0  -5   2  498.25   20.40
   0   5  -2  492.55   19.90
   0   5  -2  455.95   20.20
   0   5   2  508.95   20.50
   0   5  -2  480.75   19.60
   0   5   2  536.55   20.10
   0   5   2  440.76   19.90
   1  -5   2  197.38   12.00
  -1  -5  -2  204.18    9.30
   1  -5   2  194.08   12.40
  -1  -5  -2  216.98    9.00
  -1  -5  -2  189.68    9.40
   1  -5   2  178.38   11.90
  -1  -5  -2  196.78    9.70
  -1   5  -2  183.68   12.20
  -1   5  -2  183.98   11.80
  -1   5  -2  183.68   12.10
   1   5   2  193.28    9.10
   1   5   2  190.58    9.50
  -1   5  -2  207.28   12.50
   2  -5   2    9.60    6.90
  -2  -5  -2   10.70    4.20
  -2  -5  -2   10.90    5.00
  -2  -5  -2    9.20    4.60
  -2  -5  -2    5.40    4.00
   2  -5   2    7.70    7.00
   2  -5   2    3.80    7.30
  -2   5  -2    4.00    7.30
   2   5   2    0.60    4.60
  -2   5  -2    1.50    7.20
   2   5   2    5.10    3.50
  -2   5  -2   -1.30    6.80
  -2   5  -2    8.20    6.80
   3  -5   2  148.19   18.80
  -3  -5  -2  142.19   13.40
  -3  -5  -2  147.19   12.50
  -3  -5  -2  117.39   11.60
   3  -5   2  145.49   18.70
  -3  -5  -2  129.09   12.90
   3  -5   2  141.99   17.90
   3  -5   2  128.09   14.50
   3   5   2  116.59   10.80
  -3   5  -2  126.29   14.80
  -3   5  -2  109.09   12.80
  -3   5  -2   98.19   13.60
  -3   5  -2  137.09   15.40
   3   5   2  130.59   12.20
  -4  -5  -2   -1.90   10.90
   4  -5   2   35.20   15.60
  -4  -5  -2   28.20   12.40
  -4  -5  -2    6.40    9.80
   4  -5   2   43.30   16.00
   4  -5   2   41.70   16.80
   4  -5   2   57.29   16.40
  -4  -5  -2   -3.00    9.70
   4   5   2    7.00    8.00
  -4   5  -2   30.80   16.20
  -4   5  -2   16.10   15.90
  -4   5  -2   13.70   15.60
  -4   5  -2   31.40   17.30
   4   5   2    4.80    9.60
   4  -6  -2   60.79   15.80
   4  -6  -2   30.40   16.70
   4  -6  -2   29.40   15.10
  -4  -6   2   19.50   11.30
   4  -6  -2   20.70   16.40
  -4  -6   2   49.00   11.70
  -4   6   2    0.20   17.30
  -4   6   2   41.20   18.00
  -4   6   2   42.50   17.60
  -4   6   2   65.09   18.50
   3  -6  -2  510.15   29.10
   3  -6  -2  505.45   28.60
   3  -6  -2  527.95   28.60
  -3  -6   2  468.15   22.80
   3  -6  -2  478.05   30.30
  -3  -6   2  462.65   22.50
  -3   6   2  498.15   29.70
  -3   6   2  511.65   30.30
  -3   6   2  570.84   29.70
   2  -6  -2   23.20    8.20
   2  -6  -2    6.50    8.10
   2  -6  -2   24.60    8.30
   2  -6  -2   22.00    8.10
  -2   6   2   26.90    8.20
  -2   6   2   19.90    8.60
  -2   6   2   23.10    8.90
  -2   6   2   17.60    7.60
   1  -6  -2 1382.66   55.49
   1  -6  -2 1417.56   55.29
   1  -6  -2 1411.26   55.49
   1  -6  -2 1336.47   55.09
  -1   6   2 1391.16   55.39
  -1   6   2 1352.46   54.99
  -1   6   2 1440.56   55.49
  -1   6   2 1389.76   55.29
   0  -6  -2 1052.99   39.30
   0  -6   2  899.81   38.90
   0  -6   2  968.10   38.80
   0  -6  -2 1004.80   39.00
   0  -6  -2 1082.59   39.30
   0  -6   2  997.10   39.20
   0  -6  -2 1074.19   39.30
   0  -6   2  958.80   39.10
   0   6   2  926.81   38.50
   0   6   2  991.30   39.20
   0   6  -2  977.20   38.40
   0   6  -2  828.72   39.50
   0   6  -2  993.90   38.20
   0   6  -2  976.10   39.00
   0   6   2 1057.09   38.60
   1  -6   2  375.06   18.00
  -1  -6  -2  354.86   15.40
   1  -6   2  370.06   18.00
  -1  -6  -2  341.87   15.40
  -1  -6  -2  344.67   15.00
   1  -6   2  386.06   18.20
  -1  -6  -2  325.57   14.80
  -1   6  -2  396.66   18.40
   1   6   2  333.27   14.80
  -1   6  -2  361.26   18.20
  -1   6  -2  377.86   18.20
  -1   6  -2  358.16   17.50
   1   6   2  345.47   15.30
   2  -6   2  595.74   28.00
   2  -6   2  601.44   27.70
  -2  -6  -2  530.15   23.20
   2  -6   2  571.14   27.70
  -2  -6  -2  496.95   23.60
  -2   6  -2  583.74   27.60
  -2   6  -2  599.04   28.00
  -2   6  -2  579.24   28.10
  -2   6  -2  578.04   27.90
   3  -6   2   83.99   14.80
   3  -6   2   82.19   13.60
  -3  -6  -2   94.69   11.90
   3  -6   2   83.49   13.70
  -3  -6  -2   94.49   11.50
  -3  -6  -2   94.79   12.20
   3  -6   2   78.59   12.70
  -3   6  -2   61.69   12.90
  -3   6  -2   62.09   13.30
  -3   6  -2   85.89   13.80
  -4  -6  -2  249.97   23.10
   4  -6   2  304.67   31.30
  -4  -6  -2  299.27   19.80
  -4  -6  -2  319.57   23.50
  -4  -6  -2  235.88   19.00
   4  -6   2  309.17   31.60
   4  -6   2  314.67   31.20
   4  -6   2  304.77   30.70
  -4   6  -2  310.07   31.00
  -4   6  -2  279.27   31.50
  -4   6  -2  299.67   31.60
  -4   6  -2  262.87   31.80
   4  -7  -2  405.76   34.20
  -4  -7   2  468.85   26.60
   4  -7  -2  445.66   34.50
   4  -7  -2  439.06   34.80
   4  -7  -2  544.45   38.10
  -4  -7   2  421.66   26.60
  -4   7   2  478.95   37.60
  -4   7   2  419.06   35.80
  -4   7   2  455.25   37.90
  -4   7   2  494.45   37.60
   3  -7  -2   20.60   12.30
   3  -7  -2    7.50   12.30
  -3  -7   2    4.30    6.30
  -3  -7   2   16.00    6.00
   3  -7  -2    2.20   10.70
  -3   7   2  -10.70   12.30
  -3   7   2  -10.10   11.60
  -3   7   2   14.80   11.80
   2  -7  -2  754.22   35.60
   2  -7  -2  805.22   35.50
   2  -7  -2  777.32   36.40
   2  -7  -2  658.73   34.80
  -2   7   2  830.32   35.50
  -2   7   2  815.42   35.90
  -2   7   2  777.92   36.10
  -2   7   2  818.32   35.80
   1  -7  -2  931.71   39.10
   1  -7  -2  919.11   39.70
   1  -7  -2 1000.80   39.60
   1  -7  -2  914.01   39.10
  -1   7   2  970.50   39.40
  -1   7   2  931.81   39.50
  -1   7   2  949.21   39.50
  -1   7   2  922.21   38.90
   0  -7  -2 3331.47  115.59
   0  -7   2 3059.09  115.29
   0  -7   2 2925.61  114.99
   0  -7  -2 2906.31  115.09
   0  -7   2 2987.20  115.29
   0  -7  -2 3175.48  115.49
   0  -7   2 2779.42  115.09
   0  -7  -2 3113.19  115.49
   0   7  -2 2939.21  115.09
   0   7  -2 3075.89  114.19
   0   7  -2 3040.30  114.39
   0   7   2 2801.72  114.39
   0   7   2 3265.17  114.69
   0   7  -2 2996.60  115.19
   0   7   2 2965.30  115.29
  -1  -7  -2  870.71   35.80
  -1  -7  -2  820.72   35.60
  -1  -7  -2  884.21   36.10
   1  -7   2  946.91   38.80
   1  -7   2  966.60   38.60
  -1  -7  -2  874.81   36.20
   1  -7   2  970.60   38.50
  -1   7  -2  919.61   38.50
  -1   7  -2  984.50   38.60
  -1   7  -2  944.41   38.70
  -1   7  -2  948.21   38.00
   2  -7   2  421.66   23.00
  -2  -7  -2  358.56   16.60
  -2  -7  -2  342.57   16.70
   2  -7   2  381.66   22.00
   2  -7   2  403.76   23.10
  -2   7  -2  400.26   21.80
  -2   7  -2  406.46   22.50
  -2   7  -2  364.76   22.50
  -2   7  -2  371.06   23.00
   3  -7   2  833.52   39.80
   3  -7   2  855.91   40.80
   3  -7   2  822.12   39.80
  -3  -7  -2  772.82   33.80
  -3  -7  -2  721.13   33.50
  -3   7  -2  829.02   40.60
  -3   7  -2  729.53   39.70
  -3   7  -2  820.62   40.90
   4  -7   2   14.40   18.40
   4  -7   2   -0.20   17.10
   4  -7   2   27.30   19.20
   4  -7   2   -6.90   18.50
  -4  -7  -2   26.20   12.10
  -4  -7  -2   -1.10   12.10
  -4   7  -2   -2.60   17.80
  -4   7  -2  -20.40   16.50
  -4   7  -2    3.20   18.60
  -4   7  -2  -16.60   17.70
   3  -8  -2  647.64   36.90
   3  -8  -2  653.53   35.20
   3  -8  -2  648.44   40.80
   3  -8  -2  619.54   34.70
  -3   8   2  607.24   35.90
  -3   8   2  614.04   35.70
  -3   8   2  634.34   36.60
   2  -8  -2   61.99   12.10
   2  -8  -2   58.09   11.30
   2  -8  -2   75.49   11.70
   2  -8  -2   70.79   11.40
  -2   8   2   64.69   11.00
  -2   8   2   51.39   10.80
  -2   8   2   65.79   11.80
  -2   8   2   62.39   11.40
  -1  -8   2 1355.76   59.69
   1  -8  -2 1597.44   62.59
   1  -8  -2 1648.04   63.29
   1  -8  -2 1658.93   62.69
  -1  -8   2 1330.77   59.49
   1  -8  -2 1631.94   62.79
  -1   8   2 1662.73   62.69
  -1   8   2 1573.24   61.99
  -1   8   2 1633.44   62.89
  -1   8   2 1586.34   62.79
   0  -8  -2  773.82   32.30
   0  -8   2  813.12   32.50
   0  -8   2  779.42   32.20
   0  -8  -2  760.62   32.70
   0  -8   2  798.82   32.50
   0  -8   2  762.92   32.40
   0  -8  -2  813.52   32.70
   0  -8  -2  723.83   32.60
   0   8   2  782.62   32.30
   0   8   2  746.03   31.20
   0   8   2  763.02   32.50
   0   8  -2  805.62   32.30
   0   8  -2  756.32   32.20
   0   8  -2  803.62   30.60
   0   8  -2  770.12   30.90
   0   8   2  853.01   31.40
  -1  -8  -2  128.59    9.00
   1  -8   2  161.98   14.00
   1  -8   2  173.18   13.50
   1  -8   2  167.88   13.40
  -1  -8  -2  135.99    8.70
  -1  -8  -2  130.19    9.20
  -1   8  -2  153.08   13.50
  -1   8  -2  150.48   13.40
   1   8   2  143.19    9.20
  -1   8  -2  162.38   12.60
  -1   8  -2  144.49   13.30
   2  -8   2 1111.79   46.60
   2  -8   2 1058.39   46.10
   2  -8   2 1058.69   46.50
  -2  -8  -2  945.91   41.40
   2  -8   2 1038.10   46.50
  -2   8  -2 1100.19   46.60
  -2   8  -2 1082.09   45.90
  -2   8  -2 1038.40   46.10
  -2   8  -2 1123.39   47.20
   3  -8   2  176.78   18.90
   3  -8   2  148.29   17.00
   3  -8   2  146.99   17.50
   3  -8   2  151.68   17.40
  -3  -8  -2  141.39   13.20
  -3  -8  -2  118.99   13.10
  -3   8  -2  168.78   18.50
  -3   8  -2  120.49   16.50
  -3   8  -2  178.08   19.20
  -3   8  -2  173.28   18.40
   3  -9  -2  107.59   18.30
   3  -9  -2   97.49   17.30
   3  -9  -2   66.49   17.10
   3  -9  -2  109.89   17.20
  -3   9   2   69.79   15.10
  -3   9   2   94.39   17.90
  -3   9   2   91.59   17.10
  -3   9   2  109.39   17.50
   2  -9  -2  338.47   23.30
   2  -9  -2  330.07   23.30
   2  -9  -2  286.47   21.90
   2  -9  -2  310.07   22.90
  -2   9   2  306.47   21.60
  -2   9   2  354.46   23.70
  -2   9   2  319.97   23.10
  -2   9   2  338.07   24.20
   1  -9  -2   77.09   11.10
  -1  -9   2  106.39    8.00
   1  -9  -2   96.29   10.60
  -1  -9   2   90.99    8.60
   1  -9  -2  107.69   12.90
   1  -9  -2   92.49   10.40
  -1   9   2   87.29    9.40
  -1   9   2   88.39   10.40
  -1   9   2  114.79   11.40
  -1   9   2   93.29   10.50
   0  -9  -2  374.56   19.40
   0  -9   2  407.36   18.70
   0  -9  -2  354.26   18.90
   0  -9   2  400.76   18.80
   0  -9  -2  390.96   19.20
   0  -9   2  398.96   19.30
   0  -9  -2  369.46   19.20
   0  -9   2  389.46   18.90
   0   9   2  368.86   18.70
   0   9   2  367.46   18.90
   0   9  -2  379.86   18.40
   0   9   2  395.16   16.80
   0   9  -2  371.66   18.60
   0   9   2  342.17   16.70
  -1  -9  -2  598.64   26.80
   1  -9   2  657.73   30.10
   1  -9   2  633.04   29.50
   1  -9   2  693.73   30.20
  -1  -9  -2  555.84   26.20
  -1  -9  -2  596.94   26.40
  -1  -9  -2  586.74   26.30
   1  -9   2  697.53   29.90
  -1   9  -2  664.93   29.90
   1   9   2  572.94   25.70
  -1   9  -2  711.53   29.80
  -1   9  -2  678.03   29.70
  -1   9  -2  715.13   28.90
   2  -9   2  216.08   20.80
   2  -9   2  246.78   20.70
   2  -9   2  265.67   21.50
   2  -9   2  217.18   20.50
  -2   9  -2  257.27   21.30
  -2   9  -2  256.87   21.50
  -2   9  -2  263.97   20.20
  -2   9  -2  245.68   22.10
  -3  -9  -2  255.07   15.40
   3  -9   2  252.47   26.50
   3  -9   2  236.98   27.50
  -3  -9  -2  208.18   15.50
   3  -9   2  252.97   26.10
   3  -9   2  242.78   28.30
  -3   9  -2  239.88   26.70
  -3   9  -2  256.77   27.00
  -3   9  -2  270.57   26.90
  -3   9  -2  227.68   28.70
   3 -10  -2  249.68   28.10
   3 -10  -2  213.38   26.40
   3 -10  -2  234.48   27.80
   3 -10  -2  262.07   31.60
  -3  10   2  210.68   25.70
  -3  10   2  233.98   22.60
  -3  10   2  251.07   29.30
  -3  10   2  208.28   21.90
   2 -10  -2   24.20   10.50
   2 -10  -2   23.40   11.80
   2 -10  -2   34.80   12.40
   2 -10  -2   33.30   13.10
  -2  10   2   27.00   11.90
  -2  10   2   37.40   12.60
  -2  10   2   20.50   11.70
  -2  10   2   28.20   10.60
   1 -10  -2   82.99   12.40
   1 -10  -2   90.29   11.50
  -1 -10   2   73.49    9.30
   1 -10  -2   64.79    9.60
   1 -10  -2   76.69   10.70
  -1 -10   2   74.09    8.90
  -1  10   2   82.89   10.70
  -1  10   2   75.69   11.20
  -1  10   2   76.99    9.70
  -1  10   2   89.79   10.90
   0 -10   2  101.09   11.90
   0 -10   2  107.09   11.80
   0 -10   2   97.49   12.20
   0 -10  -2  105.39   12.00
   0 -10  -2   98.69   12.60
   0 -10   2   90.39   11.30
   0 -10  -2   98.09   10.20
   0 -10  -2   94.59   10.40
   0  10  -2   90.69   10.60
   0  10  -2   92.19   11.30
   0  10   2   89.29    9.40
   0  10   2   95.29    9.60
   1 -10   2  146.99   16.20
  -1 -10  -2  101.19   10.20
  -1 -10  -2   99.49   11.00
   1 -10   2  118.39   14.60
   1 -10   2  115.79   14.80
   1 -10   2  138.79   15.40
  -1 -10  -2  119.79   10.50
  -1 -10  -2  114.39   10.20
  -1  10  -2  114.19   14.70
  -1  10  -2  141.79   15.60
  -1  10  -2  126.79   14.70
  -1  10  -2  130.09   13.30
   2 -10   2  671.83   35.00
   2 -10   2  701.23   34.50
   2 -10   2  624.84   33.40
  -2 -10  -2  603.94   26.80
   2 -10   2  682.83   34.50
  -2 -10  -2  662.53   28.00
  -2  10  -2  689.03   34.30
  -2  10  -2  644.04   33.10
  -2  10  -2  598.44   35.00
  -2  10  -2  640.54   34.30
   3 -10   2   11.20   16.20
   3 -10   2    2.70   15.30
   3 -10   2    9.80   15.30
  -3 -10  -2   29.90    8.20
   3 -10   2   23.10   16.50
  -3  10  -2   28.40   16.20
  -3  10  -2    4.40   17.00
  -3  10  -2   19.30   15.80
  -3  10  -2   25.60   16.10
   3 -11  -2   47.00   19.30
   3 -11  -2   13.80   15.50
   3 -11  -2   -3.60   15.60
   3 -11  -2   -3.90   17.40
  -3  11   2    1.20   16.80
  -3  11   2    4.90   15.60
  -3  11   2  -30.70   17.20
   2 -11  -2  217.88   25.10
   2 -11  -2  172.78   17.90
   2 -11  -2  229.08   22.00
   2 -11  -2  235.18   23.40
  -2  11   2  185.48   18.20
  -2  11   2  204.88   22.80
  -2  11   2  229.48   21.00
  -2  11   2  219.98   24.10
  -1 -11   2   32.00    6.90
   1 -11  -2   42.00   10.30
   1 -11  -2   19.90   10.50
   1 -11  -2   20.20   10.60
   1 -11  -2   23.40    9.70
  -1 -11   2   28.60    6.70
  -1  11   2   40.80    9.80
  -1  11   2   36.70    8.90
  -1  11   2   26.60   10.50
  -1  11   2   33.30   10.20
   0 -11  -2  264.57   17.80
   0 -11  -2  240.88   17.80
   0 -11   2  273.77   17.50
   0 -11   2  266.37   17.80
   0 -11   2  290.57   17.00
   0 -11  -2  276.77   18.10
   0 -11  -2  262.17   18.20
   0 -11   2  284.17   17.20
   0  11   2  263.27   17.10
   0  11  -2  236.78   16.20
   0  11  -2  249.28   16.70
   0  11   2  270.07   16.70
   1 -11   2   19.60    9.50
  -1 -11  -2   -3.30    6.90
  -1 -11  -2    4.40    6.30
   1 -11   2   13.90    9.50
  -1 -11  -2   13.20    6.60
  -1 -11  -2    3.60    6.30
   1 -11   2   20.00   10.30
   1 -11   2   12.50    9.00
  -1  11  -2   15.00    7.90
   1  11   2    0.00    5.10
  -1  11  -2   14.10    8.70
  -1  11  -2   12.90    9.50
  -1  11  -2   14.80    9.30
   2 -11   2   55.99   13.60
   2 -11   2   25.90   12.70
  -2 -11  -2   23.30    6.10
   2 -11   2   27.70   14.60
   2 -11   2   27.70   13.90
  -2  11  -2   21.60   12.00
  -2  11  -2   36.20   11.70
  -2  11  -2   34.10   12.90
  -2  11  -2   49.40   13.70
   3 -11   2  -19.70   18.00
   3 -11   2   34.90   19.20
   3 -11   2  -14.60   17.50
   3 -11   2   50.29   18.00
  -3  11  -2   10.10   17.60
  -3  11  -2   -1.40   18.10
  -3  11  -2   -3.10   17.20
  -3  11  -2   21.70   16.40
   2 -12  -2   17.70   11.40
   2 -12  -2    8.70   14.90
   2 -12  -2   -5.20   13.90
   2 -12  -2   20.00   14.40
  -2  12   2   -0.10   13.30
  -2  12   2   17.90   10.60
  -2  12   2   29.80   14.30
  -2  12   2  -13.50   13.50
   1 -12  -2   46.40   12.20
  -1 -12   2   48.80    8.20
   1 -12  -2   22.00   12.20
   1 -12  -2   40.00   12.40
   1 -12  -2   67.69   12.10
  -1 -12   2   56.49    8.20
  -1  12   2   24.60   10.30
  -1  12   2   52.99   11.70
  -1  12   2   53.49   11.80
  -1  12   2   62.59    9.90
   0 -12   2    1.50    7.60
   0 -12   2   -2.90    8.40
   0 -12  -2   -0.30    7.80
   0 -12   2   17.90    9.10
   0 -12  -2   -8.80    9.00
   0 -12   2   -1.60    8.40
   0 -12  -2    8.60    8.70
   0 -12  -2   -1.90    8.90
   0  12  -2    2.20    7.50
   0  12  -2    8.00    7.80
   0  12   2   11.80    8.40
   0  12   2    8.70    7.50
   1 -12   2   14.70   10.50
   1 -12   2   -2.30    9.80
   1 -12   2   10.50   10.70
  -1 -12  -2   10.90    8.10
   1 -12   2   25.30   11.10
  -1 -12  -2   -1.30    7.00
  -1 -12  -2    5.90    7.50
  -1  12  -2   13.90    9.30
  -1  12  -2    6.80   13.60
  -1  12  -2   15.90    8.70
  -1  12  -2   18.00   10.10
   2 -12   2   17.90   13.10
   2 -12   2   -1.30   14.40
  -2 -12  -2    6.60    7.10
  -2 -12  -2   17.40    7.20
   2 -12   2    6.90   13.50
   2 -12   2    3.60   14.30
  -2  12  -2   22.60   13.90
  -2  12  -2   19.90   13.40
  -2  12  -2   -3.40   10.60
  -2  12  -2    7.00   13.40
   2 -13  -2   68.89   17.50
   2 -13  -2  112.79   19.30
   2 -13  -2   69.19   17.30
   2 -13  -2   74.29   17.20
  -2  13   2   94.39   17.30
  -2  13   2   75.19   16.70
  -2  13   2   56.99   16.90
   1 -13  -2   51.39   12.60
  -1 -13   2   50.69    9.10
   1 -13  -2   48.70   13.70
  -1 -13   2   46.70    9.80
   1 -13  -2   49.00   14.00
   1 -13  -2   54.99   13.10
  -1  13   2   47.60   11.10
  -1  13   2   44.90   13.00
  -1  13   2   51.89   13.10
   0 -13   2  144.79   14.00
   0 -13  -2  147.89   18.50
   0 -13   2  153.58   16.90
   0 -13   2  182.08   18.00
   0 -13  -2  134.09   16.20
   0 -13   2  120.39   15.60
   0 -13  -2  139.09   13.80
   0 -13  -2  121.99   14.20
   0  13   2  138.29   17.00
  -1 -13  -2  277.97   18.10
   1 -13   2  323.97   25.30
   1 -13   2  340.57   25.00
   1 -13   2  388.96   26.20
   1 -13   2  341.67   23.00
  -1 -13  -2  303.67   20.70
  -1 -13  -2  281.37   20.20
  -1  13  -2  337.37   23.40
  -1  13  -2  360.66   21.80
  -1  13  -2  319.17   25.00
  -1  13  -2  338.77   20.10
   2 -13   2  219.48   28.40
  -2 -13  -2  190.48   16.10
   2 -13   2  228.98   29.10
  -2 -13  -2  208.48   16.20
   2 -13   2  196.08   20.80
   2 -13   2  225.48   27.60
  -2  13  -2  261.07   27.40
  -2  13  -2  236.18   27.00
  -2  13  -2  215.38   25.60
   2 -14  -2   48.70   19.70
   2 -14  -2   27.30   18.30
   2 -14  -2   13.90   17.20
   2 -14  -2   17.60   17.60
  -2  14   2   51.19   17.70
  -2  14   2   14.10   16.20
  -2  14   2   11.60   16.80
   1 -14  -2  196.08   21.20
  -1 -14   2  141.89   13.50
   1 -14  -2  147.89   19.80
   1 -14  -2  132.29   17.10
   1 -14  -2  158.98   18.50
  -1 -14   2  121.29   12.90
  -1  14   2  110.79   16.10
  -1  14   2  149.88   18.50
   0 -14   2   81.19   13.00
   0 -14   2   87.69   13.60
   0 -14  -2   95.89   13.00
   0 -14   2   97.79   12.50
   0 -14  -2   75.09   13.70
   0 -14   2   74.09   13.00
   0 -14  -2   68.79   13.20
   0  14  -2   88.19   12.70
   0  14   2   73.99   12.50
  -1 -14  -2  128.59   13.90
   1 -14   2  151.08   17.20
   1 -14   2  142.39   18.50
  -1 -14  -2   96.89   10.40
   1 -14   2  134.59   17.20
  -1 -14  -2  122.59   13.50
   1 -14   2  124.89   15.10
  -1  14  -2  137.69   13.80
  -1  14  -2  121.39   15.60
   2 -14   2  246.18   31.80
   2 -14   2  251.37   30.90
   2 -14   2  216.38   28.20
  -2 -14  -2  220.98   18.60
  -2 -14  -2  219.38   19.20
  -2  14  -2  314.67   29.40
  -2  14  -2  245.68   27.90
   1 -15  -2  103.89   15.40
  -1 -15   2   97.79   13.70
   1 -15  -2  122.59   18.00
  -1 -15   2  108.39   13.70
   1 -15  -2  155.78   19.80
   1 -15  -2   97.39   17.30
  -1  15   2  118.49   13.30
  -1  15   2   97.39   17.00
   0 -15  -2  188.58   21.00
   0 -15   2  200.58   20.60
   0 -15   2  198.88   23.20
   0 -15  -2  194.98   18.60
   0 -15  -2  180.68   23.10
   0 -15   2  227.08   22.90
   0 -15   2  201.38   21.10
   0  15  -2  165.28   20.80
   0  15   2  159.18   20.80
  -1 -15  -2  164.28   20.90
   1 -15   2  206.48   21.40
   1 -15   2  177.48   19.50
  -1 -15  -2  150.08   16.50
   1 -15   2  168.88   21.70
   1 -15   2  179.68   20.70
  -1  15  -2  160.58   21.80
  -1  15  -2  175.88   18.20
  -4   0   3   19.40   13.30
   4   0  -3   28.70    7.90
  -4   0   3   17.40   13.30
   4   0  -3   -6.50    9.10
   4   0  -3   16.60    9.70
  -4   0   3    1.80   12.10
  -4   0   3    2.90   12.90
  -2   0   3   -5.10    5.00
   2   0  -3    4.90    5.00
  -2   0   3  -11.70    4.80
   2   0  -3   -5.80    4.40
   2   0  -3   -5.50    4.40
   2   0  -3   -5.50    4.30
  -2   0   3   -7.80    4.70
  -2   0   3   -2.00    5.00
   1   0  -3   -4.60    3.00
  -1   0   3   -4.10    2.80
   1   0  -3   -2.40    2.80
   1   0  -3   -2.40    3.10
  -1   0   3   -3.40    2.90
  -1   0   3    1.30    2.80
   1   0  -3   -4.70    2.80
  -1   0   3   -2.40    3.00
   0   0   3   -7.10    2.80
   0   0  -3   -5.10    2.90
   0   0  -3   -3.50    2.60
   0   0   3   -7.30    2.50
   0   0  -3   -6.40    2.80
   0   0   3   -7.60    3.00
   0   0  -3   -0.90    2.70
   0   0   3   -5.10    2.40
   1   0   3    1.30    3.30
  -1   0  -3   -0.50    3.30
   1   0   3    1.40    3.40
  -1   0  -3   -0.40    3.30
  -1   0  -3   -5.80    3.40
   1   0   3   -1.40    3.20
   1   0   3    7.90    3.80
  -1   0  -3   -3.30    3.10
   2   0   3    0.60    4.70
  -2   0  -3    1.40    5.00
   2   0   3    2.50    5.70
  -2   0  -3   -0.10    5.10
  -2   0  -3    1.20    5.20
  -2   0  -3    4.70    5.20
   2   0   3    0.20    5.10
   2   0   3    1.50    5.20
  -3   0  -3   11.00    8.60
  -3   0  -3    7.70    7.40
   3   0   3   13.70    7.90
   3   0   3   16.30    7.20
  -3   0  -3   16.90    8.30
   4   0   3   16.10   12.80
   4   0   3    9.60   10.90
   4   0   3    9.60   10.20
  -4   0  -3    9.40   11.30
  -4   0  -3   -2.60   13.00
   4   0   3   12.10    8.20
  -4   0  -3   22.40   12.90
  -4   0  -3   17.00   12.40
   4  -1  -3   46.10   11.30
  -4  -1   3   66.99   14.30
   4  -1  -3   37.50   11.30
   4  -1  -3   56.19   13.40
  -4  -1   3   35.80   12.70
   4  -1  -3   81.49   14.20
  -4  -1   3   54.59   13.70
  -4  -1   3   53.19   13.40
  -4   1   3   30.90   13.60
  -4   1   3   42.90   13.00
  -4   1   3   32.50   13.70
  -4   1   3   48.90   14.20
   4   1  -3   28.40   19.20
  -3  -1   3   78.39   10.70
  -3  -1   3   94.29   10.60
  -3  -1   3   78.49   10.30
   3  -1  -3   72.89   10.00
   3  -1  -3   93.09    9.90
   3  -1  -3   80.29   10.70
  -3  -1   3   97.09   10.80
   3  -1  -3  100.69   10.10
  -3   1   3   78.89   10.90
   3   1  -3   83.99   10.80
  -3   1   3   65.29   10.70
  -3   1   3   74.79   11.00
   3   1  -3   83.19   10.30
  -3   1   3   87.79   10.90
   3   1  -3   97.59   10.10
  -2  -1   3   41.00    6.10
   2  -1  -3   45.50    6.40
   2  -1  -3   39.50    6.70
   2  -1  -3   34.40    6.80
  -2  -1   3   37.00    5.70
   2  -1  -3   43.50    6.40
  -2  -1   3   31.80    6.10
  -2  -1   3   34.30    5.80
  -2   1   3   38.10    6.80
  -2   1   3   38.00    6.60
   2   1  -3   50.19    6.50
  -2   1   3   43.40    6.90
   2   1  -3   29.30    5.70
   2   1  -3   49.20    5.80
  -2   1   3   41.60    6.70
   1  -1  -3   97.79    7.60
   1  -1  -3   90.59    7.30
  -1  -1   3  105.29    6.70
   1  -1  -3   98.79    7.30
  -1  -1   3   92.49    6.40
  -1  -1   3   95.29    6.70
   1  -1  -3  103.89    7.30
  -1  -1   3  102.09    6.90
  -1   1   3  100.09    7.60
  -1   1   3   91.99    7.20
  -1   1   3  100.69    7.30
   1   1  -3   92.39    6.10
   1   1  -3  106.99    6.60
   1   1  -3  105.29    6.90
  -1   1   3  102.59    7.40
   0  -1   3   19.80    3.20
   0  -1   3   20.70    3.30
   0  -1  -3   20.10    3.30
   0  -1   3   18.90    3.40
   0  -1   3   13.70    3.00
   0  -1  -3   21.70    3.30
   0  -1  -3   12.30    2.80
   0  -1  -3   21.10    3.20
   0   1  -3   19.10    3.50
   0   1   3   19.50    3.30
   0   1   3   21.50    3.20
   0   1   3   21.20    3.40
   0   1  -3   15.50    3.10
   0   1  -3   13.20    3.10
   0   1   3   15.20    2.60
   0   1  -3   20.60    3.20
   1  -1   3  460.65   19.90
  -1  -1  -3  477.75   19.90
  -1  -1  -3  459.45   19.70
   1  -1   3  459.35   20.00
  -1  -1  -3  427.66   19.30
  -1  -1  -3  454.45   19.60
   1  -1   3  467.75   19.90
   1  -1   3  466.25   19.90
  -1   1  -3  468.45   19.90
  -1   1  -3  465.15   19.90
  -1   1  -3  469.55   19.90
  -1   1  -3  459.15   19.90
   1   1   3  435.06   19.10
   1   1   3  476.15   19.60
   1   1   3  482.15   20.10
  -2  -1  -3 1195.88   48.50
   2  -1   3 1235.48   49.00
  -2  -1  -3 1162.98   48.20
   2  -1   3 1252.47   48.70
  -2  -1  -3 1217.48   48.40
   2  -1   3 1218.08   48.50
   2  -1   3 1210.08   49.00
  -2  -1  -3 1215.28   48.50
  -2   1  -3 1170.98   48.80
   2   1   3 1210.08   47.60
  -2   1  -3 1213.38   48.90
   2   1   3 1228.68   48.30
   2   1   3 1257.47   48.40
  -2   1  -3 1206.08   49.00
  -2   1  -3 1264.27   49.10
   2   1   3 1106.19   48.30
   3  -1   3   90.39   11.70
  -3  -1  -3   73.79   10.40
   3  -1   3  104.69   11.20
   3  -1   3   98.19   10.60
  -3  -1  -3  109.89   11.30
  -3  -1  -3   82.29   10.90
  -3  -1  -3   89.99   11.00
   3  -1   3   82.59   11.10
  -3   1  -3  105.49   12.20
  -3   1  -3  103.19   12.10
  -3   1  -3   79.59   11.00
   3   1   3   94.89   10.60
   3   1   3  109.29   11.20
   3   1   3  100.19   13.10
   3   1   3   91.59   10.80
  -3   1  -3  107.29   12.80
  -4  -1  -3   44.70   12.10
  -4  -1  -3   52.99   13.70
  -4  -1  -3   67.09   14.10
   4  -1   3   55.49   14.20
   4  -1   3   31.90   11.80
  -4  -1  -3   70.39   14.40
   4  -1   3   54.59   14.60
   4  -1   3   72.39   12.70
  -4   1  -3   67.79   14.20
   4   1   3   58.79   15.80
  -4   1  -3   52.29   14.70
  -4   1  -3   41.00   14.00
   4   1   3   55.49   10.60
  -4   1  -3   56.09   13.20
   4  -2  -3  261.57   21.80
  -4  -2   3  278.77   23.80
   4  -2  -3  313.17   26.00
   4  -2  -3  289.77   21.40
   4  -2  -3  237.88   24.30
  -4  -2   3  265.87   22.30
  -4  -2   3  306.27   24.40
  -4  -2   3  264.17   23.90
  -4   2   3  328.47   26.90
  -4   2   3  254.97   26.90
   4   2  -3  254.17   22.30
  -4   2   3  253.57   26.20
  -4   2   3  329.87   25.60
  -3  -2   3  459.35   23.50
  -3  -2   3  551.74   24.50
   3  -2  -3  466.25   24.10
   3  -2  -3  482.95   24.40
  -3  -2   3  491.35   23.80
  -3  -2   3  529.55   24.00
   3  -2  -3  462.45   25.00
   3  -2  -3  453.05   25.70
  -3   2   3  438.56   26.20
  -3   2   3  418.96   24.90
  -3   2   3  472.45   25.60
   3   2  -3  483.55   23.60
   3   2  -3  465.35   23.00
  -3   2   3  449.16   26.00
  -2  -2   3  791.22   30.80
  -2  -2   3  722.13   30.60
   2  -2  -3  763.12   31.90
  -2  -2   3  783.72   31.10
  -2  -2   3  752.82   30.80
   2  -2  -3  757.42   32.00
   2  -2  -3  754.82   32.20
   2  -2  -3  769.52   31.90
  -2   2   3  727.63   32.10
  -2   2   3  758.82   32.40
   2   2  -3  716.83   29.60
   2   2  -3  736.53   30.70
   2   2  -3  728.93   30.60
  -2   2   3  758.82   32.20
  -2   2   3  749.23   32.10
  -1  -2   3  327.77   13.50
  -1  -2   3  314.57   13.50
   1  -2  -3  319.77   14.70
  -1  -2   3  309.17   13.30
   1  -2  -3  303.37   14.50
  -1  -2   3  280.47   13.00
   1  -2  -3  307.37   14.50
   1  -2  -3  331.97   14.60
  -1   2   3  305.07   14.50
  -1   2   3  303.87   14.50
   1   2  -3  282.17   12.30
   1   2  -3  302.77   13.30
   1   2  -3  306.97   12.70
  -1   2   3  300.47   14.40
  -1   2   3  318.87   14.60
   1   2  -3  305.17   13.40
   0  -2   3 1507.65   57.39
   0  -2  -3 1479.65   57.59
   0  -2   3 1506.45   57.79
   0  -2  -3 1620.34   57.49
   0  -2  -3 1513.35   57.59
   0  -2   3 1550.04   57.79
   0  -2   3 1435.06   57.49
   0   2   3 1461.65   57.59
   0   2   3 1429.06   57.49
   0   2  -3 1543.35   57.69
   0   2   3 1421.46   57.49
   0   2   3 1493.65   57.49
   0   2  -3 1516.55   57.29
   0   2  -3 1464.35   57.49
   0   2  -3 1559.94   57.79
   1  -2   3    9.20    3.70
   1  -2   3    7.80    4.10
   1  -2   3    7.40    4.00
  -1  -2  -3    3.40    3.70
   1  -2   3    9.60    3.80
  -1  -2  -3    5.00    3.30
  -1  -2  -3    1.00    3.50
  -1  -2  -3    4.30    3.50
  -1   2  -3    6.30    3.80
  -1   2  -3    4.30    3.50
   1   2   3    2.80    2.70
   1   2   3    0.50    3.20
  -1   2  -3    1.70    3.70
  -1   2  -3    1.50    3.50
   1   2   3    3.70    3.50
   2  -2   3 1579.84   60.59
   2  -2   3 1541.55   60.19
   2  -2   3 1498.15   60.49
   2  -2   3 1585.44   60.19
  -2  -2  -3 1505.55   59.49
  -2  -2  -3 1319.57   59.29
  -2  -2  -3 1464.05   59.19
  -2  -2  -3 1572.04   59.59
   2   2   3 1522.05   59.09
   2   2   3 1506.55   59.29
  -2   2  -3 1521.65   60.39
  -2   2  -3 1530.05   60.49
  -2   2  -3 1589.54   60.69
  -2   2  -3 1495.95   60.19
   2   2   3 1501.95   58.19
  -3  -2  -3  251.17   17.90
  -3  -2  -3  288.37   18.10
  -3  -2  -3  228.28   18.30
   3  -2   3  253.77   19.80
   3  -2   3  263.87   19.90
   3  -2   3  266.77   18.70
   3  -2   3  289.07   19.80
  -3  -2  -3  261.27   17.70
  -3   2  -3  242.18   19.90
   3   2   3  293.87   14.20
   3   2   3  267.07   15.80
   3   2   3  283.27   17.50
  -3   2  -3  284.57   20.30
  -3   2  -3  310.67   20.90
  -3   2  -3  292.17   20.10
   3   2   3  261.57   16.90
   4  -2   3  111.69   16.40
  -4  -2  -3   83.79   14.40
   4  -2   3   75.59   14.70
  -4  -2  -3   85.39   13.80
  -4  -2  -3   97.59   15.30
   4  -2   3  107.99   14.80
  -4  -2  -3  114.79   15.10
   4  -2   3  102.59   17.00
  -4   2  -3  121.49   17.40
  -4   2  -3  110.89   16.70
  -4   2  -3   75.39   15.90
   4   2   3   78.49   14.00
  -4   2  -3   82.49   15.90
  -4  -3   3  240.18   20.30
   4  -3  -3  234.58   22.20
  -4  -3   3  197.78   20.90
  -4  -3   3  257.77   22.90
  -4  -3   3  224.58   22.00
   4  -3  -3  253.87   23.20
   4  -3  -3  279.27   26.60
   4  -3  -3  225.98   24.50
  -4   3   3  245.78   25.60
  -4   3   3  248.78   27.30
  -4   3   3  249.58   26.20
   4   3  -3  223.68   20.40
  -4   3   3  249.58   26.00
  -3  -3   3 1340.97   54.09
   3  -3  -3 1329.87   56.59
  -3  -3   3 1272.17   53.89
   3  -3  -3 1294.37   55.99
   3  -3  -3 1330.77   55.39
  -3  -3   3 1399.96   54.09
  -3  -3   3 1416.66   54.29
   3  -3  -3 1361.06   55.59
   3   3  -3 1320.17   53.59
  -3   3   3 1322.57   56.59
   3   3  -3 1360.86   53.89
  -3   3   3 1346.77   56.79
  -3   3   3 1371.66   56.39
  -3   3   3 1304.77   56.69
   2  -3  -3  324.47   18.00
  -2  -3   3  341.27   15.80
  -2  -3   3  332.37   15.50
  -2  -3   3  344.67   15.70
  -2  -3   3  369.46   16.00
   2  -3  -3  334.77   18.30
   2  -3  -3  344.77   18.60
   2  -3  -3  324.87   18.00
   2   3  -3  340.47   15.40
  -2   3   3  335.07   18.60
  -2   3   3  337.17   18.40
  -2   3   3  339.97   18.60
  -2   3   3  330.87   18.50
   2   3  -3  346.27   15.70
   1  -3  -3 3758.92  143.19
   1  -3  -3 3667.93  143.09
  -1  -3   3 3780.52  141.99
  -1  -3   3 3964.80  142.29
   1  -3  -3 3875.01  143.09
  -1  -3   3 3413.06  141.59
  -1  -3   3 3627.14  141.89
   1  -3  -3 3986.50  143.09
   1   3  -3 3876.51  142.29
   1   3  -3 3640.14  141.89
  -1   3   3 3727.63  143.09
  -1   3   3 3858.11  143.19
  -1   3   3 3907.21  143.19
  -1   3   3 3632.64  142.99
   0  -3  -3  152.08    8.70
   0  -3  -3  164.18    8.40
   0  -3   3  163.28    8.10
   0  -3  -3  157.08    8.60
   0  -3   3  150.68    8.60
   0  -3   3  165.28    8.60
   0  -3   3  158.68    8.80
   0  -3  -3  150.28    8.40
   0   3  -3  155.18    7.90
   0   3  -3  138.89    8.50
   0   3   3  148.29    8.50
   0   3  -3  162.38    8.50
   0   3   3  153.18    8.70
   0   3   3  153.78    8.40
   0   3   3  167.38    8.50
   0   3  -3  143.59    8.30
   1  -3   3 1976.60   78.29
  -1  -3  -3 2005.20   77.49
  -1  -3  -3 2024.90   77.69
  -1  -3  -3 2058.19   77.39
   1  -3   3 2036.60   78.29
  -1  -3  -3 1912.91   77.19
   1  -3   3 2041.70   78.29
   1  -3   3 2083.29   78.09
  -1   3  -3 2148.98   78.19
   1   3   3 1967.00   76.49
  -1   3  -3 2098.89   78.39
  -1   3  -3 2074.09   78.29
   1   3   3 2050.39   77.49
   1   3   3 2005.80   77.69
   1   3   3 1902.01   76.49
  -2  -3  -3 1272.87   50.19
  -2  -3  -3 1226.48   49.80
  -2  -3  -3 1247.48   50.19
   2  -3   3 1258.87   51.19
   2  -3   3 1276.07   51.39
   2  -3   3 1275.57   51.59
   2  -3   3 1230.68   51.49
  -2   3  -3 1299.67   51.79
  -2   3  -3 1287.67   51.59
   2   3   3 1244.28   50.09
  -2   3  -3 1295.07   51.59
  -2   3  -3 1287.97   51.49
   2   3   3 1247.38   49.80
  -3  -3  -3  553.34   27.10
  -3  -3  -3  568.64   27.40
   3  -3   3  574.54   28.90
   3  -3   3  637.54   30.20
  -3  -3  -3  573.04   27.10
   3  -3   3  602.14   29.60
   3  -3   3  589.54   29.80
  -3  -3  -3  476.55   26.50
  -3   3  -3  608.84   30.30
  -3   3  -3  563.44   30.00
  -3   3  -3  609.84   30.00
   3   3   3  516.55   26.30
   3   3   3  551.64   26.50
  -3   3  -3  574.84   30.20
  -4  -3  -3  231.78   23.00
   4  -3   3  208.08   25.60
   4  -3   3  233.38   25.40
   4  -3   3  270.47   26.80
   4  -3   3  279.37   24.60
  -4  -3  -3  206.88   21.20
  -4  -3  -3  238.08   20.80
  -4  -3  -3  232.78   23.50
  -4   3  -3  284.17   26.60
  -4   3  -3  231.88   26.60
   4   3   3  207.58   20.80
  -4   3  -3  239.88   27.60
  -4   3  -3  276.27   27.60
  -4  -4   3  290.37   21.30
  -4  -4   3  331.47   23.70
   4  -4  -3  342.47   29.80
   4  -4  -3  315.67   25.60
  -4  -4   3  299.97   23.70
   4  -4  -3  290.67   27.20
  -4  -4   3  315.87   21.20
  -4   4   3  360.96   29.30
  -4   4   3  288.77   29.00
  -4   4   3  300.77   30.10
  -4   4   3  353.16   29.70
   4   4  -3  268.97   21.00
   3  -4  -3  229.18   19.00
  -3  -4   3  212.48   14.90
   3  -4  -3  209.18   18.60
  -3  -4   3  218.68   14.50
  -3  -4   3  194.78   14.40
   3  -4  -3  205.08   18.30
   3  -4  -3  209.98   19.70
  -3  -4   3  208.98   14.20
  -3   4   3  193.18   19.80
   3   4  -3  209.28   13.90
  -3   4   3  187.88   19.40
  -3   4   3  204.28   20.20
  -3   4   3  187.88   19.90
  -2  -4   3 1139.69   44.30
   2  -4  -3 1134.79   46.90
  -2  -4   3 1127.89   44.30
  -2  -4   3 1057.39   44.00
   2  -4  -3 1137.79   46.60
   2  -4  -3 1148.79   46.80
   2  -4  -3 1167.78   47.20
  -2  -4   3 1119.19   44.10
  -2   4   3 1122.29   46.80
   2   4  -3 1124.29   44.00
   2   4  -3 1126.99   44.30
  -2   4   3 1154.28   47.00
  -2   4   3 1176.08   47.30
  -2   4   3 1152.88   47.00
   1  -4  -3   -3.30    4.50
   1  -4  -3    0.40    4.30
  -1  -4   3    1.60    2.60
  -1  -4   3   -6.90    3.30
  -1  -4   3   -2.30    2.30
   1  -4  -3    1.40    4.30
  -1  -4   3   -4.00    2.70
   1  -4  -3   -2.70    3.80
  -1   4   3   -6.40    4.10
  -1   4   3   -6.60    4.40
   1   4  -3   -5.00    3.10
  -1   4   3    1.50    4.50
   1   4  -3   -4.60    2.60
  -1   4   3   -8.30    4.20
   0  -4   3 5232.28  209.98
   0  -4  -3 5749.73  210.48
   0  -4  -3 6137.29  210.38
   0  -4  -3 5772.32  210.48
   0  -4  -3 5812.42  210.48
   0  -4   3 5707.03  210.48
   0  -4   3 5838.52  210.48
   0  -4   3 5553.04  210.38
   0   4   3 5693.43  210.48
   0   4  -3 5138.49  209.78
   0   4   3 5612.74  210.28
   0   4   3 5321.97  210.08
   0   4   3 4855.71  210.18
   0   4  -3 5579.14  210.38
   0   4  -3 5729.63  210.18
  -1  -4  -3  682.53   28.00
   1  -4   3  675.93   29.10
   1  -4   3  708.53   29.40
  -1  -4  -3  675.13   27.50
   1  -4   3  729.73   29.40
  -1  -4  -3  689.13   28.10
   1  -4   3  691.83   28.90
  -1  -4  -3  655.23   27.70
  -1   4  -3  707.03   29.20
   1   4   3  683.73   27.80
  -1   4  -3  687.83   29.20
   1   4   3  672.83   27.90
  -1   4  -3  707.93   29.20
  -1   4  -3  700.83   28.90
   2  -4   3 1179.98   46.80
  -2  -4  -3 1136.79   45.20
  -2  -4  -3 1074.29   44.70
  -2  -4  -3 1141.99   45.20
   2  -4   3 1148.19   47.20
   2  -4   3 1165.48   47.00
   2  -4   3 1100.49   47.10
   2   4   3 1083.39   45.20
  -2   4  -3 1184.08   46.90
   2   4   3 1080.99   44.50
  -2   4  -3 1113.99   46.90
  -2   4  -3 1138.19   47.20
  -2   4  -3 1157.08   47.20
   3  -4   3  515.65   27.80
  -3  -4  -3  465.75   24.20
  -3  -4  -3  462.35   23.80
   3  -4   3  496.55   27.80
   3  -4   3  503.95   27.70
   3  -4   3  491.65   28.10
  -3  -4  -3  495.25   24.10
  -3  -4  -3  462.25   23.90
  -3   4  -3  509.15   28.20
   3   4   3  465.95   23.70
   3   4   3  475.25   23.00
  -3   4  -3  570.84   28.90
  -3   4  -3  466.95   27.50
  -3   4  -3  508.75   28.10
  -4  -4  -3  186.28   22.10
  -4  -4  -3  161.98   15.50
  -4  -4  -3  166.98   18.90
   4  -4   3  187.58   21.70
  -4  -4  -3  203.38   22.00
   4  -4   3  215.88   20.30
   4  -4   3  181.18   21.00
  -4   4  -3  186.78   20.80
   4   4   3  149.79   18.90
  -4   4  -3  193.68   21.60
  -4   4  -3  238.28   27.30
  -4   4  -3  164.38   20.20
  -4  -5   3  222.98   21.20
   4  -5  -3  203.58   24.90
   4  -5  -3  198.98   25.40
  -4  -5   3  170.88   21.30
   4  -5  -3  237.18   23.10
  -4  -5   3  169.08   16.60
  -4  -5   3  209.88   17.60
   4  -5  -3  232.48   26.10
  -4   5   3  205.38   22.00
  -4   5   3  203.18   21.30
  -4   5   3  177.58   20.70
  -4   5   3  241.58   23.70
   4   5  -3  202.38   17.40
  -3  -5   3  534.65   23.60
  -3  -5   3  522.55   23.90
   3  -5  -3  582.84   29.20
  -3  -5   3  521.25   24.60
   3  -5  -3  525.45   30.20
  -3  -5   3  491.45   24.20
   3  -5  -3  548.35   29.10
   3  -5  -3  552.54   29.00
  -3   5   3  561.54   30.70
  -3   5   3  540.05   30.60
  -3   5   3  552.04   30.50
   3   5  -3  508.15   23.60
  -3   5   3  533.35   29.60
  -2  -5   3  102.29    7.30
   2  -5  -3  109.59   13.30
   2  -5  -3   99.09   13.00
  -2  -5   3  114.09    8.10
   2  -5  -3  121.69   11.90
   2  -5  -3  108.39   12.30
  -2   5   3  104.89   13.70
  -2   5   3  115.39   13.50
  -2   5   3   95.89   10.60
  -2   5   3  106.89   13.00
  -1  -5   3  550.84   22.10
  -1  -5   3  517.85   21.60
   1  -5  -3  537.95   24.50
   1  -5  -3  574.44   24.80
  -1  -5   3  560.04   22.10
   1  -5  -3  571.14   24.40
  -1   5   3  547.45   24.40
  -1   5   3  567.54   24.60
   1   5  -3  553.14   22.00
  -1   5   3  552.84   24.70
  -1   5   3  560.74   24.60
   0  -5   3  544.45   22.50
   0  -5   3  543.15   22.50
   0  -5  -3  530.25   22.60
   0  -5   3  530.25   22.20
   0  -5   3  522.35   22.10
   0  -5  -3  530.55   22.50
   0  -5  -3  544.95   22.50
   0  -5  -3  558.04   22.30
   0   5   3  529.15   22.80
   0   5  -3  555.14   22.00
   0   5  -3  503.55   21.50
   0   5   3  497.05   21.90
   0   5   3  537.65   22.10
   0   5   3  518.95   22.30
  -1  -5  -3 1969.80   78.69
  -1  -5  -3 1923.91   78.39
   1  -5   3 2149.69   80.39
  -1  -5  -3 2008.20   78.89
   1  -5   3 2112.39   80.09
  -1  -5  -3 1981.20   78.69
   1  -5   3 2156.18   80.49
   1  -5   3 2133.19   80.29
   1   5   3 1949.20   78.79
  -1   5  -3 2088.99   79.89
  -1   5  -3 2067.59   80.19
  -1   5  -3 2175.68   80.29
   1   5   3 2006.70   78.59
  -1   5  -3 2168.08   80.29
  -2  -5  -3  139.49   10.10
   2  -5   3  149.09   14.30
   2  -5   3  148.09   14.10
   2  -5   3  163.28   14.90
   2  -5   3  152.78   14.50
  -2  -5  -3  130.09   10.70
  -2  -5  -3  130.89   10.80
  -2   5  -3  130.69   14.20
  -2   5  -3  168.68   14.50
   2   5   3  138.69    9.40
   2   5   3  116.19   10.50
  -2   5  -3  142.49   14.90
  -2   5  -3  149.59   14.30
  -3  -5  -3  188.88   15.20
   3  -5   3  226.48   21.80
   3  -5   3  178.98   20.70
  -3  -5  -3  185.78   14.90
  -3  -5  -3  163.68   15.40
   3  -5   3  213.58   21.00
   3  -5   3  206.18   20.90
  -3  -5  -3  158.88   13.80
   3   5   3  163.58   14.50
   3   5   3  172.18   13.10
  -3   5  -3  198.58   20.60
  -3   5  -3  220.48   21.50
  -3   5  -3  197.08   21.70
  -3   5  -3  227.88   20.80
  -4  -5  -3  259.47   20.10
   4  -5   3  321.67   29.50
   4  -5   3  285.07   29.60
   4  -5   3  256.07   28.70
  -4  -5  -3  262.47   23.50
  -4  -5  -3  262.47   21.20
   4  -5   3  268.47   29.50
  -4  -5  -3  303.97   24.00
  -4   5  -3  269.37   30.90
  -4   5  -3  290.57   31.20
   4   5   3  200.48   19.10
  -4   5  -3  256.67   30.70
  -4   5  -3  302.27   30.70
   4  -6  -3  214.48   21.40
  -4  -6   3  190.48   20.80
   4  -6  -3  202.08   20.90
   4  -6  -3  219.68   23.00
   4  -6  -3  208.48   22.40
  -4  -6   3  191.08   21.40
  -4   6   3  172.48   21.00
  -4   6   3  174.58   21.20
  -4   6   3  210.58   22.40
  -4   6   3  181.68   22.40
   3  -6  -3   16.10   11.60
   3  -6  -3   31.50   12.70
   3  -6  -3   28.60   11.20
   3  -6  -3   28.00   10.80
  -3   6   3   29.30   12.00
  -3   6   3   28.30   12.50
  -3   6   3   29.40   12.90
   2  -6  -3  530.95   27.20
   2  -6  -3  526.35   26.40
   2  -6  -3  512.45   26.30
   2  -6  -3  593.64   27.90
  -2   6   3  528.05   27.30
  -2   6   3  540.35   26.50
  -2   6   3  531.45   27.30
  -2   6   3  540.65   27.20
   1  -6  -3   29.20    6.40
  -1  -6   3   29.30    4.00
   1  -6  -3   14.30    5.90
   1  -6  -3   21.40    6.20
  -1  -6   3   30.40    3.40
  -1  -6   3   25.70    3.60
   1  -6  -3   25.90    6.30
  -1   6   3   20.10    6.30
  -1   6   3   27.50    6.50
  -1   6   3   19.80    6.30
   1   6  -3   29.40    3.80
  -1   6   3   23.90    6.10
   0  -6  -3 1214.48   47.60
   0  -6   3 1171.18   47.40
   0  -6  -3 1200.68   47.60
   0  -6   3 1212.28   47.60
   0  -6  -3 1220.88   47.40
   0  -6   3 1257.57   47.70
   0  -6  -3 1217.68   47.60
   0  -6   3 1140.29   47.10
   0   6  -3 1226.98   47.50
   0   6   3 1119.29   46.90
   0   6  -3 1231.08   46.60
   0   6   3 1264.47   47.20
   0   6   3 1206.78   47.60
   0   6  -3 1208.58   46.90
   1  -6   3  536.95   24.40
   1  -6   3  549.95   24.80
  -1  -6  -3  525.05   22.60
  -1  -6  -3  534.55   22.80
  -1  -6  -3  527.15   22.20
   1  -6   3  534.55   24.90
   1  -6   3  557.64   24.50
  -1  -6  -3  524.55   22.00
  -1   6  -3  541.55   24.60
  -1   6  -3  553.44   24.10
   1   6   3  525.15   22.60
  -1   6  -3  546.45   24.50
  -1   6  -3  552.44   24.60
   1   6   3  523.25   22.00
   2  -6   3  113.99   14.70
  -2  -6  -3  108.49    9.40
   2  -6   3  124.09   14.70
  -2  -6  -3   94.19   10.10
   2  -6   3  118.79   14.10
   2  -6   3  116.99   15.10
  -2  -6  -3  103.39    9.50
  -2   6  -3  126.79   12.50
   2   6   3  120.19    8.20
  -2   6  -3  124.39   14.50
  -2   6  -3  151.08   15.50
  -2   6  -3  136.49   15.30
   2   6   3  105.19    8.90
  -3  -6  -3  152.88   14.70
  -3  -6  -3  151.38   12.10
   3  -6   3  190.08   21.40
   3  -6   3  124.09   14.80
  -3  -6  -3  166.08   14.30
   3  -6   3  159.68   17.40
  -3  -6  -3  164.98   14.50
   3  -6   3  219.48   20.90
  -3   6  -3  185.08   22.50
  -3   6  -3  179.88   20.90
   3   6   3  160.18   14.00
  -3   6  -3  172.68   21.70
  -4  -6  -3   36.60   12.60
   4  -6   3   32.40   17.40
  -4  -6  -3   30.70   12.70
  -4  -6  -3   36.10   11.50
   4  -6   3   34.50   18.00
   4  -6   3   43.80   18.00
  -4  -6  -3   19.70    9.90
   4  -6   3    2.20   16.30
  -4   6  -3   33.50   17.80
   4   6   3   11.20    9.30
   4   6   3   14.30    9.50
  -4   6  -3   10.70   17.90
  -4   6  -3   24.70   18.20
  -4   6  -3    6.20   17.70
  -4  -7   3   40.80   13.00
   4  -7  -3   17.10   15.60
   4  -7  -3   22.30   17.30
   4  -7  -3   78.59   20.80
  -4  -7   3   36.40   12.20
   4  -7  -3   52.79   17.70
  -4   7   3   33.70   18.60
  -4   7   3   26.60   17.80
  -4   7   3   27.70   19.10
  -4   7   3   60.69   26.90
  -3  -7   3   -1.80    6.30
   3  -7  -3   -8.40    9.60
   3  -7  -3   -7.10   12.40
   3  -7  -3    0.60   12.20
  -3  -7   3    2.80    6.40
  -3   7   3   18.80   13.00
  -3   7   3    2.60   12.80
  -3   7   3    5.20   12.20
   2  -7  -3   41.20    9.90
   2  -7  -3   53.29   10.50
   2  -7  -3   27.00    9.40
   2  -7  -3   36.30    9.50
  -2   7   3   37.70   10.30
  -2   7   3   35.00    9.50
  -2   7   3   44.40   10.40
  -2   7   3   35.40    9.10
   1  -7  -3   47.50    7.50
  -1  -7   3   45.60    5.50
   1  -7  -3   41.20    7.00
  -1  -7   3   49.60    5.00
  -1  -7   3   51.79    5.00
   1  -7  -3   38.50    7.30
   1  -7  -3   50.09    8.20
  -1   7   3   37.50    7.60
  -1   7   3   35.20    7.30
  -1   7   3   50.79    7.40
  -1   7   3   54.79    8.20
   0  -7   3    8.30    5.00
   0  -7  -3   -2.40    4.90
   0  -7  -3   12.10    5.10
   0  -7   3   14.70    5.20
   0  -7   3    7.00    5.30
   0  -7  -3   -0.30    5.00
   0  -7   3   10.30    4.70
   0  -7  -3    2.20    4.70
   0   7  -3   10.00    4.80
   0   7  -3   19.20    5.10
   0   7   3   -2.10    4.80
   0   7  -3   10.60    4.10
   0   7  -3   15.60    3.70
   0   7   3    8.20    4.50
   0   7   3    6.70    4.40
  -1  -7  -3  142.09   10.20
   1  -7   3  154.98   13.00
  -1  -7  -3  132.09    9.10
   1  -7   3  155.28   12.80
   1  -7   3  141.49   12.90
  -1  -7  -3  128.69    9.10
   1  -7   3  143.09   12.60
  -1  -7  -3  142.29    9.60
   1   7   3  140.59    8.70
   1   7   3  139.19    9.50
  -1   7  -3  165.28   12.80
  -1   7  -3  153.38   12.90
  -1   7  -3  155.98   13.10
  -1   7  -3  145.89   11.80
  -2  -7  -3   83.49    9.40
   2  -7   3   84.59   11.70
   2  -7   3  103.39   12.10
   2  -7   3   92.99   12.10
   2  -7   3   92.19   12.50
  -2  -7  -3  110.99    9.50
  -2   7  -3   84.39   11.60
  -2   7  -3   92.39   12.40
  -2   7  -3   94.19   11.80
  -2   7  -3   58.49   10.60
   3  -7   3  128.09   16.60
  -3  -7  -3  112.19   11.20
  -3  -7  -3  116.99   13.90
   3  -7   3  214.08   22.40
   3  -7   3  136.89   17.40
  -3   7  -3  135.19   16.70
  -3   7  -3  129.09   17.10
  -3   7  -3  140.59   17.10
   4  -7   3   17.50   18.20
  -4  -7  -3   20.70   12.40
   4  -7   3   22.80   19.70
   4  -7   3   18.10   18.70
   4  -7   3   30.20   19.70
  -4  -7  -3   38.40   13.50
  -4   7  -3   11.50   19.50
  -4   7  -3   -7.80   18.10
  -4   7  -3   36.70   19.70
   3  -8  -3   34.00   15.00
   3  -8  -3   47.40   14.60
   3  -8  -3   60.29   14.60
   3  -8  -3   38.30   14.30
  -3   8   3   43.90   14.10
  -3   8   3   45.40   14.60
  -3   8   3   57.39   14.30
   2  -8  -3   54.49   10.60
   2  -8  -3   38.50   11.30
   2  -8  -3   39.80   10.10
   2  -8  -3   44.20   11.30
  -2   8   3   40.50    9.90
  -2   8   3   46.30   11.40
  -2   8   3   39.70   11.00
  -2   8   3   39.60   10.90
   1  -8  -3   -8.20    6.60
   1  -8  -3   -0.50    7.00
   1  -8  -3   -7.70    6.90
  -1  -8   3    4.80    3.80
   1  -8  -3   -2.50    7.00
  -1  -8   3    4.00    3.70
  -1  -8   3    2.50    4.50
  -1  -8   3    4.70    4.30
  -1   8   3   -2.30    6.90
  -1   8   3    0.00    6.90
  -1   8   3   -8.50    6.60
  -1   8   3   -5.20    6.10
   0  -8  -3   22.10    6.20
   0  -8   3   27.00    5.80
   0  -8   3   24.50    6.20
   0  -8   3   23.50    6.30
   0  -8  -3   25.30    6.30
   0  -8   3   18.80    6.00
   0  -8  -3   14.00    5.70
   0  -8  -3   21.10    6.10
   0   8   3   19.50    5.10
   0   8   3   21.40    5.80
   0   8  -3   26.70    4.70
   0   8   3   25.90    5.10
   0   8  -3   22.30    6.00
   0   8  -3   23.60    5.70
   0   8  -3   24.10    4.00
   1  -8   3  114.19   13.40
   1  -8   3  108.89   12.90
   1  -8   3  101.99   13.50
  -1  -8  -3  123.59    9.80
   1  -8   3  115.09   12.90
  -1  -8  -3  136.39    9.60
  -1  -8  -3  143.69    9.40
  -1   8  -3  115.49   12.80
   1   8   3  135.09    8.70
  -1   8  -3  126.49   13.50
  -1   8  -3  134.19   13.50
  -1   8  -3  131.39   12.30
   1   8   3  134.89   10.00
   2  -8   3   14.40    9.50
  -2  -8  -3   -5.40    5.20
   2  -8   3   13.70   10.00
   2  -8   3    6.70    9.50
   2  -8   3   -8.80    9.60
  -2  -8  -3    9.10    5.80
  -2   8  -3   15.30   10.10
  -2   8  -3    3.70    8.10
  -2   8  -3    3.90    9.00
  -2   8  -3   -1.30    9.60
   3  -8   3   24.40   14.10
   3  -8   3   30.90   14.00
  -3  -8  -3   10.60    8.20
   3  -8   3   11.30   13.90
   3  -8   3   16.30   14.70
  -3  -8  -3   23.30    7.80
  -3   8  -3   -2.40   13.30
  -3   8  -3   12.80   13.80
  -3   8  -3    6.20   13.80
  -3   8  -3   14.60   14.10
   3  -9  -3  138.29   19.40
   3  -9  -3  121.29   16.60
   3  -9  -3   73.99   16.30
   3  -9  -3  137.49   17.80
  -3   9   3  124.19   17.90
  -3   9   3  114.69   18.00
  -3   9   3  129.29   17.50
  -3   9   3  118.69   15.60
   2  -9  -3   27.60    9.60
   2  -9  -3   44.90   11.80
   2  -9  -3   31.70   11.20
   2  -9  -3   47.00   11.80
  -2   9   3   38.40   10.30
  -2   9   3   28.80   11.80
  -2   9   3   34.30   11.70
  -2   9   3   30.50   11.30
  -1  -9   3  114.19    8.40
   1  -9  -3  105.39   13.60
   1  -9  -3  119.79   12.00
  -1  -9   3  108.39    8.90
   1  -9  -3  112.69   14.10
   1  -9  -3  138.09   12.90
  -1  -9   3  122.49    9.20
  -1  -9   3  120.39    9.90
  -1   9   3  130.09   14.50
  -1   9   3  104.79   13.00
  -1   9   3  127.59   14.80
  -1   9   3  114.29   14.20
   0  -9   3   10.80    6.60
   0  -9   3   19.20    6.10
   0  -9  -3    9.90    6.60
   0  -9   3   17.00    6.70
   0  -9   3    8.50    6.20
   0  -9  -3   11.40    6.20
   0  -9  -3    3.40    6.60
   0  -9  -3    9.90    6.80
   0   9  -3   11.80    6.10
   0   9   3   26.90    5.30
   0   9   3   18.20    6.10
   0   9   3    7.20    6.20
   0   9   3   14.70    5.20
   0   9  -3   14.70    3.70
   0   9  -3   12.80    6.00
   1  -9   3  210.28   15.70
   1  -9   3  239.58   16.30
   1  -9   3  191.48   16.50
  -1  -9  -3  178.18   12.20
  -1  -9  -3  192.58   12.40
  -1  -9  -3  177.18   12.70
  -1  -9  -3  188.98   11.80
   1  -9   3  200.38   16.70
  -1   9  -3  239.68   16.20
  -1   9  -3  213.28   16.20
   1   9   3  187.48   11.20
  -1   9  -3  218.48   15.90
  -1   9  -3  192.28   14.90
   1   9   3  181.08   12.10
   2  -9   3   37.00   11.90
   2  -9   3   44.00   11.60
  -2  -9  -3   41.00    7.50
  -2  -9  -3   39.90    6.70
   2  -9   3   35.30   10.80
   2  -9   3   48.00   11.70
  -2   9  -3   41.00   11.90
  -2   9  -3   41.90   11.80
  -2   9  -3   40.50   11.20
  -2   9  -3   44.90   11.00
  -3  -9  -3    9.40    8.70
  -3  -9  -3   20.70    7.90
   3  -9   3   24.80   14.30
   3  -9   3   21.00   15.00
   3  -9   3   42.50   16.20
   3  -9   3   42.60   15.50
  -3   9  -3   13.40   14.40
  -3   9  -3   -0.90   14.90
  -3   9  -3   16.70   15.40
  -3   9  -3   30.40   14.10
   3 -10  -3    6.50   13.60
   3 -10  -3    6.50   15.70
   3 -10  -3   25.30   16.40
   3 -10  -3   30.10   17.90
  -3  10   3   26.20   15.20
  -3  10   3   34.20   15.70
  -3  10   3    9.60   16.40
  -3  10   3    6.30   15.00
   2 -10  -3  947.01   44.80
   2 -10  -3  975.20   44.40
   2 -10  -3  898.91   43.50
   2 -10  -3  919.61   43.70
  -2  10   3  996.70   45.10
  -2  10   3  928.61   44.30
  -2  10   3  943.01   42.90
  -2  10   3  907.81   43.90
   1 -10  -3   13.80   10.20
  -1 -10   3   30.90    6.50
   1 -10  -3   16.70    8.80
  -1 -10   3   25.80    5.20
   1 -10  -3   15.80    9.10
   1 -10  -3   -2.70    9.10
  -1 -10   3   22.20    5.70
  -1  10   3   16.10    9.10
  -1  10   3   20.00    9.40
  -1  10   3   18.40    8.10
  -1  10   3   18.80    9.20
   0 -10  -3  828.92   36.60
   0 -10  -3  837.62   37.10
   0 -10  -3  908.11   37.30
   0 -10   3  871.01   36.40
   0 -10  -3  849.02   37.00
   0 -10   3  931.01   36.70
   0 -10   3  886.61   37.10
   0 -10   3  900.71   37.10
   0  10   3  815.02   34.40
   0  10  -3  872.91   36.20
   0  10   3  824.12   36.50
   0  10   3  856.61   34.50
   0  10   3  832.92   36.50
   0  10  -3  850.21   36.30
   1 -10   3  614.64   28.80
  -1 -10  -3  530.55   25.50
  -1 -10  -3  542.75   25.20
   1 -10   3  611.84   29.00
   1 -10   3  650.43   29.60
   1 -10   3  567.24   29.20
  -1 -10  -3  545.15   25.90
  -1 -10  -3  560.04   25.40
  -1  10  -3  611.94   28.80
  -1  10  -3  653.03   27.50
   1  10   3  568.34   25.40
  -1  10  -3  616.04   28.30
  -1  10  -3  596.64   28.70
   1  10   3  516.15   24.50
  -2 -10  -3  809.52   37.20
  -2 -10  -3  809.52   38.10
   2 -10   3  968.40   44.20
   2 -10   3  917.91   43.80
   2 -10   3  967.10   43.60
   2 -10   3  928.91   43.30
  -2  10  -3  928.71   42.40
  -2  10  -3 1019.00   44.10
  -2  10  -3  937.41   43.20
  -2  10  -3  959.50   43.50
   3 -10   3   83.09   19.70
   3 -10   3   66.69   19.10
  -3 -10  -3   82.69   10.40
  -3 -10  -3   64.29   10.10
   3 -10   3   69.09   17.80
   3 -10   3   53.49   17.90
  -3  10  -3   77.29   17.60
  -3  10  -3   62.39   17.20
  -3  10  -3   43.80   17.70
  -3  10  -3   90.09   18.40
   3 -11  -3  282.57   31.10
   3 -11  -3  376.16   35.00
   3 -11  -3  271.07   29.90
   3 -11  -3  276.17   30.30
  -3  11   3  265.87   32.00
  -3  11   3  309.77   32.70
  -3  11   3  294.87   30.80
  -3  11   3  264.67   29.90
   2 -11  -3  182.08   17.60
   2 -11  -3  133.49   16.60
   2 -11  -3  133.39   16.80
   2 -11  -3  147.79   18.10
  -2  11   3  140.29   17.40
  -2  11   3  163.98   17.10
  -2  11   3  136.69   16.40
  -2  11   3  166.98   19.10
  -1 -11   3  527.75   26.60
  -1 -11   3  535.45   26.10
   1 -11  -3  634.84   31.20
   1 -11  -3  614.64   31.60
   1 -11  -3  620.04   30.40
   1 -11  -3  618.84   30.60
  -1  11   3  662.63   29.80
  -1  11   3  624.44   28.80
  -1  11   3  623.34   30.90
  -1  11   3  596.34   30.50
   0 -11  -3   -4.50    8.10
   0 -11   3    3.60    8.20
   0 -11  -3   -9.30    8.40
   0 -11  -3   -6.80    8.00
   0 -11   3   17.10    7.50
   0 -11   3   -0.70    7.30
   0 -11  -3   -4.60    7.70
   0 -11   3   10.60    8.70
   0  11   3   -7.20    7.10
   0  11  -3    4.30    6.90
   0  11  -3    4.80    7.10
   0  11   3  -19.20    7.30
   1 -11   3  445.16   25.70
  -1 -11  -3  415.66   20.80
  -1 -11  -3  392.66   20.90
   1 -11   3  457.85   25.20
   1 -11   3  474.85   26.10
  -1 -11  -3  392.76   21.70
  -1 -11  -3  400.26   21.50
   1 -11   3  483.55   24.70
  -1  11  -3  451.85   25.10
   1  11   3  397.16   20.90
  -1  11  -3  513.95   25.30
   1  11   3  386.66   19.80
  -1  11  -3  457.65   24.20
  -1  11  -3  470.35   23.00
   2 -11   3  194.68   24.20
   2 -11   3  227.88   23.90
   2 -11   3  196.28   23.20
   2 -11   3  226.28   23.60
  -2 -11  -3  162.38   14.10
  -2  11  -3  207.48   23.60
  -2  11  -3  192.28   24.30
  -2  11  -3  170.88   21.50
  -2  11  -3  239.88   21.90
  -3 -11  -3  186.58   17.70
   3 -11   3  110.09   21.90
   3 -11   3  167.68   22.00
   3 -11   3  174.08   23.60
   3 -11   3  159.58   22.40
  -3 -11  -3  137.29   13.10
  -3  11  -3  151.88   21.70
  -3  11  -3  102.29   19.90
  -3  11  -3  148.39   21.80
  -3  11  -3  185.98   22.50
   2 -12  -3  496.35   32.30
   2 -12  -3  435.36   32.40
   2 -12  -3  456.15   30.20
   2 -12  -3  534.15   33.40
  -2  12   3  460.35   31.30
  -2  12   3  444.16   31.40
  -2  12   3  490.25   31.70
   1 -12  -3   10.00   11.60
  -1 -12   3    2.80    7.20
   1 -12  -3   31.80   11.20
   1 -12  -3   12.60   12.10
  -1 -12   3   20.00    7.90
   1 -12  -3   12.00   10.30
  -1  12   3   13.60    9.00
  -1  12   3   10.10   10.10
  -1  12   3   17.70   11.00
  -1  12   3    5.20   10.40
   0 -12  -3  125.99   12.30
   0 -12  -3  123.79   13.10
   0 -12  -3  126.39   16.40
   0 -12   3  124.19   16.00
   0 -12   3  114.79   12.50
   0 -12   3  152.68   14.90
   0 -12   3  118.39   12.00
   0 -12  -3  140.99   16.70
   0  12  -3  113.39   14.10
   0  12   3  109.59   11.70
  -1 -12  -3  360.36   21.30
   1 -12   3  457.15   26.20
   1 -12   3  405.16   24.80
  -1 -12  -3  359.16   19.90
  -1 -12  -3  388.66   20.20
   1 -12   3  426.66   25.70
   1 -12   3  410.86   25.50
  -1 -12  -3  395.16   21.70
  -1  12  -3  428.06   25.10
   1  12   3  355.66   18.80
  -1  12  -3  412.96   23.50
  -1  12  -3  403.26   21.70
   1  12   3  366.46   20.20
  -1  12  -3  323.67   24.00
   2 -12   3  552.04   34.40
   2 -12   3  497.95   33.10
   2 -12   3  493.25   32.40
  -2 -12  -3  463.35   24.20
  -2 -12  -3  454.15   23.60
   2 -12   3  498.95   32.10
  -2  12  -3  469.65   31.60
  -2  12  -3  557.54   32.30
  -2  12  -3  485.85   32.40
   2 -13  -3   58.89   17.00
   2 -13  -3   54.29   17.30
   2 -13  -3   69.49   19.70
   2 -13  -3   53.49   17.00
  -2  13   3   45.30   16.40
  -2  13   3   33.10   16.20
  -2  13   3   34.30   16.00
   1 -13  -3  340.87   24.30
   1 -13  -3  339.27   26.40
  -1 -13   3  320.77   20.70
   1 -13  -3  363.36   26.70
  -1 -13   3  355.36   20.20
   1 -13  -3  343.27   26.30
  -1  13   3  369.56   25.40
  -1  13   3  362.06   23.70
  -1  13   3  345.07   25.40
   0 -13  -3   16.20   10.40
   0 -13  -3   12.50    9.70
   0 -13  -3    5.10   10.90
   0 -13   3   24.60   10.10
   0 -13  -3   19.00   10.80
   0 -13   3   30.70    9.50
   0 -13   3   31.90   10.80
   0 -13   3   12.30   10.10
   0  13  -3   14.80   10.00
   0  13   3    9.70    9.90
   0  13  -3   -4.10    6.70
   0  13   3   -2.60    6.50
   1 -13   3  405.66   27.10
   1 -13   3  438.86   27.20
  -1 -13  -3  342.37   22.50
  -1 -13  -3  379.16   22.80
   1 -13   3  362.56   24.60
   1 -13   3  384.66   26.60
  -1 -13  -3  323.57   19.90
  -1  13  -3  372.46   21.50
  -1  13  -3  345.87   23.10
  -1  13  -3  338.97   24.80
  -1  13  -3  385.36   25.40
  -2 -13  -3   39.60    9.90
  -2 -13  -3   38.40    9.90
   2 -13   3   49.30   18.00
   2 -13   3   35.20   16.60
   2 -13   3   31.50   16.30
   2 -13   3   62.59   16.50
  -2  13  -3    3.90   15.00
  -2  13  -3   24.30   15.30
  -2  13  -3   65.39   16.20
   1 -14  -3  -13.50   11.50
   1 -14  -3  -24.80   14.90
   1 -14  -3  -13.60   13.60
  -1 -14   3   11.70    9.60
   1 -14  -3    3.10   13.90
  -1 -14   3    5.80   10.40
  -1  14   3  -12.80   13.50
  -1  14   3  -15.90    9.80
  -1  14   3   -0.70   10.60
   0 -14   3  188.08   20.80
   0 -14  -3  215.88   20.90
   0 -14  -3  197.58   21.70
   0 -14   3  209.58   20.30
   0 -14  -3  205.78   19.90
   0 -14  -3  194.88   22.00
   0 -14   3  203.28   18.70
   0 -14   3  171.28   21.10
   0  14   3  188.28   19.80
   0  14  -3  207.48   18.60
   1 -14   3    4.80   13.60
   1 -14   3   19.30   14.20
   1 -14   3   26.80   11.80
   1 -14   3   28.50   14.60
  -1 -14  -3    4.40   11.30
  -1 -14  -3   15.00    9.00
  -1 -14  -3   18.80   11.30
  -1  14  -3   23.80   10.80
  -1  14  -3    1.70    7.30
  -1  14  -3  -17.50    9.90
  -1  14  -3   38.20   13.50
  -1 -15   3   37.10   12.10
   1 -15  -3   67.59   14.10
   1 -15  -3   59.79   18.90
  -1 -15   3   54.09   12.30
   1 -15  -3   24.30   16.60
   1 -15  -3   43.10   16.40
  -1  15   3  -10.90   11.90
  -1  15   3   27.00    9.20
  -1  15   3   38.90   12.60
   0 -15   3  -21.80   12.60
   0 -15  -3  -16.10   11.70
   0 -15   3    5.20   11.90
   0 -15  -3   11.00   13.70
   0 -15  -3  -20.60   12.60
   0 -15  -3   16.00   13.20
   0 -15   3   10.50   12.90
   0 -15   3    2.70   12.70
   0  15  -3   10.30   12.20
   0  15   3   -1.70   12.30
   0  15  -3   -7.70    8.70
   0  15   3    3.60    9.30
  -1 -15  -3    6.60   12.80
   1 -15   3    7.50   16.80
   1 -15   3   20.90   15.80
  -1 -15  -3   -2.50   12.40
   1 -15   3   16.80   12.60
   1 -15   3   -1.80   15.60
  -1 -15  -3    3.10    9.60
  -1  15  -3   15.80   10.30
  -1  15  -3   -6.40    8.00
  -1  15  -3  -21.50   11.70
  -4   0   4  569.64   32.70
  -4   0   4  559.34   32.50
  -4   0   4  558.84   32.50
   4   0  -4  568.64   33.10
  -4   0   4  571.44   32.80
   4   0  -4  513.75   27.40
  -3   0   4  454.85   24.40
   3   0  -4  437.76   21.70
  -3   0   4  417.16   23.70
   3   0  -4  409.56   23.40
  -3   0   4  474.15   24.50
   3   0  -4  479.15   22.90
  -3   0   4  434.26   24.70
   3   0  -4  465.65   24.30
  -2   0   4 2928.91  111.29
  -2   0   4 2838.92  111.09
   2   0  -4 2793.42  110.39
   2   0  -4 2921.71  111.29
   2   0  -4 2886.81  111.19
   2   0  -4 2974.90  110.89
  -2   0   4 2955.00  111.19
  -2   0   4 2864.31  111.09
  -1   0   4 2780.12  109.59
  -1   0   4 2798.52  109.49
  -1   0   4 2872.41  109.69
   1   0  -4 2923.91  109.69
   1   0  -4 2774.92  109.39
  -1   0   4 2956.80  109.69
   1   0  -4 2830.22  109.69
   1   0  -4 3098.39  109.79
   0   0   4  512.15   21.10
   0   0  -4  470.75   21.00
   0   0  -4  482.15   20.90
   0   0   4  494.55   20.80
   0   0   4  487.75   21.30
   0   0  -4  500.55   21.40
  -1   0  -4  635.04   26.90
   1   0   4  620.24   26.90
  -1   0  -4  596.44   26.60
  -1   0  -4  638.84   26.90
  -1   0  -4  658.63   27.20
   1   0   4  673.73   27.30
   1   0   4  654.03   26.90
   1   0   4  649.43   26.80
   2   0   4   31.70    6.80
   2   0   4   40.90    6.80
  -2   0  -4   31.90    6.80
   2   0   4   23.20    6.00
   2   0   4   19.30    6.30
  -2   0  -4   29.10    6.60
  -2   0  -4   30.90    6.40
  -3   0  -4 1256.47   53.09
   3   0   4 1279.17   51.49
   3   0   4 1235.48   52.09
  -3   0  -4 1291.67   53.29
  -3   0  -4 1269.97   53.09
   3   0   4 1268.67   52.99
  -3   0  -4 1279.07   53.19
   3   0   4 1225.78   52.99
  -4   0  -4  205.98   19.90
  -4   0  -4  169.78   18.30
   4   0   4  183.58   19.10
  -4   0  -4  209.28   23.20
  -4   0  -4  181.28   21.10
   4   0   4  173.78   20.20
  -4  -1   4  112.49   15.10
   4  -1  -4  110.49   14.10
   4  -1  -4  112.59   13.00
  -4  -1   4   98.69   15.60
   4  -1  -4  104.89   15.60
  -4  -1   4  126.19   15.70
  -4  -1   4  117.79   15.80
  -4   1   4  104.49   15.90
   4   1  -4  112.19   15.50
  -4   1   4   82.49   15.80
  -4   1   4  114.49   16.00
  -4   1   4  118.69   16.70
   3  -1  -4  416.36   24.10
  -3  -1   4  463.25   23.60
  -3  -1   4  437.76   23.50
  -3  -1   4  420.56   22.80
   3  -1  -4  424.56   23.80
  -3  -1   4  436.16   23.30
   3  -1  -4  436.86   22.60
   3  -1  -4  425.76   22.10
   3   1  -4  440.56   20.90
  -3   1   4  420.96   24.70
  -3   1   4  427.86   24.40
   3   1  -4  438.66   20.00
   3   1  -4  437.76   22.80
  -3   1   4  419.96   23.80
  -3   1   4  418.76   24.40
   2  -1  -4 1920.51   73.69
  -2  -1   4 1943.81   73.69
   2  -1  -4 1845.72   73.89
   2  -1  -4 1841.92   73.49
   2  -1  -4 1943.81   74.29
  -2  -1   4 1830.72   73.29
  -2  -1   4 1917.21   73.49
  -2  -1   4 1897.41   73.49
  -2   1   4 1850.21   73.99
  -2   1   4 1902.61   73.99
   2   1  -4 1800.12   72.49
   2   1  -4 1947.61   73.09
  -2   1   4 1978.20   74.29
   2   1  -4 1884.81   73.49
  -2   1   4 1866.71   73.99
  -1  -1   4 1474.15   59.19
   1  -1  -4 1534.05   59.69
  -1  -1   4 1591.04   59.49
   1  -1  -4 1478.65   59.69
   1  -1  -4 1505.65   59.59
   1  -1  -4 1637.64   59.79
  -1  -1   4 1571.34   59.39
  -1  -1   4 1484.35   59.39
  -1   1   4 1536.35   59.69
  -1   1   4 1522.85   59.69
   1   1  -4 1456.85   58.89
  -1   1   4 1496.45   59.59
   1   1  -4 1595.94   59.49
   1   1  -4 1625.84   59.69
  -1   1   4 1540.75   59.69
   0  -1  -4 3014.80  121.69
   0  -1   4 3294.67  122.09
   0  -1   4 3188.48  121.99
   0  -1   4 3075.09  121.89
   0  -1  -4 3322.87  121.89
   0   1   4 3390.26  121.99
   0   1  -4 3408.56  122.09
   0   1   4 3152.28  121.69
   0   1   4 3167.38  121.89
   0   1   4 3185.38  121.89
   0   1  -4 3066.29  121.69
   1  -1   4  186.78   11.30
  -1  -1  -4  197.58   11.00
   1  -1   4  188.28   11.10
  -1  -1  -4  188.88   11.00
  -1  -1  -4  172.88   11.30
  -1  -1  -4  190.18   10.80
   1  -1   4  186.28   11.20
   1  -1   4  193.58   11.40
   1   1   4  187.68   11.30
   1   1   4  197.48   10.90
  -1   1  -4  183.98   11.10
   1   1   4  181.88   10.50
  -1   1  -4  194.98   11.40
  -1   1  -4  187.78   11.10
  -1   1  -4  193.88   11.10
   1   1   4  192.48   11.70
   2  -1   4 2938.51  113.79
  -2  -1  -4 3015.20  113.79
   2  -1   4 3015.60  113.79
   2  -1   4 2920.31  114.09
  -2  -1  -4 2960.50  113.79
   2  -1   4 2957.20  114.09
  -2  -1  -4 2860.91  113.49
  -2   1  -4 2945.31  114.19
   2   1   4 3081.29  113.69
   2   1   4 2926.21  112.79
   2   1   4 2914.71  113.59
  -2   1  -4 2997.40  114.09
  -2   1  -4 2959.40  113.99
  -2   1  -4 2946.11  114.09
   2   1   4 2892.81  113.69
  -3  -1  -4   59.79    9.80
  -3  -1  -4   66.79   10.60
   3  -1   4   73.89   10.30
  -3  -1  -4   75.49   10.80
   3  -1   4   70.59   10.60
   3  -1   4   70.69   11.10
   3  -1   4   84.69   11.90
  -3  -1  -4   67.79   10.50
  -3   1  -4   67.59   11.30
   3   1   4   61.99   10.00
   3   1   4   70.69   10.00
  -3   1  -4   61.39   10.10
  -3   1  -4   50.09   10.60
  -3   1  -4   87.09   11.80
   3   1   4   67.29   10.50
   3   1   4   74.99    8.60
  -4  -1  -4  248.88   25.00
   4  -1   4  289.97   23.10
   4  -1   4  247.18   22.20
   4  -1   4  236.18   25.40
  -4  -1  -4  272.27   25.50
  -4  -1  -4  228.18   21.70
  -4  -1  -4  245.08   23.40
   4  -1   4  170.88   22.70
  -4   1  -4  265.47   25.80
   4   1   4  272.77   24.10
   4   1   4  211.38   19.60
  -4   1  -4  231.88   25.80
  -4   1  -4  215.28   26.20
  -4   1  -4  241.08   23.80
  -4  -2   4  389.76   25.90
   4  -2  -4  351.66   28.40
   4  -2  -4  426.96   26.00
  -4  -2   4  419.96   27.10
   4  -2  -4  379.96   28.20
   4  -2  -4  383.76   25.10
  -4  -2   4  423.36   26.40
  -4  -2   4  409.56   27.50
  -4   2   4  453.15   29.90
  -4   2   4  374.76   29.80
  -4   2   4  403.76   29.10
  -4   2   4  401.56   29.20
   4   2  -4  363.16   25.80
  -3  -2   4   78.19    9.90
   3  -2  -4   66.59   10.30
   3  -2  -4   77.29   10.50
  -3  -2   4   62.79    9.40
  -3  -2   4   64.09    9.70
  -3  -2   4   84.49    9.90
   3  -2  -4   60.59   10.80
   3  -2  -4   65.69   10.00
  -3   2   4   52.29   10.40
  -3   2   4   72.49   11.50
  -3   2   4   52.49   10.50
  -3   2   4   62.79   11.30
   3   2  -4   74.29    9.40
   3   2  -4   75.29    9.30
  -2  -2   4  172.18   10.90
   2  -2  -4  162.98   13.00
   2  -2  -4  161.08   12.50
   2  -2  -4  148.99   12.50
   2  -2  -4  158.38   12.40
  -2  -2   4  161.78   10.90
  -2  -2   4  167.28   11.10
  -2  -2   4  149.59   10.60
   2   2  -4  154.88   10.80
  -2   2   4  166.28   12.80
  -2   2   4  143.69   12.40
   2   2  -4  158.18    8.60
   2   2  -4  153.38    9.90
  -2   2   4  148.89   12.80
   2   2  -4  161.18   10.70
  -2   2   4  148.29   12.90
  -1  -2   4  203.08   11.00
  -1  -2   4  211.28   10.40
   1  -2  -4  216.08   11.70
   1  -2  -4  231.78   11.80
  -1  -2   4  218.28   10.70
  -1  -2   4  207.58   11.00
   1  -2  -4  190.68   11.70
   1  -2  -4  202.38   11.60
   1   2  -4  198.28    9.70
  -1   2   4  203.28   11.60
   1   2  -4  207.08   10.70
  -1   2   4  203.38   11.40
  -1   2   4  212.28   11.70
   1   2  -4  217.68   10.50
  -1   2   4  210.58   11.80
   0  -2   4   11.60    3.90
   0  -2   4    5.20    3.70
   0  -2  -4    9.50    3.50
   0  -2  -4    9.00    3.60
   0  -2   4    6.40    3.40
   0  -2   4    6.10    3.60
   0  -2  -4    5.80    3.70
   0  -2  -4    3.70    3.20
   0   2  -4    8.00    3.70
   0   2  -4    7.70    3.40
   0   2   4    4.90    3.30
   0   2  -4    8.00    3.90
   0   2   4    5.40    3.40
   0   2   4    1.80    3.30
   0   2   4    7.40    3.60
   0   2  -4    6.10    3.50
   1  -2   4  592.44   25.20
  -1  -2  -4  616.14   25.00
  -1  -2  -4  573.94   24.60
   1  -2   4  552.14   25.20
   1  -2   4  590.74   25.40
   1  -2   4  579.94   25.40
  -1  -2  -4  609.04   25.30
  -1  -2  -4  584.44   25.20
  -1   2  -4  567.54   25.20
  -1   2  -4  596.04   25.30
  -1   2  -4  615.44   25.40
   1   2   4  586.74   24.80
   1   2   4  580.94   24.70
  -1   2  -4  610.44   25.30
   1   2   4  586.54   24.20
   1   2   4  600.84   25.40
  -2  -2  -4  324.67   16.90
   2  -2   4  294.87   17.80
   2  -2   4  318.97   17.80
  -2  -2  -4  304.77   16.30
   2  -2   4  329.97   17.70
  -2  -2  -4  323.67   16.70
   2  -2   4  322.27   18.10
  -2   2  -4  313.97   18.00
   2   2   4  293.97   14.80
   2   2   4  305.67   16.30
  -2   2  -4  313.47   18.00
   2   2   4  308.97   16.50
  -2   2  -4  296.77   18.00
  -2   2  -4  310.07   17.80
  -3  -2  -4  224.28   17.30
  -3  -2  -4  218.28   17.70
  -3  -2  -4  219.28   17.80
   3  -2   4  245.48   19.60
   3  -2   4  230.18   19.60
   3  -2   4  271.87   19.10
  -3  -2  -4  220.38   17.30
   3  -2   4  250.07   19.50
  -3   2  -4  217.48   19.30
  -3   2  -4  244.68   19.80
  -3   2  -4  223.08   20.20
   3   2   4  235.38   13.70
   3   2   4  209.28   16.70
   3   2   4  233.28   15.50
  -3   2  -4  213.28   20.00
   4  -2   4  233.68   23.60
   4  -2   4  213.38   25.10
  -4  -2  -4  153.58   17.40
  -4  -2  -4  221.58   21.70
   4  -2   4  221.48   26.70
  -4  -2  -4  204.08   23.80
  -4  -2  -4  178.38   23.40
   4  -2   4  223.68   22.60
  -4   2  -4  164.18   18.50
   4   2   4  213.28   22.20
  -4   2  -4  228.98   26.80
  -4   2  -4  169.68   19.40
  -4   2  -4  186.08   19.80
  -4  -3   4    1.40   11.00
  -4  -3   4  -10.00   10.30
   4  -3  -4   -6.40   13.50
   4  -3  -4    7.50   12.00
   4  -3  -4   -3.30   13.20
   4  -3  -4   10.40   11.90
  -4  -3   4    3.30   11.40
  -4  -3   4   18.60   12.40
  -4   3   4   -7.30   13.40
  -4   3   4    8.70   14.30
  -4   3   4  -11.30   14.90
   4   3  -4    0.70   10.20
  -4   3   4   -0.40   14.00
   3  -3  -4   28.10   10.10
   3  -3  -4   44.60   10.40
   3  -3  -4   54.89   10.30
  -3   3   4   29.90    9.80
  -3   3   4   33.30    9.80
  -3   3   4   31.70   10.90
  -3   3   4   38.50   10.40
   2  -3  -4  192.58   14.30
  -2  -3   4  218.28   12.30
  -2  -3   4  197.98   12.10
  -2  -3   4  219.78   12.30
   2  -3  -4  206.18   14.70
  -2  -3   4  220.78   12.20
   2  -3  -4  241.48   15.30
   2  -3  -4  213.88   15.00
  -2   3   4  200.68   15.00
  -2   3   4  220.18   15.20
   2   3  -4  211.58   12.10
  -2   3   4  231.48   15.30
  -2   3   4  217.68   15.00
   2   3  -4  210.98   11.90
   1  -3  -4    0.90    4.80
  -1  -3   4   -0.20    4.00
  -1  -3   4   -1.80    4.00
  -1  -3   4    1.90    3.40
  -1  -3   4    5.00    3.20
   1  -3  -4   -4.40    3.80
   1  -3  -4    0.80    4.70
   1  -3  -4    2.10    4.50
  -1   3   4   -3.00    4.20
   1   3  -4    3.90    3.40
  -1   3   4   -4.10    4.40
   1   3  -4    3.50    4.00
  -1   3   4    0.20    4.60
  -1   3   4    0.30    4.30
   0  -3  -4  290.17   14.30
   0  -3  -4  302.97   14.40
   0  -3   4  309.87   14.20
   0  -3   4  309.07   14.70
   0  -3   4  321.27   14.70
   0  -3  -4  314.37   14.30
   0  -3   4  328.17   14.80
   0   3  -4  313.37   14.30
   0   3   4  304.77   14.40
   0   3  -4  300.87   13.80
   0   3   4  296.17   14.30
   0   3   4  288.37   14.30
   0   3   4  315.57   14.50
   0   3  -4  321.27   14.70
   0   3  -4  334.57   14.70
  -1  -3  -4    6.80    4.30
  -1  -3  -4    3.90    4.30
   1  -3   4   10.60    4.90
   1  -3   4    1.90    4.90
   1  -3   4   10.30    4.60
  -1  -3  -4   11.30    4.20
  -1  -3  -4    2.20    4.60
   1  -3   4    6.50    4.80
  -1   3  -4    5.10    5.10
   1   3   4    6.70    3.60
   1   3   4    7.20    3.90
  -1   3  -4    8.00    4.80
   1   3   4    9.80    4.30
  -1   3  -4    0.50    4.40
  -1   3  -4    9.70    4.70
  -2  -3  -4  485.35   21.90
   2  -3   4  498.15   23.40
  -2  -3  -4  465.95   21.70
   2  -3   4  480.75   23.60
   2  -3   4  489.25   23.50
  -2  -3  -4  428.36   21.30
  -2  -3  -4  457.95   22.10
   2  -3   4  482.65   23.70
   2   3   4  458.95   22.00
   2   3   4  458.25   20.10
  -2   3  -4  504.95   23.80
  -2   3  -4  466.05   23.50
  -2   3  -4  471.85   23.60
  -2   3  -4  466.45   23.20
   2   3   4  470.95   21.50
   2   3   4  453.95   19.30
   3  -3   4   97.89   13.80
   3  -3   4   90.39   12.50
  -3  -3  -4  130.79   14.10
   3  -3   4  101.99   13.40
  -3  -3  -4   76.99   10.60
  -3  -3  -4   88.19   10.70
  -3   3  -4  153.48   18.20
  -3   3  -4   96.69   13.60
  -3   3  -4   77.29   12.80
  -3   3  -4   95.89   13.00
   3   3   4   71.99    9.50
   3   3   4  123.99   13.80
  -4  -3  -4    6.20   13.10
   4  -3   4   13.10   14.90
  -4  -3  -4   -8.20   11.40
   4  -3   4   13.30   12.00
  -4  -3  -4   -5.10   12.30
   4  -3   4   -7.60   14.10
   4  -3   4   17.60   15.70
  -4  -3  -4    0.60   11.30
  -4   3  -4   17.40   15.00
  -4   3  -4   36.10   16.00
   4   3   4   -4.10    8.90
  -4   3  -4   -4.30   14.90
  -4   3  -4   22.70   15.90
   4   3   4   -0.80   11.90
  -4  -4   4   65.49   11.30
  -4  -4   4   58.79   12.90
   4  -4  -4   38.40   14.20
   4  -4  -4   59.29   15.50
  -4  -4   4   63.79   11.70
   4  -4  -4   42.70   16.00
  -4  -4   4   49.50   13.70
  -4   4   4   63.59   15.50
  -4   4   4   80.09   17.20
  -4   4   4   42.20   16.30
  -4   4   4   69.19   17.50
   4   4  -4   68.49   11.70
   3  -4  -4    0.90   10.40
   3  -4  -4    8.30    9.70
   3  -4  -4    9.10    9.70
  -3  -4   4    7.80    7.30
  -3  -4   4   10.90    6.90
   3  -4  -4    0.70    9.20
  -3  -4   4    2.20    6.90
  -3  -4   4   20.00    7.60
   3   4  -4   11.10    6.70
  -3   4   4   -3.60    9.10
  -3   4   4    8.10   10.20
  -3   4   4   -7.50    9.80
  -3   4   4  -11.00   10.20
   3   4  -4    6.70    5.90
   2  -4  -4    8.40    6.90
   2  -4  -4   -1.60    6.80
  -2  -4   4    1.20    4.40
  -2  -4   4    5.30    4.80
  -2  -4   4   -1.00    4.80
   2  -4  -4    2.30    7.00
  -2  -4   4   -0.10    4.30
   2  -4  -4   -0.80    6.70
  -2   4   4    1.00    6.40
  -2   4   4   -4.40    6.50
  -2   4   4   -1.60    6.90
  -2   4   4    1.00    6.80
   2   4  -4    2.10    4.60
   2   4  -4    4.80    3.90
   1  -4  -4    0.90    4.60
  -1  -4   4    1.30    4.30
   1  -4  -4   -1.70    4.50
   1  -4  -4    5.60    5.10
  -1  -4   4   -0.60    3.70
  -1  -4   4   -0.90    3.40
   1  -4  -4    2.50    4.70
  -1   4   4   -2.00    4.70
  -1   4   4    1.20    5.10
  -1   4   4    0.40    4.20
   1   4  -4    3.70    3.50
   1   4  -4    1.30    4.20
  -1   4   4    3.30    4.90
   0  -4   4  662.63   27.60
   0  -4  -4  705.83   27.80
   0  -4  -4  689.43   27.50
   0  -4   4  680.93   27.70
   0  -4   4  646.54   27.10
   0  -4  -4  644.74   27.50
   0  -4   4  700.93   27.80
   0  -4  -4  661.93   27.30
   0   4   4  662.83   27.50
   0   4  -4  706.83   27.60
   0   4  -4  681.63   27.30
   0   4  -4  658.33   27.60
   0   4   4  631.74   27.30
   0   4   4  663.63   27.60
   0   4   4  646.34   27.20
   0   4  -4  615.94   26.60
   1  -4   4   97.59    9.30
   1  -4   4   92.09    9.50
   1  -4   4   87.49   10.00
  -1  -4  -4   90.29    8.40
  -1  -4  -4   87.59    7.70
  -1  -4  -4   84.99    8.20
   1  -4   4   97.39    9.90
  -1  -4  -4   86.99    8.60
  -1   4  -4   97.59    9.90
   1   4   4   91.09    8.20
   1   4   4   89.29    6.30
   1   4   4   89.79    6.20
  -1   4  -4   96.19    9.30
  -1   4  -4   97.59    9.60
   1   4   4   94.29    8.40
   2  -4   4   20.80    8.30
  -2  -4  -4   24.50    6.10
   2  -4   4   25.30    7.80
  -2  -4  -4   46.60    7.20
  -2  -4  -4   32.70    6.90
   2  -4   4   35.00    8.20
  -2  -4  -4   38.40    6.30
   2  -4   4   21.60    8.10
   2   4   4   28.90    6.70
   2   4   4   28.10    6.00
  -2   4  -4   28.10    7.90
  -2   4  -4   36.30    8.10
  -2   4  -4   26.80    8.00
  -2   4  -4   22.30    7.90
   3  -4   4   12.90   10.40
  -3  -4  -4   23.40    8.50
   3  -4   4    8.30   10.60
  -3  -4  -4    0.70    7.80
   3  -4   4    3.50   10.70
   3  -4   4   -8.10   10.60
  -3  -4  -4   10.70    8.20
  -3  -4  -4    6.30    8.20
   3   4   4   15.40    7.90
  -3   4  -4   10.80   11.50
  -3   4  -4   15.20   11.00
  -3   4  -4    7.40   10.60
   3   4   4    6.40    7.50
  -3   4  -4   29.10   11.30
  -4  -4  -4   -5.20   12.20
  -4  -4  -4   11.40   12.90
   4  -4   4    6.80   16.70
   4  -4   4   34.00   17.90
  -4  -4  -4    0.50   11.40
   4  -4   4    1.30   15.40
  -4  -4  -4   22.00   11.90
   4  -4   4   -8.90   16.00
  -4   4  -4   40.80   17.30
  -4   4  -4    8.70   16.50
   4   4   4    4.00   11.40
  -4   4  -4   43.50   17.00
  -4   4  -4   18.00   16.00
   4   4   4    5.80    8.80
   4  -5  -4   70.09   17.70
  -4  -5   4   81.79   13.80
  -4  -5   4   80.39   13.80
   4  -5  -4   67.69   15.60
  -4  -5   4   82.99   11.90
   4  -5  -4   58.69   15.30
  -4  -5   4   74.39   10.80
   4  -5  -4   77.09   19.40
  -4   5   4   37.30   17.70
  -4   5   4   42.80   15.70
   4   5  -4   66.49   11.30
  -4   5   4   74.69   17.80
  -4   5   4   90.59   18.00
   3  -5  -4  143.29   14.90
   3  -5  -4  145.69   16.80
  -3  -5   4  166.68   12.80
   3  -5  -4  142.89   15.00
  -3  -5   4  204.68   14.20
   3  -5  -4  122.99   15.00
  -3  -5   4  139.89   12.20
  -3  -5   4  179.48   13.90
  -3   5   4  149.39   19.70
   3   5  -4  190.28   12.20
  -3   5   4  166.08   16.80
   3   5  -4  180.08   13.00
  -3   5   4  129.19   15.80
  -3   5   4  114.19   15.00
   2  -5  -4  452.05   23.60
   2  -5  -4  470.85   24.10
   2  -5  -4  487.25   23.60
  -2  -5   4  430.86   19.70
   2  -5  -4  507.35   24.50
  -2  -5   4  479.65   20.30
  -2  -5   4  480.55   20.60
  -2  -5   4  449.36   19.60
   2   5  -4  461.95   20.70
   2   5  -4  449.76   19.40
  -2   5   4  485.05   24.30
  -2   5   4  444.76   24.20
  -2   5   4  472.55   24.10
  -2   5   4  445.76   23.50
   1  -5  -4  394.46   19.10
   1  -5  -4  395.16   19.20
  -1  -5   4  397.96   17.10
  -1  -5   4  375.16   16.50
  -1  -5   4  395.56   16.90
   1  -5  -4  391.76   19.50
  -1  -5   4  366.56   16.60
   1  -5  -4  383.66   19.00
   1   5  -4  406.76   16.90
   1   5  -4  382.06   17.00
  -1   5   4  376.96   18.80
  -1   5   4  395.66   19.30
  -1   5   4  387.46   19.20
  -1   5   4  387.26   19.10
   0  -5  -4  350.96   16.30
   0  -5  -4  340.07   16.40
   0  -5  -4  335.87   16.40
   0  -5   4  374.36   16.80
   0  -5  -4  332.27   16.60
   0  -5   4  349.37   16.30
   0  -5   4  359.46   15.90
   0  -5   4  350.06   16.70
   0   5   4  341.07   16.20
   0   5  -4  337.17   15.30
   0   5  -4  371.56   16.00
   0   5   4  336.47   16.40
   0   5   4  363.06   16.50
   0   5  -4  340.47   16.20
   0   5  -4  378.46   17.10
   0   5   4  344.67   16.10
   1  -5   4    7.70    5.00
  -1  -5  -4    1.00    3.90
   1  -5   4    4.70    5.90
  -1  -5  -4    2.70    4.50
  -1  -5  -4   -1.10    4.70
  -1  -5  -4    3.00    4.60
   1  -5   4   -1.30    5.50
   1  -5   4    1.70    5.50
  -1   5  -4   12.80    5.90
  -1   5  -4   -1.20    5.70
   1   5   4    1.10    4.20
  -1   5  -4    4.90    5.50
  -1   5  -4    5.50    5.20
   1   5   4    4.60    4.50
  -2  -5  -4  230.78   13.20
  -2  -5  -4  231.88   13.60
   2  -5   4  235.78   17.70
   2  -5   4  222.38   17.00
  -2  -5  -4  218.18   14.60
   2  -5   4  256.77   17.70
  -2  -5  -4  229.68   14.50
   2  -5   4  231.68   17.10
  -2   5  -4  253.77   17.40
   2   5   4  213.28   13.00
  -2   5  -4  236.38   17.50
   2   5   4  215.98   14.20
  -2   5  -4  263.07   16.80
  -2   5  -4  223.38   17.70
  -3  -5  -4   61.19    9.70
   3  -5   4   41.10   11.80
  -3  -5  -4   55.79    8.90
   3  -5   4   82.19   13.30
  -3  -5  -4   58.89    9.50
  -3  -5  -4   47.80    9.50
   3  -5   4   47.70   13.30
   3  -5   4   52.79   13.50
  -3   5  -4   60.79   13.20
  -3   5  -4   59.89   12.90
   3   5   4   62.39    9.40
   3   5   4   52.89    8.20
  -3   5  -4   46.80   13.10
   4  -5   4   10.80   17.90
   4  -5   4   12.30   18.40
  -4  -5  -4   27.10   12.60
   4  -5   4   19.20   17.20
   4  -5   4   40.40   17.20
  -4  -5  -4   22.10   11.90
  -4  -5  -4   44.00   11.70
  -4  -5  -4   27.50   13.40
  -4   5  -4   31.80   17.30
   4   5   4    9.10    9.50
  -4   5  -4   25.20   17.80
  -4   5  -4   45.10   19.30
   4   5   4   21.60   11.10
  -4   5  -4   20.40   16.50
   4  -6  -4  273.47   33.20
   4  -6  -4  262.17   29.10
  -4  -6   4  290.77   25.10
   4  -6  -4  366.66   31.60
   4  -6  -4  357.06   30.60
  -4  -6   4  332.87   23.50
  -4   6   4  351.26   34.10
  -4   6   4  267.07   31.20
  -4   6   4  346.57   32.40
  -4   6   4  337.67   31.80
  -3  -6   4  111.89   12.70
   3  -6  -4  139.79   17.40
   3  -6  -4  101.29   14.80
   3  -6  -4   98.79   12.40
   3  -6  -4  138.69   15.30
  -3  -6   4  121.09   12.60
  -3   6   4  136.99   16.30
  -3   6   4  107.39   15.10
  -3   6   4  116.89   15.70
   2  -6  -4  228.08   17.00
  -2  -6   4  190.38   11.20
   2  -6  -4  221.68   17.70
  -2  -6   4  217.88   11.90
   2  -6  -4  206.88   16.30
   2  -6  -4  237.28   17.70
  -2   6   4  219.78   17.30
  -2   6   4  210.18   17.20
  -2   6   4  235.58   17.50
  -2   6   4  234.68   17.10
   1  -6  -4  188.68   13.10
  -1  -6   4  205.18   10.40
   1  -6  -4  190.38   13.60
  -1  -6   4  199.58   10.00
  -1  -6   4  187.48   10.40
  -1  -6   4  201.58   10.70
   1  -6  -4  198.78   13.90
   1  -6  -4  194.08   13.30
  -1   6   4  181.78   13.60
  -1   6   4  180.88   13.60
   1   6  -4  189.68   10.00
  -1   6   4  186.58   13.20
  -1   6   4  205.78   13.90
   1   6  -4  196.18   10.50
   0  -6  -4    7.90    4.60
   0  -6   4   12.80    5.20
   0  -6  -4   10.50    4.90
   0  -6   4   10.50    5.10
   0  -6  -4    5.40    4.80
   0  -6  -4   12.10    5.10
   0  -6   4   11.10    4.40
   0  -6   4    6.40    4.60
   0   6   4   11.50    4.60
   0   6  -4    5.40    4.30
   0   6   4    4.70    4.70
   0   6   4    7.40    4.80
   0   6  -4   12.40    3.70
   0   6   4   10.40    4.70
  -1  -6  -4 2514.15   96.89
   1  -6   4 2637.44   98.39
   1  -6   4 2661.13   98.19
  -1  -6  -4 2363.86   96.19
  -1  -6  -4 2436.96   96.79
   1  -6   4 2522.95   97.69
   1  -6   4 2616.94   98.29
  -1  -6  -4 2345.77   96.39
  -1   6  -4 2623.34   97.99
  -1   6  -4 2642.64   98.29
   1   6   4 2427.86   96.79
   1   6   4 2413.46   96.39
  -1   6  -4 2553.24   98.09
  -1   6  -4 2615.14   97.59
  -2  -6  -4   54.39    6.90
   2  -6   4   48.50    9.30
  -2  -6  -4   57.59    6.60
   2  -6   4   44.40   10.30
  -2  -6  -4   37.70    7.50
  -2  -6  -4   49.40    7.80
   2  -6   4   46.10    9.00
   2  -6   4   44.20   10.00
  -2   6  -4   36.40    9.40
   2   6   4   57.19    7.10
  -2   6  -4   37.30    9.60
   2   6   4   40.10    6.00
  -2   6  -4   64.09   10.80
  -2   6  -4   50.69    9.60
   3  -6   4  361.96   26.50
  -3  -6  -4  352.46   18.50
  -3  -6  -4  347.27   19.90
  -3  -6  -4  323.07   19.70
   3  -6   4  324.17   25.70
  -3  -6  -4  319.87   19.80
   3  -6   4  328.47   26.00
  -3   6  -4  350.56   26.50
   3   6   4  301.77   17.30
  -3   6  -4  346.67   26.50
   3   6   4  312.47   19.30
  -3   6  -4  336.47   26.60
  -4  -6  -4   26.50   14.20
  -4  -6  -4   54.29   12.70
   4  -6   4   64.69   19.10
  -4  -6  -4   57.39   11.40
   4  -6   4   84.19   19.20
  -4  -6  -4   55.09   13.50
   4  -6   4   58.69   20.10
   4  -6   4   84.69   20.10
  -4   6  -4   70.49   19.10
   4   6   4   24.50   10.00
  -4   6  -4   84.89   20.70
  -4   6  -4   51.29   19.10
  -4   6  -4   39.60   19.70
   4   6   4   33.60   10.60
  -4  -7   4  159.08   15.50
   4  -7  -4  139.29   22.10
   4  -7  -4  108.09   21.10
   4  -7  -4  149.29   20.60
  -4  -7   4  141.29   16.40
   4  -7  -4  136.69   23.40
  -4   7   4  163.98   23.30
  -4   7   4  132.99   21.50
  -4   7   4  173.08   22.90
  -3  -7   4  759.02   32.40
  -3  -7   4  729.63   32.50
   3  -7  -4  784.02   39.20
   3  -7  -4  830.72   40.80
   3  -7  -4  755.52   38.70
  -3   7   4  787.92   40.10
  -3   7   4  760.02   39.80
  -3   7   4  736.03   39.50
   2  -7  -4  711.83   33.40
  -2  -7   4  653.63   28.00
   2  -7  -4  691.73   32.60
   2  -7  -4  694.33   32.50
   2  -7  -4  745.03   33.70
  -2  -7   4  639.34   27.40
  -2   7   4  698.63   32.50
  -2   7   4  699.93   33.00
  -2   7   4  665.93   32.60
  -2   7   4  669.03   33.10
   1  -7  -4  428.06   20.50
  -1  -7   4  372.56   16.90
  -1  -7   4  378.06   17.00
   1  -7  -4  344.27   19.90
   1  -7  -4  411.86   20.90
  -1  -7   4  373.96   17.70
  -1  -7   4  399.86   17.60
   1  -7  -4  422.96   21.00
  -1   7   4  408.46   20.70
  -1   7   4  394.16   20.20
   1   7  -4  396.46   17.40
  -1   7   4  404.06   20.60
  -1   7   4  400.86   20.50
   0  -7   4 1950.50   74.89
   0  -7   4 1954.40   75.09
   0  -7  -4 1881.91   75.19
   0  -7  -4 1922.71   75.29
   0  -7   4 2083.79   75.59
   0  -7  -4 1938.91   75.09
   0  -7  -4 1899.11   75.29
   0  -7   4 2016.50   75.49
   0   7   4 1862.41   75.19
   0   7   4 1974.70   74.69
   0   7  -4 1923.81   73.89
   0   7   4 1809.62   74.39
   0   7  -4 1846.52   74.99
   0   7   4 1955.40   75.79
   0   7  -4 1994.70   74.29
  -1  -7  -4   83.49    7.80
   1  -7   4   74.29    8.70
  -1  -7  -4   73.09    8.40
  -1  -7  -4   66.89    8.40
   1  -7   4   99.89   11.60
   1  -7   4   88.19   10.20
   1  -7   4  100.49   12.50
  -1  -7  -4   88.09    8.20
  -1   7  -4   95.69   11.70
   1   7   4   74.09    9.10
  -1   7  -4   99.69   10.90
  -1   7  -4   84.39    9.10
  -1   7  -4   91.89   11.70
   1   7   4   76.59    8.00
   2  -7   4  965.60   41.80
   2  -7   4  960.60   41.80
   2  -7   4  906.71   41.40
   2  -7   4  989.40   41.30
  -2  -7  -4  885.11   37.00
  -2  -7  -4  899.91   37.70
  -2  -7  -4  863.71   37.80
  -2  -7  -4  863.21   36.80
  -2   7  -4  969.50   41.60
  -2   7  -4  956.00   41.60
   2   7   4  837.32   36.50
  -2   7  -4  917.61   40.90
   2   7   4  871.71   36.70
  -2   7  -4 1028.40   41.70
  -3  -7  -4   61.39    9.40
   3  -7   4   36.00   14.40
   3  -7   4   34.10   13.30
  -3  -7  -4   48.60    7.80
   3  -7   4   35.90   14.40
  -3  -7  -4   42.00    9.90
  -3   7  -4   49.99   13.60
  -3   7  -4   60.39   15.20
  -3   7  -4   59.69   13.40
  -3  -8   4  430.66   20.80
   3  -8  -4  426.56   29.50
   3  -8  -4  454.55   30.60
   3  -8  -4  450.55   31.20
   3  -8  -4  388.86   29.10
  -3  -8   4  421.36   21.00
  -3   8   4  436.16   30.20
  -3   8   4  494.35   41.70
  -3   8   4  445.26   31.70
  -3   8   4  456.85   32.10
   2  -8  -4  465.95   27.70
   2  -8  -4  533.85   28.90
   2  -8  -4  508.75   26.90
   2  -8  -4  455.05   26.60
  -2   8   4  488.25   27.90
  -2   8   4  487.05   26.90
  -2   8   4  516.55   28.20
  -2   8   4  538.85   28.20
   1  -8  -4  974.80   40.40
   1  -8  -4 1030.40   40.60
   1  -8  -4  953.30   39.70
  -1  -8   4  860.71   36.70
  -1  -8   4  900.41   37.60
  -1  -8   4  933.91   37.40
  -1  -8   4  849.91   36.80
   1  -8  -4  993.80   40.10
  -1   8   4  933.21   40.20
   1   8  -4  929.61   37.10
  -1   8   4  962.20   39.50
   1   8  -4  839.32   36.60
  -1   8   4  989.00   40.20
  -1   8   4  945.01   40.10
   0  -8  -4  123.59   11.60
   0  -8  -4  121.69   11.20
   0  -8   4  108.79   10.90
   0  -8   4  118.29   11.50
   0  -8  -4  126.49   11.50
   0  -8  -4  121.09   11.10
   0  -8   4  111.79   12.00
   0  -8   4  124.39   10.80
   0   8   4  130.19   11.00
   0   8   4  112.19    9.90
   0   8  -4  106.49   10.10
   0   8  -4  124.59   10.70
   0   8  -4  125.19    8.30
   0   8   4  126.79   10.10
   0   8  -4  125.49    9.40
   1  -8   4 1679.63   64.99
   1  -8   4 1670.63   65.19
   1  -8   4 1687.33   65.59
  -1  -8  -4 1483.45   62.79
  -1  -8  -4 1579.64   63.29
  -1  -8  -4 1509.25   62.89
   1  -8   4 1725.73   65.59
   1   8   4 1476.85   62.59
  -1   8  -4 1728.63   65.09
  -1   8  -4 1632.64   64.29
  -1   8  -4 1673.33   65.19
  -1   8  -4 1677.93   65.29
   1   8   4 1533.65   63.19
  -2  -8  -4  222.28   14.60
   2  -8   4  276.17   21.40
  -2  -8  -4  240.38   15.40
   2  -8   4  241.68   20.30
  -2  -8  -4  209.78   12.70
   2  -8   4  233.38   20.50
   2  -8   4  247.18   21.00
  -2   8  -4  233.08   19.30
  -2   8  -4  271.07   21.50
  -2   8  -4  242.08   20.30
  -2   8  -4  251.97   21.10
  -3  -8  -4  628.24   31.70
   3  -8   4  662.23   39.20
   3  -8   4  721.43   38.60
   3  -8   4  752.12   39.30
   3  -8   4  719.93   40.10
  -3  -8  -4  675.53   31.30
  -3   8  -4  700.53   38.80
  -3   8  -4  664.33   38.50
  -3   8  -4  651.53   37.80
  -3   8  -4  730.13   38.30
   3  -9  -4  374.66   31.30
   3  -9  -4  305.77   27.40
   3  -9  -4  290.37   26.90
  -3  -9   4  314.17   17.20
   3  -9  -4  375.76   29.70
  -3   9   4  349.47   30.20
  -3   9   4  333.27   28.10
  -3   9   4  372.06   31.00
  -3   9   4  327.17   29.60
   2  -9  -4  117.59   15.10
   2  -9  -4   70.49   13.50
   2  -9  -4  110.59   13.10
   2  -9  -4  118.09   14.20
  -2   9   4   85.29   14.00
  -2   9   4   88.19   12.60
  -2   9   4   77.49   13.40
  -2   9   4   79.29   13.00
  -1  -9   4   40.40    6.40
   1  -9  -4   42.80    9.70
  -1  -9   4   30.50    5.40
   1  -9  -4   28.50    8.40
  -1  -9   4   35.70    6.80
  -1  -9   4   30.60    5.70
   1  -9  -4   29.30    8.40
   1  -9  -4   33.00    9.00
  -1   9   4   50.19    8.50
   1   9  -4   26.70    5.20
  -1   9   4   39.10    9.70
  -1   9   4   50.99    9.60
   1   9  -4   34.60    5.70
  -1   9   4   19.20    8.20
   0  -9  -4  649.54   29.30
   0  -9   4  682.73   29.50
   0  -9  -4  664.03   29.50
   0  -9  -4  662.83   29.30
   0  -9   4  647.14   28.90
   0  -9  -4  665.53   29.10
   0  -9   4  649.34   28.70
   0  -9   4  657.23   29.50
   0   9   4  655.63   27.70
   0   9  -4  658.63   26.30
   0   9  -4  649.74   28.80
   0   9  -4  648.44   28.70
   0   9   4  606.04   27.50
   0   9   4  664.43   29.00
   0   9  -4  656.23   26.80
  -1  -9  -4    5.80    5.80
   1  -9   4    0.00    8.90
  -1  -9  -4   -0.50    5.90
   1  -9   4   14.10    8.00
   1  -9   4   -7.00    7.20
   1  -9   4    1.50    8.40
  -1  -9  -4   -3.70    6.40
  -1  -9  -4    1.70    5.80
  -1   9  -4    7.50    8.30
  -1   9  -4    0.10    8.00
  -1   9  -4    3.70    6.90
   1   9   4    0.20    5.00
  -1   9  -4   -3.10    8.00
   1   9   4    1.30    6.30
  -2  -9  -4  178.28   13.70
   2  -9   4  207.68   20.60
   2  -9   4  196.78   20.70
   2  -9   4  223.38   20.90
  -2  -9  -4  187.68   15.40
   2  -9   4  237.08   20.80
  -2   9  -4  206.48   20.10
  -2   9  -4  243.08   21.40
  -2   9  -4  178.98   21.60
  -2   9  -4  206.58   20.10
   3  -9   4  209.08   26.50
   3  -9   4  154.28   19.20
  -3  -9  -4  141.89   17.50
   3  -9   4  222.98   28.60
   3  -9   4  172.28   21.10
  -3  -9  -4  188.08   17.50
  -3   9  -4  161.88   19.10
  -3   9  -4  183.78   20.80
  -3   9  -4  226.28   28.50
  -3   9  -4  224.38   27.70
   3 -10  -4   54.49   18.50
   3 -10  -4   41.40   15.90
   3 -10  -4   46.90   17.00
   3 -10  -4   61.19   17.80
  -3  10   4   56.19   17.40
  -3  10   4   32.60   15.70
  -3  10   4   94.79   18.90
  -3  10   4   40.70   16.70
   2 -10  -4  295.57   25.30
   2 -10  -4  260.97   23.30
   2 -10  -4  287.77   25.30
   2 -10  -4  272.07   23.20
  -2  10   4  337.17   25.60
  -2  10   4  274.37   24.50
  -2  10   4  270.57   23.70
  -2  10   4  289.97   22.10
  -1 -10   4  441.16   20.30
   1 -10  -4  463.55   25.20
  -1 -10   4  444.66   21.00
   1 -10  -4  513.45   26.30
  -1 -10   4  423.26   21.70
   1 -10  -4  447.56   24.90
   1 -10  -4  454.85   26.10
  -1 -10   4  460.95   21.20
   1  10  -4  406.06   19.80
  -1  10   4  467.35   25.40
  -1  10   4  508.55   25.30
  -1  10   4  530.45   24.20
  -1  10   4  449.16   25.30
   1  10  -4  440.36   20.50
   0 -10  -4    4.40    7.40
   0 -10  -4   -3.00    7.50
   0 -10   4   -0.60    7.70
   0 -10   4    3.30    6.90
   0 -10  -4   -0.10    7.30
   0 -10  -4    5.60    7.20
   0 -10   4    7.80    8.00
   0 -10   4    5.40    7.20
   0  10   4   -0.10    6.20
   0  10   4    2.70    5.50
   0  10  -4  -12.70    6.80
   0  10  -4  -10.70    6.60
   0  10   4    7.70    5.60
   0  10   4   -3.90    6.90
   1 -10   4  190.68   18.80
  -1 -10  -4  212.18   13.90
   1 -10   4  228.78   18.60
   1 -10   4  229.18   18.00
  -1 -10  -4  207.18   15.30
   1 -10   4  203.38   18.90
  -1 -10  -4  217.38   14.40
  -1 -10  -4  199.88   14.60
  -1  10  -4  232.88   17.80
   1  10   4  214.38   14.30
  -1  10  -4  215.68   18.60
  -1  10  -4  239.88   16.50
   1  10   4  189.78   12.90
  -1  10  -4  228.38   18.20
  -2 -10  -4   29.60    9.10
  -2 -10  -4   35.00    7.80
   2 -10   4   28.60   13.50
   2 -10   4   33.70   13.50
   2 -10   4   46.00   12.60
   2 -10   4   50.69   13.10
  -2  10  -4   42.60   13.40
  -2  10  -4    6.70   11.30
  -2  10  -4   27.80   11.40
  -2  10  -4   23.20   12.10
  -3 -10  -4  264.27   21.30
  -3 -10  -4  317.37   21.50
   3 -10   4  292.27   30.90
   3 -10   4  291.97   31.10
   3 -10   4  309.67   30.70
   3 -10   4  351.06   33.50
  -3  10  -4  307.57   31.70
  -3  10  -4  265.87   30.20
  -3  10  -4  307.97   33.00
  -3  10  -4  340.67   30.70
   3 -11  -4    8.90   16.20
   3 -11  -4   31.90   17.50
   3 -11  -4   39.40   19.10
   3 -11  -4   26.20   19.70
  -3  11   4   41.30   18.00
  -3  11   4   50.39   20.20
  -3  11   4   65.99   18.60
  -3  11   4   96.79   21.00
   2 -11  -4   73.19   14.30
   2 -11  -4   33.90   14.00
   2 -11  -4   60.49   15.50
   2 -11  -4   48.50   14.40
  -2  11   4   41.30   14.10
  -2  11   4   29.50   10.70
  -2  11   4   48.60   14.60
  -2  11   4   35.90   13.40
  -1 -11   4  128.09   12.50
  -1 -11   4  151.58   11.60
   1 -11  -4  153.78   17.70
   1 -11  -4  152.18   19.60
   1 -11  -4  138.29   17.70
  -1 -11   4  140.49   14.10
   1 -11  -4  201.38   19.80
  -1 -11   4  135.99   12.90
  -1  11   4  165.68   18.50
  -1  11   4  201.88   16.40
   1  11  -4  150.18   11.70
  -1  11   4  195.78   17.90
  -1  11   4  152.48   18.50
   0 -11   4   48.90   10.10
   0 -11   4   58.29    9.40
   0 -11  -4   56.79   10.30
   0 -11  -4   42.10    9.30
   0 -11  -4   48.90    9.90
   0 -11   4   36.90   10.00
   0 -11  -4   47.80    9.70
   0 -11   4   53.89    9.20
   0  11   4   46.70    6.40
   0  11   4   56.49    6.40
   0  11  -4   52.19    8.90
   0  11   4   46.50   13.70
   0  11   4   55.89    9.10
   0  11  -4   48.30    8.60
  -1 -11  -4   16.30    7.10
   1 -11   4   10.30    9.60
  -1 -11  -4   18.60    7.60
  -1 -11  -4    5.40    8.00
  -1 -11  -4   20.90    7.70
   1 -11   4   14.00   10.50
   1 -11   4    8.50    9.60
   1 -11   4    5.00   10.90
  -1  11  -4   14.30    8.20
  -1  11  -4   11.70    9.80
   1  11   4    9.30    6.20
  -1  11  -4   24.30   10.30
   1  11   4   19.00    7.90
  -1  11  -4   26.00   10.20
   2 -11   4   67.69   16.00
   2 -11   4   59.09   14.60
   2 -11   4   40.20   13.60
   2 -11   4   59.79   14.90
  -2 -11  -4   51.09    8.90
  -2  11  -4   32.30   13.70
  -2  11  -4   55.09   13.90
  -2  11  -4   60.69   14.30
  -2  11  -4   71.09   13.40
  -3 -11  -4  -10.60   11.20
   3 -11   4   -6.30   21.00
  -3 -11  -4   20.60   12.00
   3 -11   4  -12.00   18.20
   3 -11   4   31.70   17.00
   3 -11   4  -17.50   18.30
  -3  11  -4   24.60   19.20
  -3  11  -4    5.60   17.50
  -3  11  -4   12.90   18.40
  -3  11  -4    6.80   17.90
   2 -12  -4   56.99   15.30
   2 -12  -4   43.90   15.60
   2 -12  -4   42.40   14.40
   2 -12  -4   26.90   15.60
  -2  12   4   60.29   15.30
  -2  12   4   37.40   15.40
  -2  12   4   32.90   15.00
   1 -12  -4    9.10   10.50
   1 -12  -4   22.90   11.80
  -1 -12   4   27.20    7.80
  -1 -12   4    2.70    7.70
   1 -12  -4    0.40   11.40
  -1 -12   4    5.00    8.00
   1 -12  -4   11.90   10.20
  -1  12   4    6.20   11.70
  -1  12   4   12.80   10.90
  -1  12   4    5.30   10.30
   0 -12   4    8.40    9.40
   0 -12  -4   12.90    9.30
   0 -12  -4   12.10    9.70
   0 -12  -4    1.00    9.90
   0 -12   4   15.40    8.30
   0 -12  -4    7.90    9.10
   0 -12   4    5.80    8.80
   0 -12   4    5.20   10.10
   0  12   4   17.50    8.60
   0  12  -4   -1.30    8.10
  -1 -12  -4   19.00    8.80
  -1 -12  -4   -1.50    7.80
   1 -12   4   17.40   10.50
   1 -12   4    8.80   11.60
  -1 -12  -4    6.30    9.10
  -1 -12  -4    1.50    7.90
   1 -12   4    6.10   10.90
   1 -12   4   17.90   11.80
   1  12   4   -1.60    6.80
  -1  12  -4   11.60   10.90
  -1  12  -4    6.00   10.40
   1  12   4   11.00    7.30
  -1  12  -4    5.60   10.20
  -1  12  -4   12.80    8.80
  -2 -12  -4  103.99   11.80
   2 -12   4  102.09   17.10
   2 -12   4   91.49   17.30
  -2 -12  -4  132.19   15.80
   2 -12   4  132.29   18.60
   2 -12   4  114.99   17.60
  -2  12  -4  141.09   17.70
  -2  12  -4  148.99   18.40
  -2  12  -4  120.09   17.80
   2 -13  -4   53.49   17.20
   2 -13  -4   64.99   19.00
   2 -13  -4   84.29   17.10
   2 -13  -4  110.99   19.20
  -2  13   4   70.59   17.90
  -2  13   4   33.00   16.40
  -2  13   4   57.79   17.10
  -2  13   4   82.49   17.50
   1 -13  -4   35.60   12.90
   1 -13  -4   58.29   13.50
   1 -13  -4   36.30   12.40
  -1 -13   4   42.70    9.70
  -1 -13   4   47.70   10.10
   1 -13  -4   22.30   14.70
  -1  13   4   62.89   13.80
  -1  13   4   54.59   13.40
  -1  13   4   39.90   11.60
   0 -13  -4  240.08   21.60
   0 -13   4  288.77   21.20
   0 -13   4  279.57   21.10
   0 -13  -4  274.07   21.50
   0 -13   4  298.47   20.30
   0 -13   4  238.68   21.70
   0 -13  -4  284.17   22.70
   0 -13  -4  281.87   20.90
   0  13  -4  274.57   19.80
   0  13   4  258.57   20.80
  -1 -13  -4   52.39    9.60
   1 -13   4   40.10   13.60
  -1 -13  -4   62.49   11.40
   1 -13   4   54.89   14.50
   1 -13   4   59.09   13.10
  -1 -13  -4   59.99   10.00
   1 -13   4   46.00   13.50
  -1 -13  -4   65.69   11.40
  -1  13  -4   58.89   10.00
  -1  13  -4   59.29   11.90
  -1  13  -4   42.90   12.90
   1  13   4   63.39   12.30
   2 -13   4   73.09   18.90
  -2 -13  -4   74.99   12.00
   2 -13   4   80.39   17.70
   2 -13   4   86.79   18.40
  -2 -13  -4   94.49   12.50
   2 -13   4   91.49   18.60
  -2  13  -4   97.99   18.70
  -2  13  -4   93.49   17.20
  -2  13  -4   97.09   18.40
   1 -14  -4  204.68   20.40
  -1 -14   4  171.68   18.40
   1 -14  -4  221.58   25.40
   1 -14  -4  206.98   22.20
  -1 -14   4  181.38   16.00
   1 -14  -4  236.38   25.60
  -1  14   4  178.08   19.80
  -1  14   4  184.28   21.50
   0 -14  -4    7.90   12.00
   0 -14   4   -3.90   12.20
   0 -14   4  -11.30   11.60
   0 -14  -4  -10.00   11.20
   0 -14   4    3.20   10.30
   0 -14  -4   -2.20   12.60
   0 -14   4  -18.30   11.00
   0 -14  -4    1.60   11.90
   0  14   4  -15.70    7.90
   0  14  -4   -8.00   10.50
   0  14   4    8.00   11.30
   0  14  -4    6.40    8.20
  -1 -14  -4  152.68   16.90
  -1 -14  -4  159.68   20.40
   1 -14   4  205.38   19.50
  -1 -14  -4  170.98   17.00
   1 -14   4  205.18   22.40
  -1 -14  -4  181.08   20.70
   1 -14   4  191.58   19.80
   1 -14   4  211.88   21.60
  -1  14  -4  184.58   23.30
  -1  14  -4  182.48   19.30
   1  14   4  148.99   17.30
   0 -15   4  188.98   18.90
   0 -15   4  212.48   23.90
   0 -15  -4  193.68   23.50
   0 -15  -4  202.78   22.60
   0 -15   4  192.08   23.20
   0 -15  -4  218.38   24.90
   0 -15   4  214.78   21.00
   0 -15  -4  236.58   25.40
   0  15  -4  188.18   20.80
   0  15   4  181.98   22.50
   4   0  -5   -9.10    9.40
  -4   0   5   18.70   13.70
  -4   0   5  -14.10   11.70
   4   0  -5   13.30    8.10
  -4   0   5   -6.30   12.00
   4   0  -5   -5.50   12.00
  -4   0   5    5.80   12.10
   4   0  -5   12.40   10.10
   3   0  -5    0.70    7.60
  -3   0   5    5.50    8.20
   3   0  -5    3.20    6.80
   3   0  -5    2.40    7.80
  -3   0   5   -5.30    8.60
   3   0  -5    4.00    8.30
  -3   0   5   -1.50    8.50
  -3   0   5   -6.90    8.60
  -2   0   5    7.80    5.40
   2   0  -5   -5.50    5.00
   2   0  -5    2.20    5.10
  -2   0   5    1.30    5.70
  -2   0   5    1.50    5.70
   2   0  -5   -0.70    5.70
  -2   0   5    5.50    5.60
   2   0  -5   -1.30    5.60
  -1   0   5   -3.80    4.00
   1   0  -5    2.50    3.90
   1   0  -5   -3.00    4.10
  -1   0   5    1.80    4.50
   1   0  -5   -1.00    3.80
  -1   0   5    4.80    4.10
  -1   0   5   -1.50    3.70
   1   0  -5   -1.30    3.80
   0   0  -5   -5.30    4.40
   0   0   5   -2.40    4.40
   0   0  -5   -3.40    3.80
   0   0  -5   -4.30    3.80
   0   0   5    1.20    4.00
   0   0   5    3.10    4.20
   0   0   5   -0.80    3.60
   0   0  -5    1.10    3.80
  -1   0  -5    0.30    4.60
   1   0   5   -2.90    4.60
   1   0   5   -3.70    4.30
  -1   0  -5   -3.00    4.90
  -1   0  -5   -0.60    4.60
   1   0   5   -9.90    4.70
  -1   0  -5   -0.40    4.70
   1   0   5   -1.60    4.40
   2   0   5    8.30    6.20
   2   0   5   -1.40    6.20
   2   0   5    0.00    6.30
  -2   0  -5    3.60    6.10
  -2   0  -5    5.40    6.00
   2   0   5    4.80    6.40
  -2   0  -5   10.30    6.60
  -2   0  -5    0.60    5.80
  -3   0  -5   12.00    9.40
  -3   0  -5   -1.70    9.00
  -3   0  -5   -7.30    8.90
  -3   0  -5   -0.40    8.80
   3   0   5    5.40    9.10
   3   0   5    5.80    8.40
   3   0   5    1.60    9.60
   3   0   5   -4.40    9.10
  -4   0  -5   19.60   14.20
  -4   0  -5   -7.70   13.20
   4   0   5   14.70   10.70
   4   0   5  -10.20   13.50
   4   0   5    7.50    9.50
  -4   0  -5    8.40   13.10
  -4   0  -5   -8.70   12.00
   4   0   5  -18.00   11.90
   4  -1  -5    2.80   12.80
  -4  -1   5   26.70   12.80
  -4  -1   5   11.00   13.00
   4  -1  -5    9.60   10.60
  -4  -1   5   15.90   12.70
  -4  -1   5    9.10   12.00
   4  -1  -5   31.90   12.00
   4  -1  -5    0.60    9.80
   4   1  -5    9.60   12.10
   4   1  -5  -15.50   10.20
  -4   1   5   16.40   13.40
  -4   1   5   10.40   13.60
   4   1  -5   14.80    7.60
  -4   1   5   19.90   13.20
  -4   1   5   -1.60   13.70
  -3  -1   5   65.49   10.20
   3  -1  -5   87.19   11.00
   3  -1  -5   65.59    9.60
  -3  -1   5   75.19   10.50
   3  -1  -5   67.99   10.50
  -3  -1   5   69.09   10.40
  -3  -1   5   62.19    9.90
   3  -1  -5   70.19   10.80
   3   1  -5   73.29   10.10
  -3   1   5   81.89   11.60
  -3   1   5   63.29   10.70
  -3   1   5   70.69   11.10
   3   1  -5   66.99    9.00
   3   1  -5   67.99    7.80
  -3   1   5   73.79   11.40
  -2  -1   5  163.88   12.00
  -2  -1   5  155.08   11.90
   2  -1  -5  162.68   12.50
   2  -1  -5  155.48   13.20
   2  -1  -5  148.89   12.70
  -2  -1   5  156.98   11.70
  -2  -1   5  162.78   11.70
   2  -1  -5  166.38   12.40
   2   1  -5  138.69   11.70
   2   1  -5  158.98   10.50
   2   1  -5  155.38   11.50
  -2   1   5  158.38   12.80
  -2   1   5  158.58   12.60
  -2   1   5  163.28   12.70
  -2   1   5  165.58   12.60
   2   1  -5  154.78   11.50
   1  -1  -5   21.40    5.00
   1  -1  -5   16.40    4.80
  -1  -1   5   21.90    4.90
  -1  -1   5   19.70    4.40
  -1  -1   5   21.40    5.00
   1  -1  -5   18.00    4.90
   1  -1  -5   19.80    4.90
  -1  -1   5   17.40    4.50
   1   1  -5   20.00    4.20
  -1   1   5   22.80    4.90
   1   1  -5   21.80    4.60
   1   1  -5   18.70    4.60
  -1   1   5   20.00    5.20
  -1   1   5   21.50    5.10
  -1   1   5   20.80    4.80
   1   1  -5   25.20    5.60
   0  -1  -5   -4.50    4.20
   0  -1  -5   -0.40    3.70
   0  -1   5    0.70    4.50
   0  -1   5    2.70    3.70
   0  -1  -5    2.80    4.00
   0  -1   5    3.00    4.20
   0  -1  -5   -1.60    3.80
   0  -1   5    1.10    4.00
   0   1  -5    1.00    4.00
   0   1   5    0.80    4.40
   0   1   5    0.90    4.00
   0   1  -5    1.70    4.40
   0   1  -5    0.70    4.10
   0   1   5    0.70    3.90
   0   1   5    4.00    4.10
   0   1  -5    2.90    4.40
  -1  -1  -5  415.96   20.10
  -1  -1  -5  426.56   19.80
   1  -1   5  443.86   20.00
   1  -1   5  437.96   20.00
   1  -1   5  413.16   19.90
  -1  -1  -5  428.66   19.90
  -1  -1  -5  424.26   19.50
   1   1   5  407.66   19.20
   1   1   5  427.56   20.20
  -1   1  -5  424.86   20.10
  -1   1  -5  410.16   19.80
   1   1   5  439.86   19.70
  -1   1  -5  435.06   19.80
  -1   1  -5  396.46   19.70
   1   1   5  422.16   19.90
   2  -1   5   65.69    9.10
  -2  -1  -5   56.89    8.00
  -2  -1  -5   65.99    8.00
   2  -1   5   69.79    8.90
   2  -1   5   65.39    8.60
   2  -1   5   48.10    8.00
  -2  -1  -5   66.79    8.50
  -2  -1  -5   59.19    7.60
   2   1   5   64.09    7.60
  -2   1  -5   51.19    7.90
  -2   1  -5   66.89    8.60
   2   1   5   76.19    9.20
   2   1   5   55.89    8.10
   2   1   5   68.89    8.90
  -2   1  -5   76.69    9.30
  -3  -1  -5  349.27   21.80
   3  -1   5  373.36   22.30
  -3  -1  -5  371.06   22.20
  -3  -1  -5  346.87   22.60
   3  -1   5  376.66   23.30
  -3  -1  -5  332.57   22.10
   3  -1   5  365.76   21.80
   3  -1   5  357.26   23.10
   3   1   5  331.57   21.40
   3   1   5  363.86   21.60
  -3   1  -5  351.66   22.80
   3   1   5  341.77   19.20
  -3   1  -5  356.86   23.20
  -3   1  -5  361.46   22.70
   3   1   5  356.76   22.20
  -3   1  -5  351.36   23.20
   4  -1   5   12.90   12.40
  -4  -1  -5   30.30   13.10
   4  -1   5    4.10   13.30
  -4  -1  -5   22.50   12.60
   4  -1   5    1.40   10.70
  -4  -1  -5   22.40   13.90
  -4  -1  -5   18.30   14.00
   4  -1   5   31.50   14.80
  -4   1  -5   29.80   14.20
  -4   1  -5    8.90   14.20
  -4   1  -5   11.00   15.60
   4   1   5   -5.10    7.60
   4   1   5   15.40   13.30
   4   1   5    6.70   10.50
   4   1   5   -9.00   10.30
  -4   1  -5    4.00   13.60
   4  -2  -5   80.69   16.20
   4  -2  -5   57.49   14.10
  -4  -2   5   93.39   15.00
   4  -2  -5   64.59   12.80
  -4  -2   5   75.69   13.70
  -4  -2   5   54.99   13.30
   4  -2  -5   92.89   15.10
  -4  -2   5   82.89   14.80
   4   2  -5   86.29   14.00
  -4   2   5   77.99   16.20
  -4   2   5   76.99   15.80
  -4   2   5   94.09   16.50
  -4   2   5   99.39   16.80
   3  -2  -5  437.66   26.00
   3  -2  -5  488.35   25.00
  -3  -2   5  420.96   23.90
   3  -2  -5  493.95   25.10
  -3  -2   5  464.15   23.90
   3  -2  -5  418.56   25.40
  -3  -2   5  498.85   24.70
  -3  -2   5  482.75   24.30
  -3   2   5  454.75   26.30
   3   2  -5  451.15   23.70
  -3   2   5  442.66   25.50
  -3   2   5  482.75   26.20
  -3   2   5  487.55   26.30
   3   2  -5  491.95   23.80
  -2  -2   5   68.39    7.30
  -2  -2   5   72.39    9.10
   2  -2  -5   70.09    8.40
   2  -2  -5   70.59    8.30
  -2  -2   5   69.79    7.50
  -2  -2   5   59.79    7.60
   2  -2  -5   68.99    8.70
   2  -2  -5   58.59    7.80
  -2   2   5  100.39    9.80
   2   2  -5   55.49    6.70
  -2   2   5   84.29    8.90
   2   2  -5   67.39    7.00
   2   2  -5   70.49    7.20
   2   2  -5   70.09    7.40
  -2   2   5   73.59    8.30
  -2   2   5   68.59    8.40
   1  -2  -5 1443.96   57.19
  -1  -2   5 1489.55   56.89
  -1  -2   5 1432.76   56.79
   1  -2  -5 1451.45   57.29
  -1  -2   5 1456.95   56.59
  -1  -2   5 1427.46   56.29
   1  -2  -5 1475.25   57.19
   1  -2  -5 1481.35   57.09
   1   2  -5 1417.16   56.59
  -1   2   5 1448.36   57.19
  -1   2   5 1471.85   57.29
  -1   2   5 1454.75   57.19
   1   2  -5 1451.25   56.89
  -1   2   5 1489.95   57.29
   1   2  -5 1397.96   55.89
   0  -2   5 1806.62   71.99
   0  -2   5 1849.81   72.19
   0  -2  -5 1759.62   71.89
   0  -2   5 1836.22   71.99
   0  -2  -5 1919.01   71.89
   0  -2   5 1879.91   72.29
   0  -2  -5 1825.82   71.99
   0  -2  -5 1950.20   72.19
   0   2  -5 1957.60   72.09
   0   2   5 1832.72   71.89
   0   2  -5 1859.71   72.39
   0   2  -5 1874.51   72.29
   0   2  -5 1813.52   71.79
   0   2   5 1939.91   72.09
   0   2   5 1781.42   71.99
   0   2   5 1870.11   71.99
  -1  -2  -5  335.87   16.80
   1  -2   5  332.37   16.80
  -1  -2  -5  315.17   16.30
  -1  -2  -5  330.17   16.70
  -1  -2  -5  308.27   16.00
   1  -2   5  341.37   17.00
   1  -2   5  366.56   17.10
   1  -2   5  339.87   16.60
   1   2   5  316.27   16.30
  -1   2  -5  313.07   16.50
   1   2   5  329.47   16.90
  -1   2  -5  310.77   16.50
   1   2   5  300.47   16.20
  -1   2  -5  334.27   16.80
   1   2   5  327.87   15.60
  -1   2  -5  313.57   16.60
   2  -2   5   11.80    7.40
   2  -2   5   17.00    7.40
  -2  -2  -5   11.50    6.10
  -2  -2  -5    8.60    6.70
  -2  -2  -5   13.20    6.30
  -2  -2  -5    6.90    6.20
   2  -2   5   12.70    7.00
   2  -2   5    6.00    6.90
  -2   2  -5   11.80    7.10
  -2   2  -5    8.70    7.00
   2   2   5   11.30    6.70
   2   2   5   11.00    6.10
   2   2   5   10.60    5.30
  -2   2  -5    5.10    7.00
   2   2   5   12.90    6.50
  -3  -2  -5   29.40    9.10
   3  -2   5   44.90   11.50
   3  -2   5   32.90   10.90
  -3  -2  -5   36.30    9.30
   3  -2   5   28.90   11.00
  -3  -2  -5   33.80    9.40
  -3  -2  -5   34.30    9.60
   3  -2   5   34.10   10.60
  -3   2  -5   27.20   10.30
   3   2   5   35.70    6.90
  -3   2  -5   37.10   10.70
  -3   2  -5   31.30   10.60
  -3   2  -5   31.00   10.70
   3   2   5   25.20    8.50
   4  -2   5  278.07   25.80
   4  -2   5  325.27   28.40
  -4  -2  -5  304.37   25.00
   4  -2   5  307.07   26.50
  -4  -2  -5  302.07   25.70
   4  -2   5  351.66   29.80
  -4  -2  -5  287.67   26.50
  -4  -2  -5  322.87   26.50
  -4   2  -5  280.87   28.20
  -4   2  -5  321.77   29.00
   4   2   5  259.07   25.60
  -4   2  -5  356.76   28.90
  -4   2  -5  288.77   28.70
   4  -3  -5  454.75   28.10
  -4  -3   5  434.06   26.50
   4  -3  -5  447.46   30.70
  -4  -3   5  422.66   28.60
  -4  -3   5  445.26   27.20
  -4  -3   5  473.35   28.50
   4  -3  -5  393.16   30.80
   4  -3  -5  472.85   29.00
  -4   3   5  405.06   31.70
  -4   3   5  457.55   32.00
  -4   3   5  464.25   32.20
   4   3  -5  386.26   26.30
  -4   3   5  424.86   32.30
  -3  -3   5   91.29   10.50
   3  -3  -5   69.49   11.20
  -3  -3   5   95.39   10.60
   3  -3  -5   91.19   13.20
  -3  -3   5  105.29   10.60
  -3  -3   5   91.89   10.50
   3  -3  -5   84.99   12.10
   3  -3  -5  109.89   12.80
  -3   3   5   63.19   12.00
  -3   3   5   84.99   12.70
   3   3  -5  122.59   12.60
  -3   3   5  110.29   13.60
  -3   3   5   84.59   11.80
   3   3  -5   96.49   10.00
   2  -3  -5 2495.75   93.99
   2  -3  -5 2369.66   93.99
  -2  -3   5 2432.96   92.59
  -2  -3   5 2295.87   92.19
  -2  -3   5 2424.46   92.39
  -2  -3   5 2433.86   92.39
   2  -3  -5 2430.86   93.69
   2  -3  -5 2432.16   93.79
  -2   3   5 2379.46   93.79
  -2   3   5 2501.85   94.09
   2   3  -5 2358.36   92.19
   2   3  -5 2350.96   92.49
  -2   3   5 2320.37   93.79
  -2   3   5 2411.56   94.09
   1  -3  -5  641.44   27.50
   1  -3  -5  641.14   27.40
  -1  -3   5  643.54   26.90
  -1  -3   5  646.04   26.50
   1  -3  -5  646.24   27.60
  -1  -3   5  649.14   27.00
   1  -3  -5  652.43   27.40
  -1   3   5  636.64   27.40
   1   3  -5  641.54   27.10
  -1   3   5  621.34   27.40
   1   3  -5  597.04   25.30
  -1   3   5  635.84   27.50
   1   3  -5  637.24   25.50
  -1   3   5  636.24   27.50
   0  -3  -5 2149.39   81.09
   0  -3   5 2037.20   81.09
   0  -3   5 2104.49   81.19
   0  -3  -5 2105.79   80.99
   0  -3  -5 2099.89   80.79
   0  -3   5 2094.99   80.79
   0  -3   5 1998.20   80.89
   0   3   5 2135.09   81.09
   0   3   5 2053.69   80.89
   0   3  -5 2171.78   81.19
   0   3  -5 1998.90   80.69
   0   3  -5 2179.58   80.59
   0   3   5 2096.19   80.79
   0   3  -5 2121.49   81.29
   0   3   5 2130.99   80.99
   1  -3   5 2283.17   86.79
   1  -3   5 2123.99   86.19
  -1  -3  -5 2229.48   86.39
  -1  -3  -5 2357.16   86.39
  -1  -3  -5 2137.99   85.79
   1  -3   5 2181.88   86.59
  -1  -3  -5 2219.18   86.09
   1   3   5 2340.37   86.89
  -1   3  -5 2259.67   86.59
   1   3   5 2302.97   85.59
   1   3   5 2185.08   86.09
   1   3   5 2166.38   85.19
  -1   3  -5 2269.07   86.59
  -1   3  -5 2125.99   86.39
  -1   3  -5 2221.48   86.29
   2  -3   5  105.59   13.40
   2  -3   5  109.49   13.40
   2  -3   5  109.39   13.70
  -2  -3  -5   97.79   10.90
  -2  -3  -5  103.49   11.40
  -2  -3  -5  104.29   12.20
   2  -3   5  114.09   11.40
  -2  -3  -5  119.79   12.10
   2   3   5   97.99   10.90
   2   3   5   97.09    8.30
  -2   3  -5  111.89   13.40
   2   3   5   98.79   10.20
  -2   3  -5  115.79   11.70
  -2   3  -5  107.89   13.60
  -2   3  -5  122.99   13.50
   3  -3   5 1335.57   56.59
  -3  -3  -5 1335.37   55.29
  -3  -3  -5 1337.17   55.39
  -3  -3  -5 1325.07   55.29
  -3  -3  -5 1328.97   55.49
   3  -3   5 1336.57   56.79
   3  -3   5 1399.56   57.59
   3  -3   5 1325.77   57.39
  -3   3  -5 1331.87   57.39
  -3   3  -5 1273.87   57.19
   3   3   5 1301.67   51.59
   3   3   5 1247.48   54.89
  -3   3  -5 1298.77   57.29
  -3   3  -5 1334.47   57.19
   3   3   5 1474.05   60.99
  -4  -3  -5    2.20   13.30
   4  -3   5   12.90   16.50
  -4  -3  -5   -5.40   11.80
  -4  -3  -5  -11.10   11.40
  -4  -3  -5   -0.90   12.90
   4  -3   5   22.30   16.20
   4  -3   5   -3.20   14.90
   4   3   5    7.20   13.00
  -4   3  -5   -3.10   15.50
  -4   3  -5   25.00   16.60
  -4   3  -5   -2.30   14.70
   4   3   5    4.80    9.20
  -4   3  -5   -9.20   16.20
   4  -4  -5   11.90   14.30
   4  -4  -5   15.20   14.20
   4  -4  -5  -18.10   12.70
  -4  -4   5   -3.90   12.80
  -4  -4   5   -1.50   10.80
  -4  -4   5   -5.20   12.70
  -4  -4   5    9.20   11.40
   4   4  -5    3.00   11.10
  -4   4   5   10.70   15.20
  -4   4   5  -12.00   15.00
  -4   4   5    7.70   15.30
  -4   4   5   -7.80   15.20
   3  -4  -5 1446.96   60.09
   3  -4  -5 1375.96   59.29
   3  -4  -5 1421.56   58.69
  -3  -4   5 1384.46   56.39
   3  -4  -5 1336.57   58.69
  -3  -4   5 1420.66   56.29
  -3  -4   5 1351.16   56.49
  -3  -4   5 1372.86   56.29
   3   4  -5 1341.77   56.19
  -3   4   5 1392.56   59.29
  -3   4   5 1461.75   59.89
  -3   4   5 1383.56   59.29
   3   4  -5 1421.06   55.79
  -3   4   5 1485.25   60.19
  -2  -4   5  201.88   12.70
   2  -4  -5  214.68   16.30
   2  -4  -5  218.78   16.50
  -2  -4   5  242.28   13.60
  -2  -4   5  228.68   12.80
  -2  -4   5  230.38   13.20
   2  -4  -5  235.68   16.30
   2  -4  -5  230.58   16.00
  -2   4   5  222.68   16.70
  -2   4   5  238.18   16.50
  -2   4   5  236.48   16.70
   2   4  -5  222.18   12.30
   2   4  -5  219.08   13.60
  -2   4   5  218.28   15.80
  -1  -4   5 1421.66   54.99
   1  -4  -5 1419.16   55.39
  -1  -4   5 1444.36   54.49
   1  -4  -5 1430.06   55.79
   1  -4  -5 1386.66   55.49
  -1  -4   5 1348.17   53.99
  -1  -4   5 1407.46   54.59
   1  -4  -5 1384.86   55.59
  -1   4   5 1395.46   55.59
   1   4  -5 1309.57   54.89
  -1   4   5 1350.96   55.49
   1   4  -5 1415.96   54.39
  -1   4   5 1383.66   55.49
  -1   4   5 1421.56   55.69
   0  -4  -5  607.04   26.20
   0  -4   5  617.74   26.70
   0  -4  -5  618.44   26.60
   0  -4   5  609.64   26.20
   0  -4  -5  669.53   26.60
   0  -4   5  607.54   26.80
   0  -4   5  627.44   26.90
   0  -4  -5  648.94   26.90
   0   4   5  606.84   26.40
   0   4  -5  671.33   26.90
   0   4   5  626.04   26.40
   0   4  -5  602.54   25.70
   0   4  -5  633.04   26.30
   0   4   5  626.14   26.50
   0   4   5  620.14   26.60
   0   4  -5  608.84   26.70
   1  -4   5  302.17   16.20
   1  -4   5  303.77   17.10
  -1  -4  -5  284.07   15.10
   1  -4   5  297.87   16.60
  -1  -4  -5  298.97   15.40
  -1  -4  -5  300.37   15.90
  -1  -4  -5  314.77   15.60
   1  -4   5  307.07   16.60
  -1   4  -5  316.37   16.30
   1   4   5  298.87   14.20
  -1   4  -5  318.67   16.50
   1   4   5  286.37   15.40
  -1   4  -5  291.47   16.10
  -1   4  -5  279.77   16.50
   1   4   5  289.67   14.00
  -2  -4  -5 1732.23   69.79
   2  -4   5 1767.12   71.39
  -2  -4  -5 1853.51   70.69
  -2  -4  -5 1822.22   69.99
   2  -4   5 1663.93   71.49
   2  -4   5 1759.52   71.59
   2  -4   5 1779.82   71.69
  -2  -4  -5 1801.72   70.39
  -2   4  -5 1890.11   72.09
   2   4   5 1780.82   70.59
  -2   4  -5 1829.22   71.69
  -2   4  -5 1788.42   71.49
  -2   4  -5 1770.42   71.29
   2   4   5 1699.93   69.69
   3  -4   5    5.40   11.20
  -3  -4  -5    9.10    8.30
  -3  -4  -5   22.40    9.50
  -3  -4  -5    1.60    9.10
   3  -4   5   14.50   11.90
   3  -4   5    9.70   11.50
   3  -4   5    7.50   11.60
  -3  -4  -5   13.80    8.70
  -3   4  -5    6.10   11.20
  -3   4  -5    5.20   10.60
  -3   4  -5   -4.50   11.00
   3   4   5   11.00    8.50
  -3   4  -5   12.10   11.00
   3   4   5   10.00    8.10
  -4  -4  -5  347.47   24.70
   4  -4   5  350.26   30.60
  -4  -4  -5  314.47   25.60
  -4  -4  -5  334.47   26.70
   4  -4   5  396.66   31.70
   4  -4   5  275.97   33.00
   4  -4   5  331.57   29.90
  -4  -4  -5  304.87   27.40
  -4   4  -5  364.36   33.80
  -4   4  -5  330.57   31.50
  -4   4  -5  360.86   32.10
  -4   4  -5  334.37   32.60
   4   4   5  308.47   25.20
   4  -5  -5  332.47   28.90
  -4  -5   5  277.37   25.00
   4  -5  -5  340.57   31.70
  -4  -5   5  338.37   22.10
  -4  -5   5  301.17   21.10
   4  -5  -5  313.87   30.50
  -4  -5   5  316.37   24.60
   4  -5  -5  325.97   28.20
  -4   5   5  330.67   30.30
   4   5  -5  323.17   22.20
  -4   5   5  368.66   31.20
  -4   5   5  315.27   31.80
  -4   5   5  407.96   32.80
  -3  -5   5   19.00    8.00
   3  -5  -5   30.70   11.60
  -3  -5   5   18.80    7.70
   3  -5  -5   -1.50   10.60
  -3  -5   5   19.20    7.90
   3  -5  -5   -0.10   11.00
   3  -5  -5   29.00   11.00
  -3  -5   5   24.00    7.50
   3   5  -5   20.30    7.90
  -3   5   5    3.10   11.80
  -3   5   5   12.80   10.90
   3   5  -5   27.40    6.60
  -3   5   5   18.90   10.20
  -3   5   5   18.20   11.10
  -2  -5   5  852.51   34.80
  -2  -5   5  811.82   34.30
   2  -5  -5  891.41   37.80
   2  -5  -5  830.52   38.00
   2  -5  -5  845.82   37.70
   2  -5  -5  820.62   37.10
  -2  -5   5  872.21   35.10
  -2  -5   5  838.82   34.30
  -2   5   5  946.11   38.30
   2   5  -5  846.12   35.30
  -2   5   5  842.02   38.00
  -2   5   5  850.01   37.50
   2   5  -5  824.42   34.00
  -2   5   5  843.92   37.90
  -1  -5   5  564.54   23.70
  -1  -5   5  540.75   23.30
   1  -5  -5  572.54   25.30
   1  -5  -5  508.65   24.90
  -1  -5   5  547.75   23.50
   1  -5  -5  574.24   25.70
   1  -5  -5  579.04   25.60
  -1  -5   5  559.74   24.10
  -1   5   5  570.14   25.50
  -1   5   5  527.35   25.10
   1   5  -5  564.94   23.70
  -1   5   5  538.05   25.30
   1   5  -5  546.45   24.00
  -1   5   5  583.74   25.60
   0  -5   5  160.98   11.10
   0  -5  -5  162.68   10.60
   0  -5  -5  140.09   10.60
   0  -5   5  128.99   11.00
   0  -5   5  154.18   10.20
   0  -5  -5  143.29   10.40
   0  -5   5  139.09   10.70
   0  -5  -5  167.48   11.40
   0   5   5  140.79   10.20
   0   5  -5  146.09    9.30
   0   5   5  147.49   10.50
   0   5  -5  158.28   11.00
   0   5   5  149.59   10.80
   0   5  -5  170.48   10.60
   0   5  -5  138.29   10.70
   0   5   5  149.88   10.50
   1  -5   5 1660.43   63.59
  -1  -5  -5 1534.75   61.89
  -1  -5  -5 1588.94   62.29
  -1  -5  -5 1655.93   62.59
   1  -5   5 1659.83   63.59
   1  -5   5 1621.64   63.29
  -1  -5  -5 1554.94   62.29
   1  -5   5 1536.15   62.79
   1   5   5 1523.95   62.29
   1   5   5 1478.55   60.69
   1   5   5 1506.35   60.79
  -1   5  -5 1588.04   62.79
  -1   5  -5 1632.44   63.29
   1   5   5 1652.73   62.39
  -1   5  -5 1628.44   63.29
  -2  -5  -5   56.49    8.40
   2  -5   5   48.10   10.30
  -2  -5  -5   66.99    8.10
   2  -5   5   65.79   10.80
   2  -5   5   42.70    9.40
  -2  -5  -5   67.99    9.00
   2  -5   5   52.99    9.50
  -2  -5  -5   58.19    7.90
  -2   5  -5   55.09    9.70
   2   5   5   53.09    7.50
   2   5   5   48.90    8.30
  -2   5  -5   64.39   10.50
  -2   5  -5   49.10    9.20
  -2   5  -5   73.09   10.80
   3  -5   5  505.65   31.00
  -3  -5  -5  495.95   25.10
  -3  -5  -5  471.25   26.40
   3  -5   5  526.15   30.20
   3  -5   5  537.05   30.50
   3  -5   5  519.15   30.80
  -3  -5  -5  501.75   25.90
  -3  -5  -5  487.65   26.30
  -3   5  -5  516.75   31.20
   3   5   5  455.75   24.40
  -3   5  -5  551.94   31.60
   3   5   5  507.05   26.10
  -3   5  -5  528.15   31.30
  -4  -5  -5   10.40   11.10
  -4  -5  -5   23.00   12.70
   4  -5   5   -3.20   17.30
   4  -5   5   21.20   17.20
   4  -5   5  -24.50   18.10
   4  -5   5   -7.70   16.90
  -4  -5  -5   -7.90   13.30
  -4  -5  -5   18.60   12.80
  -4   5  -5   27.70   18.40
   4   5   5    1.60   11.80
  -4   5  -5   11.00   17.10
  -4   5  -5  -24.80   16.60
   4   5   5    8.00   10.00
  -4   5  -5    6.40   17.10
   4  -6  -5   24.30   16.10
   4  -6  -5    6.90   15.10
  -4  -6   5   32.00   12.80
   4  -6  -5   -0.80   15.40
  -4  -6   5    8.70    8.90
  -4  -6   5   -4.40   12.10
  -4  -6   5   -0.90   10.30
   4  -6  -5  -10.70   16.30
  -4   6   5   19.90   18.10
  -4   6   5  -19.70   16.80
  -4   6   5   21.30   18.70
  -4   6   5   21.70   17.10
  -3  -6   5  492.25   23.40
  -3  -6   5  482.05   23.40
   3  -6  -5  470.05   30.10
  -3  -6   5  477.35   21.60
   3  -6  -5  457.55   29.20
   3  -6  -5  501.85   29.80
  -3  -6   5  458.65   23.00
  -3   6   5  461.15   30.20
  -3   6   5  444.06   30.10
  -3   6   5  474.25   30.00
  -2  -6   5  150.78   11.70
   2  -6  -5  193.98   17.20
   2  -6  -5  174.48   17.00
  -2  -6   5  166.48   11.70
   2  -6  -5  167.18   15.90
   2  -6  -5  165.28   15.90
  -2  -6   5  169.78   10.40
  -2  -6   5  169.98   10.90
  -2   6   5  152.18   16.90
  -2   6   5  145.99   15.90
   2   6  -5  178.98    9.80
  -2   6   5  146.39   16.90
  -2   6   5  162.88   16.60
   1  -6  -5  661.33   28.50
   1  -6  -5  637.64   28.70
  -1  -6   5  633.14   26.60
  -1  -6   5  600.04   26.40
   1  -6  -5  644.64   28.90
  -1  -6   5  615.44   26.30
   1  -6  -5  601.94   28.10
  -1  -6   5  643.44   26.70
  -1   6   5  618.44   28.30
   1   6  -5  643.84   26.50
   1   6  -5  607.74   26.30
  -1   6   5  650.13   28.70
  -1   6   5  641.04   28.70
  -1   6   5  652.53   28.60
   0  -6  -5   45.50    7.20
   0  -6  -5   37.40    6.10
   0  -6  -5   34.90    6.10
   0  -6   5   45.20    6.10
   0  -6   5   49.80    6.50
   0  -6   5   44.90    7.00
   0  -6   5   28.70    6.50
   0  -6  -5   39.00    6.70
   0   6   5   45.60    6.40
   0   6  -5   50.99    6.60
   0   6   5   41.20    6.50
   0   6   5   43.70    6.30
   0   6  -5   43.40    5.20
   0   6   5   36.60    6.40
   0   6  -5   34.00    6.50
   0   6  -5   41.30    6.10
   1  -6   5   83.89    9.30
  -1  -6  -5   92.09   10.70
  -1  -6  -5  105.39   10.30
  -1  -6  -5   90.09    9.90
   1  -6   5  106.19   11.40
   1  -6   5   96.09   10.30
  -1  -6  -5   99.99    9.30
   1  -6   5   83.89    9.50
   1   6   5   95.79   10.10
  -1   6  -5   88.29   11.00
  -1   6  -5  109.09   12.20
  -1   6  -5   84.49    9.40
  -1   6  -5  109.09   12.70
   1   6   5   99.39    9.40
   2  -6   5  742.03   35.30
   2  -6   5  770.42   35.80
  -2  -6  -5  721.43   33.00
  -2  -6  -5  763.62   32.20
  -2  -6  -5  734.93   33.00
   2  -6   5  776.62   36.10
  -2  -6  -5  735.63   32.70
   2   6   5  721.73   32.50
  -2   6  -5  826.82   35.80
  -2   6  -5  814.32   36.20
  -2   6  -5  787.32   35.80
   2   6   5  743.13   31.90
  -2   6  -5  757.52   34.90
  -3  -6  -5   12.60   10.00
  -3  -6  -5   31.50    9.20
  -3  -6  -5   12.90    8.00
  -3  -6  -5    3.10    9.00
   3  -6   5   15.10   12.40
   3  -6   5   12.80   13.10
   3  -6   5   -3.70   13.00
   3   6   5   -3.50    6.60
  -3   6  -5    9.00   12.60
  -3   6  -5   17.80   12.50
   3   6   5   15.30    9.60
  -3   6  -5    8.90   13.00
   4  -6   5  142.59   22.20
   4  -6   5  119.79   22.60
  -4  -6  -5  144.09   18.20
  -4  -6  -5  170.68   17.40
  -4  -6  -5  167.08   20.30
   4  -6   5  156.98   21.80
  -4  -6  -5  176.28   18.40
   4  -6   5  143.79   23.70
  -4   6  -5  153.18   23.50
  -4   6  -5  154.58   22.00
   4   6   5  153.28   18.40
  -4   6  -5  137.49   23.00
   3  -7  -5   20.70   14.30
   3  -7  -5   21.10   13.00
   3  -7  -5   49.80   13.30
  -3   7   5    4.40   13.20
  -3   7   5   29.20   13.30
  -3   7   5    7.20   13.60
   2  -7  -5   97.19   12.10
  -2  -7   5   92.39   10.30
   2  -7  -5  101.59   13.00
   2  -7  -5  101.59   12.70
  -2  -7   5  102.99    9.00
   2  -7  -5   98.09   12.70
  -2   7   5   85.49   11.70
  -2   7   5   70.19   10.70
  -2   7   5   93.39   11.60
  -2   7   5   84.09   11.40
  -1  -7   5   18.80    5.80
   1  -7  -5   17.10    7.50
  -1  -7   5   21.90    5.70
   1  -7  -5   25.40    7.50
   1  -7  -5   22.10    7.40
   1  -7  -5   18.20    6.60
  -1  -7   5   24.90    5.40
  -1  -7   5   21.80    5.20
  -1   7   5    5.90    7.00
   1   7  -5   29.30    5.20
  -1   7   5   10.40    7.10
  -1   7   5   26.30    7.20
  -1   7   5   25.80    7.30
   1   7  -5   26.10    5.30
   0  -7  -5    7.70    5.70
   0  -7   5   13.30    6.50
   0  -7   5   11.80    5.30
   0  -7  -5   14.00    6.30
   0  -7   5   12.10    5.80
   0  -7  -5   10.80    5.70
   0  -7   5   11.40    6.30
   0  -7  -5    8.10    6.10
   0   7   5   21.10    5.90
   0   7   5   18.30    5.60
   0   7   5    6.90    6.10
   0   7  -5   12.10    5.40
   0   7  -5   20.30    4.70
   0   7   5   13.30    5.90
  -1  -7  -5  165.18   11.70
   1  -7   5  154.88   13.70
  -1  -7  -5  141.09   12.70
  -1  -7  -5  150.08   11.30
   1  -7   5  167.18   14.80
   1  -7   5  157.38   15.20
  -1  -7  -5  151.08   11.80
   1  -7   5  172.48   14.00
  -1   7  -5  172.68   14.80
   1   7   5  156.68   11.20
  -1   7  -5  147.09   13.10
   1   7   5  141.39   12.00
  -1   7  -5  171.68   14.30
  -1   7  -5  166.38   14.60
   2  -7   5   28.10   10.50
  -2  -7  -5   34.50    8.00
  -2  -7  -5   28.80    6.80
  -2  -7  -5   34.60    7.40
   2  -7   5   29.80   11.10
  -2  -7  -5   20.70    7.70
   2  -7   5   13.90   10.80
   2  -7   5   34.00    9.90
  -2   7  -5   14.60    9.90
   2   7   5   33.00    6.80
  -2   7  -5   37.50   10.20
  -2   7  -5   38.70   10.80
  -2   7  -5   26.70   10.60
   2   7   5   31.00    6.70
  -3  -7  -5   23.60    9.00
   3  -7   5    2.60   13.60
   3  -7   5   -4.80   14.70
   3  -7   5   13.20   14.10
  -3  -7  -5   10.50    7.60
  -3  -7  -5   11.40    9.10
  -3  -7  -5   18.00    9.70
   3  -7   5   -4.10   12.80
  -3   7  -5   15.40   13.50
  -3   7  -5   21.30   14.40
   3   7   5   12.70    8.60
  -3   7  -5    8.50   13.50
   3  -8  -5   26.40   12.90
   3  -8  -5    8.70   13.70
   3  -8  -5   -1.60   14.30
   3  -8  -5   -3.30   13.60
  -3   8   5   -4.90   13.60
  -3   8   5  -21.40   13.70
  -3   8   5   20.20   14.80
  -3   8   5    5.80   13.30
   2  -8  -5   33.50   10.40
   2  -8  -5   25.10   10.30
  -2  -8   5   31.90    6.80
   2  -8  -5   30.40   10.70
   2  -8  -5   49.70   11.50
  -2   8   5   22.50   10.90
  -2   8   5   27.20   11.20
  -2   8   5   34.90   10.40
  -2   8   5   27.80   10.70
   1  -8  -5   87.59   11.30
  -1  -8   5   85.69    9.70
  -1  -8   5   68.09    8.50
   1  -8  -5   89.89   10.60
  -1  -8   5   85.89    8.50
   1  -8  -5   69.69    9.20
   1  -8  -5   63.19    8.90
  -1  -8   5   78.69    8.90
  -1   8   5   81.49   10.00
  -1   8   5   73.79   10.00
   1   8  -5   72.09    9.10
  -1   8   5   97.09   10.80
  -1   8   5   72.29    9.30
   0  -8  -5   23.40    6.80
   0  -8   5   30.50    7.60
   0  -8   5   28.40    6.90
   0  -8   5   25.60    7.40
   0  -8  -5   19.50    6.30
   0  -8  -5   10.70    6.70
   0  -8  -5   24.90    7.10
   0  -8   5   21.80    6.40
   0   8   5   21.40    6.30
   0   8  -5   22.90    7.10
   0   8  -5   29.40    6.00
   0   8  -5   17.10    4.80
   0   8   5   27.00    6.20
   0   8   5   17.70    6.90
   0   8   5   20.70    6.80
   1  -8   5   25.30    8.40
  -1  -8  -5   19.60    6.30
  -1  -8  -5   25.40    6.50
   1  -8   5   19.90    9.00
   1  -8   5   15.10    8.60
   1  -8   5   23.30    8.00
  -1  -8  -5   16.80    6.60
  -1   8  -5   11.50    8.50
  -1   8  -5   15.40    7.30
  -1   8  -5   15.80    8.40
  -1   8  -5    1.80    7.90
   1   8   5   17.60    6.70
   1   8   5   20.40    5.70
   2  -8   5   93.49   14.80
  -2  -8  -5   84.29   10.80
  -2  -8  -5   88.49   11.00
  -2  -8  -5   99.99   12.70
   2  -8   5  101.09   14.30
   2  -8   5   67.09   12.40
   2  -8   5   92.49   12.40
  -2  -8  -5  108.79   13.70
  -2   8  -5   68.39   12.30
  -2   8  -5  123.09   14.20
   2   8   5   84.79    8.10
   2   8   5   80.59   10.20
  -2   8  -5  108.59   13.60
  -2   8  -5   97.39   13.50
  -3  -8  -5   -1.30    7.60
  -3  -8  -5   -4.30   10.00
   3  -8   5   12.40   15.60
   3  -8   5    0.80   15.50
   3  -8   5   23.00   15.80
   3  -8   5   19.90   14.90
  -3  -8  -5    6.70    9.40
  -3   8  -5   26.30   15.00
  -3   8  -5   -3.90   14.50
  -3   8  -5    2.50   14.60
  -3   8  -5    2.70   14.60
   3  -9  -5   19.30   14.80
   3  -9  -5    4.70   15.70
   3  -9  -5    4.50   13.50
  -3  -9   5   31.10    7.90
  -3  -9   5   19.10    7.60
   3  -9  -5   14.70   13.80
  -3   9   5    6.10   16.10
  -3   9   5  -12.40   14.70
  -3   9   5   33.80   15.30
  -3   9   5   26.50   14.40
   2  -9  -5  103.79   14.30
   2  -9  -5   86.89   12.40
  -2  -9   5   96.69    8.50
   2  -9  -5   46.70   14.10
   2  -9  -5   87.89   14.30
  -2  -9   5   94.99   10.60
  -2   9   5  122.99   14.60
  -2   9   5  101.69   13.80
  -2   9   5   99.09   14.20
  -2   9   5   62.69   11.40
  -1  -9   5  111.99   10.50
   1  -9  -5   87.59   10.90
   1  -9  -5  121.49   14.40
   1  -9  -5  118.59   14.20
  -1  -9   5  112.99    9.80
  -1  -9   5   93.19   11.90
  -1  -9   5  111.69   11.20
   1  -9  -5  106.59   11.80
   1   9  -5   97.99    9.60
  -1   9   5  118.29   15.30
  -1   9   5  104.09   11.60
  -1   9   5  138.79   12.70
   1   9  -5  109.99   10.40
  -1   9   5  111.49   13.90
   0  -9  -5   27.40    7.80
   0  -9   5   36.30    7.20
   0  -9  -5   25.50    7.70
   0  -9   5   28.30    7.40
   0  -9  -5   20.30    7.30
   0  -9   5   30.40    8.40
   0  -9   5   23.00    8.20
   0  -9  -5   22.50    8.00
   0   9  -5   19.80    7.10
   0   9   5   28.00    6.50
   0   9  -5   13.90    6.60
   0   9   5   28.10    7.50
   0   9  -5   29.80    5.00
   0   9  -5   21.80    5.50
   0   9   5   23.30    6.50
   1  -9   5  213.78   17.50
  -1  -9  -5  200.88   14.60
  -1  -9  -5  203.08   15.50
   1  -9   5  228.58   18.40
   1  -9   5  222.18   17.70
  -1  -9  -5  208.08   14.30
  -1  -9  -5  191.78   14.10
   1  -9   5  202.48   18.60
   1   9   5  204.78   14.80
  -1   9  -5  225.88   17.60
  -1   9  -5  217.18   17.60
   1   9   5  216.58   13.20
  -1   9  -5  234.88   16.30
  -1   9  -5  245.58   18.40
   2  -9   5   12.20   11.00
  -2  -9  -5    8.30    7.90
  -2  -9  -5    8.50    6.40
   2  -9   5   -4.10   12.20
  -2  -9  -5    5.80    8.80
   2  -9   5   14.70   11.90
   2  -9   5   -7.60   12.30
  -2   9  -5   -6.10   10.70
  -2   9  -5    4.40   10.30
  -2   9  -5   32.50   12.60
  -2   9  -5   -1.70   11.70
  -3  -9  -5  226.08   19.80
  -3  -9  -5  198.08   20.20
   3  -9   5  191.08   22.80
   3  -9   5  189.48   22.20
   3  -9   5  227.08   23.90
   3  -9   5  241.28   29.60
  -3   9  -5  264.07   29.20
  -3   9  -5  242.88   27.40
  -3   9  -5  250.67   23.70
  -3   9  -5  226.28   28.70
   3 -10  -5  417.16   33.20
   3 -10  -5  471.15   34.30
   3 -10  -5  405.26   32.90
   3 -10  -5  348.67   32.70
  -3  10   5  407.96   32.70
  -3  10   5  484.25   34.90
  -3  10   5  438.56   35.30
  -3  10   5  389.26   33.30
   2 -10  -5  261.37   22.30
   2 -10  -5  242.18   25.90
  -2 -10   5  276.87   15.20
  -2 -10   5  242.08   16.00
   2 -10  -5  243.98   22.60
   2 -10  -5  266.27   24.70
  -2  10   5  289.87   25.40
  -2  10   5  275.37   24.60
  -2  10   5  285.27   22.00
  -2  10   5  234.18   23.90
   1 -10  -5 1342.67   53.19
  -1 -10   5 1177.08   49.40
  -1 -10   5 1180.58   49.80
   1 -10  -5 1282.37   52.79
   1 -10  -5 1325.27   53.59
  -1 -10   5 1209.98   50.19
  -1 -10   5 1158.88   50.69
   1 -10  -5 1301.07   53.59
  -1  10   5 1306.47   53.29
   1  10  -5 1120.69   49.10
  -1  10   5 1334.57   53.39
  -1  10   5 1373.26   52.99
   1  10  -5 1185.88   49.70
   0 -10   5  181.48   15.90
   0 -10  -5  168.78   15.50
   0 -10   5  198.28   15.30
   0 -10  -5  162.08   15.40
   0 -10  -5  187.68   16.10
   0 -10   5  194.08   14.80
   0 -10  -5  171.38   15.20
   0 -10   5  162.68   16.10
   0  10   5  151.78   12.90
   0  10  -5  193.98   15.20
   0  10   5  147.49   15.00
   0  10   5  177.78   12.70
   0  10  -5  170.68   14.40
   0  10  -5  187.78   10.00
  -1 -10  -5  307.47   18.70
  -1 -10  -5  294.97   18.10
  -1 -10  -5  290.27   19.50
   1 -10   5  402.46   22.40
   1 -10   5  353.96   23.20
   1 -10   5  322.07   21.80
  -1 -10  -5  324.27   18.80
   1 -10   5  353.16   22.80
  -1  10  -5  352.36   21.50
  -1  10  -5  370.76   20.40
   1  10   5  313.57   17.30
  -1  10  -5  351.66   22.60
   1  10   5  320.27   19.00
  -1  10  -5  347.87   22.00
  -2 -10  -5  406.96   22.80
  -2 -10  -5  426.56   24.50
   2 -10   5  417.96   30.30
   2 -10   5  449.46   30.00
   2 -10   5  469.55   29.00
   2 -10   5  474.35   29.70
  -2  10  -5  467.15   30.10
  -2  10  -5  430.46   28.20
  -2  10  -5  488.55   29.60
  -2  10  -5  477.45   28.70
   3 -10   5   17.70   18.60
   3 -10   5  -33.50   17.80
  -3 -10  -5   -4.70   11.50
   3 -10   5  -16.90   17.40
  -3 -10  -5   11.80   11.70
   3 -10   5  -16.90   15.70
  -3  10  -5    2.10   16.40
  -3  10  -5    8.50   17.80
  -3  10  -5    7.50   16.60
  -3  10  -5   45.30   17.20
   3 -11  -5   15.20   16.60
   3 -11  -5   26.60   17.70
   3 -11  -5   50.49   19.80
  -3  11   5   13.60   18.50
  -3  11   5   24.90   19.20
  -3  11   5   20.20   16.20
  -3  11   5   28.00   17.60
   2 -11  -5  367.26   28.30
  -2 -11   5  298.17   19.30
   2 -11  -5  322.27   28.50
   2 -11  -5  307.57   25.40
   2 -11  -5  313.17   26.30
  -2 -11   5  312.77   17.80
  -2  11   5  356.46   26.60
  -2  11   5  325.57   28.20
  -2  11   5  347.37   27.80
   1 -11  -5  209.88   19.70
   1 -11  -5  201.88   19.00
  -1 -11   5  198.98   13.60
   1 -11  -5  240.18   21.40
   1 -11  -5  236.58   21.50
  -1 -11   5  194.58   14.80
  -1 -11   5  207.68   16.50
  -1 -11   5  205.68   15.10
  -1  11   5  218.88   19.70
  -1  11   5  232.38   20.20
   1  11  -5  191.08   13.10
   1  11  -5  208.18   14.10
  -1  11   5  240.48   19.70
   0 -11  -5  248.88   18.40
   0 -11   5  257.17   17.80
   0 -11  -5  240.68   19.00
   0 -11   5  220.58   18.90
   0 -11   5  241.48   17.60
   0 -11   5  238.68   18.60
   0 -11  -5  213.48   18.00
   0 -11  -5  222.88   18.10
   0  11  -5  221.68   19.30
   0  11  -5  234.88   16.70
   0  11   5  221.38   14.10
   0  11   5  244.98   14.10
   1 -11   5  380.46   24.40
  -1 -11  -5  309.27   18.70
  -1 -11  -5  283.37   19.90
  -1 -11  -5  323.47   19.40
   1 -11   5  359.76   23.50
  -1 -11  -5  310.97   20.80
   1 -11   5  358.96   24.60
   1 -11   5  337.87   22.50
  -1  11  -5  368.46   23.20
   1  11   5  344.77   19.80
   1  11   5  290.67   18.10
  -1  11  -5  371.36   20.90
  -1  11  -5  315.07   23.30
  -1  11  -5  370.86   22.90
  -2 -11  -5   -1.20    8.90
   2 -11   5    2.30   13.90
   2 -11   5  -12.00   13.70
   2 -11   5  -12.20   13.40
   2 -11   5   -9.00   13.30
  -2  11  -5    4.90   13.20
  -2  11  -5   14.00   13.60
  -2  11  -5   24.80   13.20
  -2  11  -5    2.00   13.30
   2 -12  -5   68.89   14.80
  -2 -12   5   80.09   10.50
   2 -12  -5   93.39   17.30
   2 -12  -5   93.39   17.60
  -2 -12   5   87.69   10.00
   2 -12  -5  109.29   19.80
  -2  12   5  129.59   18.70
  -2  12   5  119.89   18.40
  -2  12   5   81.59   17.30
  -1 -12   5  516.15   28.20
  -1 -12   5  527.55   26.80
  -1 -12   5  549.35   25.70
   1 -12  -5  583.04   31.70
  -1 -12   5  552.74   27.20
   1 -12  -5  669.43   33.40
   1 -12  -5  677.63   33.20
   1 -12  -5  569.04   30.90
  -1  12   5  599.14   32.00
   1  12  -5  534.25   25.90
  -1  12   5  629.74   30.60
  -1  12   5  577.44   31.50
   0 -12   5  361.56   24.20
   0 -12   5  395.56   21.90
   0 -12  -5  379.86   23.40
   0 -12  -5  385.56   23.20
   0 -12   5  378.06   22.80
   0 -12   5  387.96   23.40
   0 -12  -5  373.76   23.50
   0 -12  -5  349.57   24.10
   0  12   5  366.96   22.40
   0  12  -5  338.97   21.60
  -1 -12  -5   -4.70    8.00
  -1 -12  -5    4.40    9.70
   1 -12   5   -2.00   10.30
   1 -12   5   12.90   12.50
  -1 -12  -5   13.10    8.90
   1 -12   5  -10.00   10.70
   1 -12   5   22.10   13.50
  -1 -12  -5    8.90    9.40
  -1  12  -5    4.40    9.90
  -1  12  -5   14.60   11.00
  -1  12  -5    5.00    8.70
   1  12   5    7.50    6.40
  -1  12  -5    9.50   11.70
   2 -12   5  442.66   32.60
  -2 -12  -5  387.96   24.80
   2 -12   5  421.66   32.50
  -2 -12  -5  387.76   24.10
   2 -12   5  435.96   31.30
   2 -12   5  437.26   32.20
  -2  12  -5  435.56   31.30
  -2  12  -5  428.46   31.80
  -2  12  -5  404.06   30.90
   2 -13  -5  171.48   19.50
   2 -13  -5  162.48   20.20
   2 -13  -5  185.08   22.40
   2 -13  -5  204.38   22.80
  -2 -13   5  149.99   16.70
  -2 -13   5  190.28   17.80
  -2  13   5  191.88   21.40
  -2  13   5  178.88   21.70
  -2  13   5  201.38   21.10
  -2  13   5  208.98   24.50
  -1 -13   5   97.99   12.60
  -1 -13   5  101.59   11.60
  -1 -13   5  101.99   12.90
   1 -13  -5   75.29   14.40
  -1 -13   5  113.29   11.30
   1 -13  -5  106.69   16.40
   1 -13  -5  114.09   15.70
   1 -13  -5  106.49   17.50
  -1  13   5   85.99   14.00
  -1  13   5  109.69   15.40
  -1  13   5  102.79   14.00
  -1  13   5  129.39   13.80
   0 -13  -5  161.88   21.30
   0 -13   5  167.28   21.70
   0 -13   5  201.08   20.20
   0 -13  -5  202.28   20.50
   0 -13   5  206.68   20.10
   0 -13  -5  206.18   21.30
   0 -13  -5  183.28   19.50
   0 -13   5  229.88   18.70
   0  13  -5  207.48   18.60
   0  13   5  170.28   19.50
   1 -13   5  106.79   15.00
  -1 -13  -5  135.69   14.30
  -1 -13  -5  112.89   12.30
   1 -13   5  129.89   15.70
  -1 -13  -5  124.49   12.50
   1 -13   5  113.69   17.60
  -1 -13  -5  111.49   13.80
   1 -13   5  127.39   18.20
  -1  13  -5  135.69   15.50
  -1  13  -5  133.79   14.00
   1  13   5   93.89   12.40
   2 -13   5   -9.00   17.10
   2 -13   5   -9.60   16.80
   2 -13   5  -16.60   16.20
  -2 -13  -5   13.40   12.10
  -2 -13  -5   13.00   11.40
   2 -13   5   -2.10   17.20
  -2  13  -5  -39.90   15.30
  -2  13  -5   18.30   18.50
  -2  13  -5   -1.00   16.80
  -2  13  -5    0.10   15.30
   1 -14  -5   64.69   14.30
   1 -14  -5   49.80   15.50
  -1 -14   5   75.69   11.60
  -1 -14   5   58.89   10.60
  -1 -14   5   68.09   13.10
   1 -14  -5   50.09   15.50
  -1 -14   5   52.09    9.10
   1 -14  -5   66.19   16.60
  -1  14   5   42.10   15.60
  -1  14   5   57.39   13.50
   0 -14  -5   57.09   14.60
   0 -14   5   61.29   13.30
   0 -14  -5   96.39   13.90
   0 -14  -5   68.49   15.40
   0 -14   5   72.39   14.60
   0 -14  -5   90.49   14.90
   0 -14   5   55.49   14.20
   0 -14   5   91.69   13.30
   0  14  -5   79.79   12.90
   0  14   5   59.09   13.60
   1 -14   5   37.40   13.80
  -1 -14  -5   21.00   13.00
   1 -14   5   45.00   15.40
  -1 -14  -5   41.60   10.90
   1 -14   5   52.99   16.30
   1 -14   5   30.70   15.50
  -1 -14  -5   15.90   12.50
  -1 -14  -5   20.50   10.80
  -1  14  -5   24.00   14.20
  -1  14  -5   55.09   11.70
  -1  14  -5   20.50   11.70
   1  14   5   47.00   11.10
  -1  14  -5    4.50    8.50
   0 -15  -5    1.40   15.20
   0 -15  -5   39.30   14.00
   0 -15   5   43.90   14.50
   0 -15  -5   35.00   15.00
   0 -15   5   21.70   12.20
   0 -15  -5   29.40   14.60
   0 -15   5   21.80   13.50
   0 -15   5   37.90   15.70
   0  15  -5   30.10   12.60
   0  15   5    2.10    9.90
   0  15   5   21.00   15.40
   0  15  -5   13.80   10.50
  -4   0   6  827.22   41.10
   4   0  -6  773.12   35.70
   4   0  -6  757.62   39.90
  -4   0   6  825.22   40.00
  -4   0   6  795.52   40.60
  -4   0   6  811.52   40.60
   3   0  -6   56.39   10.30
  -3   0   6   62.39   11.10
  -3   0   6   60.69   10.80
   3   0  -6   66.79   10.20
   3   0  -6   57.59    8.80
  -3   0   6   59.99   11.00
  -3   0   6   53.39   10.50
   3   0  -6   79.39   11.40
   2   0  -6 1344.87   54.89
  -2   0   6 1425.56   55.09
   2   0  -6 1437.66   54.79
  -2   0   6 1328.77   54.69
  -2   0   6 1333.87   54.89
   2   0  -6 1334.77   54.79
   2   0  -6 1352.16   54.09
  -2   0   6 1348.77   54.89
  -1   0   6   37.50    6.40
  -1   0   6   34.70    5.70
   1   0  -6   31.10    5.50
  -1   0   6   33.50    6.40
   1   0  -6   38.10    6.50
   1   0  -6   48.80    6.10
   1   0  -6   35.00    6.10
  -1   0   6   34.50    5.50
   0   0   6 6041.00  225.08
   0   0  -6 6029.20  225.48
   0   0  -6 5999.60  225.38
   0   0  -6 6181.08  225.68
   0   0   6 6005.30  225.48
   0   0   6 5761.02  225.28
   0   0  -6 5833.72  224.98
   0   0   6 5741.43  225.38
   1   0   6  951.90   40.10
   1   0   6 1034.60   40.90
  -1   0  -6  966.80   40.50
   1   0   6  998.60   40.60
  -1   0  -6 1000.90   40.60
   1   0   6  920.51   40.40
  -1   0  -6  993.90   40.80
  -1   0  -6  947.31   40.10
   2   0   6  377.86   21.20
   2   0   6  393.36   21.20
   2   0   6  396.16   21.40
  -2   0  -6  368.46   20.60
  -2   0  -6  410.86   21.60
  -2   0  -6  379.76   20.80
  -2   0  -6  398.26   21.10
   2   0   6  390.96   20.40
  -3   0  -6  377.46   24.20
   3   0   6  374.36   24.10
   3   0   6  410.46   24.50
  -3   0  -6  408.66   24.20
   3   0   6  393.46   22.30
   3   0   6  370.86   23.40
  -3   0  -6  410.36   24.40
  -3   0  -6  356.36   24.50
  -4   0  -6   37.40   15.90
  -4   0  -6   38.60   14.80
   4   0   6   46.70   16.60
   4   0   6   52.49   13.90
  -4   0  -6   53.59   15.00
   4   0   6    4.80   11.20
  -4   0  -6   37.40   15.20
   4  -1  -6  106.29   14.20
  -4  -1   6   81.19   15.90
   4  -1  -6   91.29   12.60
  -4  -1   6  101.79   14.90
   4  -1  -6  113.39   16.20
  -4  -1   6   89.29   15.80
  -4  -1   6  103.69   15.90
  -4   1   6  117.69   17.00
  -4   1   6  111.19   16.70
   4   1  -6   80.49   14.80
  -4   1   6  105.39   16.20
  -4   1   6   99.79   16.70
   3  -1  -6  944.11   40.90
  -3  -1   6  921.41   40.40
   3  -1  -6  914.61   39.40
  -3  -1   6  925.61   40.30
   3  -1  -6  911.41   40.90
  -3  -1   6  941.71   40.40
  -3  -1   6  923.61   40.20
   3  -1  -6  907.71   40.40
  -3   1   6  917.61   41.30
   3   1  -6  839.92   39.90
   3   1  -6  945.01   38.90
  -3   1   6  905.71   41.20
   3   1  -6  883.21   37.50
  -3   1   6  870.81   40.80
  -3   1   6  944.91   41.50
   2  -1  -6   17.30    7.10
   2  -1  -6   16.80    7.30
  -2  -1   6   23.70    6.80
   2  -1  -6   27.20    6.70
   2  -1  -6   20.70    6.30
  -2  -1   6   20.00    6.70
  -2  -1   6   16.10    6.40
  -2  -1   6   19.70    6.30
  -2   1   6   22.40    6.50
  -2   1   6   18.60    7.00
   2   1  -6   19.10    5.70
   2   1  -6   17.90    6.40
   2   1  -6   13.90    6.80
   2   1  -6   27.20    6.40
  -2   1   6   19.40    6.90
  -2   1   6   25.60    7.20
   1  -1  -6 4440.56  167.68
   1  -1  -6 4293.57  167.48
   1  -1  -6 4392.86  167.68
  -1  -1   6 4524.05  167.78
  -1  -1   6 4379.76  167.58
   1  -1  -6 4366.66  167.78
  -1  -1   6 4379.36  167.48
   1   1  -6 4227.78  166.88
  -1   1   6 4618.44  167.78
  -1   1   6 4443.76  167.68
   1   1  -6 4545.15  167.88
  -1   1   6 4509.55  167.88
   1   1  -6 4365.16  167.48
  -1   1   6 4343.37  167.48
   1   1  -6 4301.47  167.48
   0  -1   6    6.40    4.60
   0  -1   6    8.30    5.60
   0  -1   6   13.20    5.00
   0  -1  -6    3.20    4.90
   0  -1  -6    8.30    4.10
   0  -1  -6    8.40    5.40
   0  -1   6   12.20    4.50
   0  -1  -6   10.60    5.20
   0   1  -6    1.20    5.30
   0   1   6    2.70    5.30
   0   1   6    6.00    4.80
   0   1  -6    6.70    4.60
   0   1   6   11.70    5.20
   0   1  -6   10.20    4.90
   0   1  -6   13.10    5.20
   0   1   6    6.70    4.90
   1  -1   6 1146.29   46.50
   1  -1   6 1174.48   46.80
  -1  -1  -6 1047.10   46.00
   1  -1   6 1125.99   46.80
  -1  -1  -6 1177.28   46.90
  -1  -1  -6 1175.18   46.70
   1  -1   6 1114.79   46.70
  -1  -1  -6 1177.28   47.00
   1   1   6 1117.79   46.50
   1   1   6 1185.48   47.00
  -1   1  -6 1180.08   47.00
  -1   1  -6 1100.39   46.50
  -1   1  -6 1105.09   46.40
   1   1   6 1144.69   46.80
   1   1   6 1169.48   46.10
  -1   1  -6 1162.28   46.80
  -2  -1  -6  657.03   29.70
   2  -1   6  628.94   30.10
  -2  -1  -6  637.34   29.30
   2  -1   6  638.44   29.90
  -2  -1  -6  642.44   29.50
  -2  -1  -6  669.63   30.20
   2  -1   6  646.14   30.20
   2  -1   6  667.53   29.80
   2   1   6  634.94   29.90
   2   1   6  648.74   29.80
  -2   1  -6  639.74   30.30
  -2   1  -6  627.34   29.70
   2   1   6  652.43   28.70
   2   1   6  678.83   30.00
  -2   1  -6  663.63   30.10
  -2   1  -6  641.84   29.70
   3  -1   6  175.48   17.60
  -3  -1  -6  177.48   18.10
  -3  -1  -6  191.68   18.80
   3  -1   6  176.78   19.30
   3  -1   6  181.38   18.40
  -3  -1  -6  168.68   17.60
   3  -1   6  169.58   19.10
  -3  -1  -6  175.58   18.10
   3   1   6  145.49   15.50
  -3   1  -6  190.88   19.40
  -3   1  -6  180.58   19.30
  -3   1  -6  180.48   19.20
   3   1   6  168.48   18.00
   3   1   6  158.78   17.40
  -3   1  -6  163.48   19.40
   4  -1   6  283.87   30.30
   4  -1   6  341.47   26.80
  -4  -1  -6  327.77   27.50
  -4  -1  -6  346.07   28.70
  -4  -1  -6  352.76   28.70
  -4  -1  -6  333.67   27.40
   4  -1   6  349.07   25.70
   4   1   6  318.37   28.60
  -4   1  -6  350.56   30.20
  -4   1  -6  313.87   31.20
  -4   1  -6  324.37   29.10
   4   1   6  381.66   23.90
  -4   1  -6  344.67   30.20
  -4  -2   6  188.48   18.90
   4  -2  -6  166.58   16.60
   4  -2  -6  142.79   18.10
  -4  -2   6  178.78   22.00
   4  -2  -6  233.28   23.10
   4  -2  -6  176.18   20.20
  -4  -2   6  177.28   22.80
  -4  -2   6  191.58   18.40
  -4   2   6  209.98   24.20
  -4   2   6  179.48   19.80
   4   2  -6  167.08   17.40
  -4   2   6  208.78   20.70
  -4   2   6  190.38   20.40
  -3  -2   6   69.19   10.40
  -3  -2   6   59.89   10.30
   3  -2  -6   74.69   12.20
   3  -2  -6   69.69   11.50
   3  -2  -6   75.39   11.30
   3  -2  -6   63.79   10.80
  -3  -2   6   54.09    9.90
  -3  -2   6   55.19   10.40
   3   2  -6   60.59    9.20
  -3   2   6   62.99   11.60
  -3   2   6   72.29   11.90
   3   2  -6   64.49    6.60
   3   2  -6   65.59    8.10
  -3   2   6   78.59   12.40
  -3   2   6   79.09   12.10
   2  -2  -6  287.67   17.50
   2  -2  -6  279.27   16.80
  -2  -2   6  282.87   15.80
  -2  -2   6  273.87   15.70
  -2  -2   6  292.47   16.10
   2  -2  -6  265.97   17.00
   2  -2  -6  297.77   17.40
  -2  -2   6  275.47   15.70
   2   2  -6  264.57   15.30
   2   2  -6  284.97   15.80
   2   2  -6  262.57   13.70
  -2   2   6  279.67   17.40
  -2   2   6  272.27   17.10
  -2   2   6  264.77   17.10
  -2   2   6  301.37   17.60
   1  -2  -6  471.85   20.90
  -1  -2   6  436.86   20.50
   1  -2  -6  439.36   20.90
  -1  -2   6  444.86   20.20
   1  -2  -6  470.35   20.80
  -1  -2   6  429.36   20.50
   1  -2  -6  446.96   20.80
  -1   2   6  438.66   21.00
  -1   2   6  430.36   20.70
   1   2  -6  449.26   20.50
   1   2  -6  419.96   19.30
   1   2  -6  469.65   20.40
  -1   2   6  418.76   20.80
  -1   2   6  444.56   20.70
   1   2  -6  426.06   20.60
   0  -2  -6  420.76   19.60
   0  -2  -6  427.36   19.30
   0  -2   6  413.56   19.70
   0  -2   6  415.06   19.60
   0  -2  -6  395.46   19.00
   0  -2   6  390.76   19.20
   0  -2   6  397.66   19.50
   0  -2  -6  412.36   19.50
   0   2   6  403.76   19.20
   0   2  -6  388.36   19.00
   0   2   6  421.56   19.80
   0   2  -6  401.66   19.50
   0   2   6  422.56   19.40
   0   2   6  424.86   19.40
   0   2  -6  402.96   19.70
   0   2  -6  414.86   19.70
   1  -2   6  397.76   19.90
  -1  -2  -6  412.76   20.30
  -1  -2  -6  419.76   19.90
  -1  -2  -6  389.26   20.20
   1  -2   6  410.36   20.40
   1  -2   6  414.86   20.40
  -1  -2  -6  414.86   19.60
  -1   2  -6  401.76   20.20
  -1   2  -6  405.86   20.20
  -1   2  -6  384.56   20.20
   1   2   6  397.46   19.20
   1   2   6  417.36   20.00
   1   2   6  395.76   19.90
  -1   2  -6  411.06   20.50
   1   2   6  415.66   20.40
   2  -2   6   22.70    8.20
  -2  -2  -6   25.20    7.30
   2  -2   6   15.40    7.70
   2  -2   6   17.60    7.60
  -2  -2  -6   19.60    7.20
  -2  -2  -6   14.40    7.40
   2  -2   6   13.30    8.30
  -2  -2  -6   16.40    7.50
   2   2   6   21.50    8.10
   2   2   6   22.70    6.40
   2   2   6   23.50    7.90
  -2   2  -6   22.70    7.70
   2   2   6   22.30    7.50
  -2   2  -6   28.80    8.10
  -2   2  -6   28.10    8.30
  -3  -2  -6  840.22   38.20
   3  -2   6  853.21   38.40
   3  -2   6  852.41   39.10
   3  -2   6  861.71   39.80
  -3  -2  -6  816.62   38.20
   3  -2   6  817.12   39.60
  -3  -2  -6  753.32   38.20
  -3  -2  -6  817.42   37.80
  -3   2  -6  864.91   39.90
   3   2   6  863.21   36.60
  -3   2  -6  854.91   39.60
  -3   2  -6  835.02   39.70
   3   2   6  718.93   37.70
  -3   2  -6  862.21   39.40
   3   2   6  829.72   35.10
  -4  -2  -6   49.50   14.50
   4  -2   6   74.49   15.90
   4  -2   6   35.80   13.70
   4  -2   6   57.59   17.00
  -4  -2  -6   49.20   14.30
  -4  -2  -6   86.39   16.20
   4  -2   6   58.59   17.60
  -4  -2  -6   47.40   15.60
  -4   2  -6   50.09   16.60
  -4   2  -6   47.60   15.90
   4   2   6   62.89    9.80
   4   2   6   57.69   15.80
  -4   2  -6   56.19   18.30
  -4   2  -6   59.49   17.00
   4  -3  -6   55.89   15.70
  -4  -3   6   70.09   14.70
  -4  -3   6   45.30   13.90
   4  -3  -6   47.80   14.00
  -4  -3   6   38.40   13.20
   4  -3  -6   56.39   15.60
  -4  -3   6   58.49   12.80
   4  -3  -6   32.20   14.60
   4   3  -6   29.30   12.50
  -4   3   6   55.19   16.10
  -4   3   6   33.20   15.70
  -4   3   6   25.30   15.60
  -4   3   6   28.80   16.30
  -3  -3   6  347.97   20.80
   3  -3  -6  334.77   23.20
   3  -3  -6  322.77   23.10
   3  -3  -6  338.67   22.50
  -3  -3   6  338.17   20.10
   3  -3  -6  313.37   22.00
  -3  -3   6  365.46   20.80
  -3  -3   6  369.26   20.80
   3   3  -6  350.66   19.30
  -3   3   6  321.77   23.60
  -3   3   6  345.07   23.60
   3   3  -6  337.47   20.20
  -3   3   6  358.96   24.10
  -3   3   6  325.27   22.90
   2  -3  -6   54.59    9.00
  -2  -3   6   46.60    7.00
  -2  -3   6   52.69    7.50
   2  -3  -6   45.70    9.00
  -2  -3   6   55.59    7.90
   2  -3  -6   56.39    8.80
   2  -3  -6   54.69    9.40
  -2  -3   6   50.79    7.30
   2   3  -6   51.79    6.90
   2   3  -6   59.79    5.90
  -2   3   6   47.30    9.00
  -2   3   6   55.39    8.50
  -2   3   6   57.29    9.40
  -2   3   6   49.60    8.80
   2   3  -6   54.49    7.50
   2   3  -6   49.10    5.20
   1  -3  -6  233.58   14.30
   1  -3  -6  236.58   14.30
  -1  -3   6  244.18   14.00
   1  -3  -6  231.28   14.70
   1  -3  -6  245.58   14.60
  -1  -3   6  245.58   13.40
  -1  -3   6  232.28   13.00
  -1  -3   6  243.28   14.00
  -1   3   6  230.28   14.30
  -1   3   6  251.07   14.60
   1   3  -6  249.88   14.30
  -1   3   6  239.48   14.90
   1   3  -6  234.38   12.00
  -1   3   6  232.88   14.30
   1   3  -6  256.37   12.80
   0  -3  -6  118.89    9.80
   0  -3   6  130.59   11.10
   0  -3  -6  132.29   10.70
   0  -3   6  129.29   10.60
   0  -3   6  136.09   10.40
   0  -3   6  125.49   10.50
   0  -3  -6  131.29   10.10
   0   3   6  120.09   10.60
   0   3  -6  123.59   10.40
   0   3  -6  127.09   10.90
   0   3   6  113.69   10.50
   0   3  -6  120.49   11.00
   0   3  -6  149.19   10.40
   0   3   6  126.59   10.30
   0   3   6  123.49   10.20
   1  -3   6  133.49   12.60
   1  -3   6  144.99   11.70
  -1  -3  -6  126.49   11.50
  -1  -3  -6  128.79   10.90
  -1  -3  -6  135.49   11.90
   1  -3   6  130.19   11.80
   1  -3   6  131.79   12.20
  -1  -3  -6  114.79   11.40
   1   3   6  135.99   11.30
   1   3   6  141.19   10.40
  -1   3  -6  132.79   12.30
   1   3   6  123.99   11.30
  -1   3  -6  136.89   11.90
  -1   3  -6  142.59   12.30
  -1   3  -6  121.29   11.80
   1   3   6  132.49   12.10
   2  -3   6   61.39    9.70
  -2  -3  -6   68.19    9.60
   2  -3   6   58.19    9.30
   2  -3   6   50.79    9.70
  -2  -3  -6   59.59    8.60
  -2  -3  -6   57.69    9.10
  -2  -3  -6   51.19    8.30
   2  -3   6   48.10    9.20
   2   3   6   41.20    8.00
  -2   3  -6   61.79    9.80
  -2   3  -6   64.09    9.80
   2   3   6   65.29    8.20
  -2   3  -6   55.69    9.60
   2   3   6   49.99    6.60
  -3  -3  -6   34.20   10.40
   3  -3   6   22.80   11.80
   3  -3   6   14.90   11.60
   3  -3   6   26.50   11.60
  -3  -3  -6   30.40   10.30
  -3  -3  -6   22.80   10.80
   3  -3   6   16.40   11.90
  -3  -3  -6   29.00    9.90
  -3   3  -6   26.30   11.20
   3   3   6   21.60    7.50
  -3   3  -6   18.40   11.00
  -3   3  -6   12.30   11.60
  -3   3  -6   30.40   11.90
   3   3   6   26.40    9.00
   3   3   6   21.40    6.20
   4  -3   6  -26.90   16.00
   4  -3   6   22.20   15.50
  -4  -3  -6    2.80   13.60
  -4  -3  -6   -7.60   14.50
  -4  -3  -6   19.00   13.80
   4  -3   6    2.80   17.10
  -4  -3  -6   17.90   13.20
  -4   3  -6   20.90   16.50
   4   3   6    4.70   13.50
  -4   3  -6    3.60   16.90
  -4   3  -6   10.90   16.20
   4   3   6    3.10    9.50
  -4   3  -6    0.80   17.80
  -4  -4   6    4.90   12.60
  -4  -4   6   17.40   11.90
   4  -4  -6    3.70   14.40
  -4  -4   6    7.30   13.70
   4  -4  -6   -3.50   13.50
   4  -4  -6   38.40   15.10
  -4  -4   6  -10.60   11.00
  -4   4   6    1.60   15.70
   4   4  -6   -4.90    8.80
  -4   4   6   19.30   17.50
   4   4  -6  -13.40   11.20
  -4   4   6  -12.70   16.70
  -4   4   6   32.90   16.00
  -3  -4   6  172.68   15.40
   3  -4  -6  118.79   13.60
   3  -4  -6  144.09   14.90
  -3  -4   6  156.38   15.00
   3  -4  -6  132.39   14.40
  -3  -4   6  149.39   14.40
  -3  -4   6  145.09   15.50
   3  -4  -6  169.08   16.70
  -3   4   6  150.28   19.50
  -3   4   6  172.08   20.20
   3   4  -6  163.48   15.00
  -3   4   6  119.09   15.40
  -3   4   6  159.38   20.20
   2  -4  -6   15.90    8.70
  -2  -4   6   26.10    6.30
  -2  -4   6   16.00    6.50
  -2  -4   6   28.60    7.10
   2  -4  -6   28.10    8.40
  -2  -4   6   34.30    6.20
   2  -4  -6   22.30    7.90
   2  -4  -6   22.80    7.50
  -2   4   6   34.70    9.30
  -2   4   6   18.00    7.90
  -2   4   6   12.50    8.40
   2   4  -6   26.50    5.80
   2   4  -6   26.20    7.10
  -2   4   6   15.10    8.30
   1  -4  -6   12.00    5.40
  -1  -4   6   23.00    5.70
  -1  -4   6   14.40    6.30
   1  -4  -6   20.30    6.00
   1  -4  -6   12.60    6.10
  -1  -4   6   17.30    6.00
  -1  -4   6   24.50    5.40
   1  -4  -6   19.20    6.40
   1   4  -6   24.40    6.50
   1   4  -6   28.90    4.10
   1   4  -6   24.30    3.90
  -1   4   6   22.40    6.70
  -1   4   6   21.10    6.60
  -1   4   6   32.30    6.70
  -1   4   6   21.80    6.00
   1   4  -6   35.80    5.80
   0  -4  -6    0.00    4.80
   0  -4  -6    4.60    5.40
   0  -4  -6    5.90    5.40
   0  -4   6   -0.70    5.20
   0  -4   6   10.90    5.80
   0  -4   6   10.50    5.00
   0  -4  -6    2.20    5.00
   0  -4   6    2.10    5.20
   0   4   6    6.80    5.60
   0   4   6    2.60    5.10
   0   4  -6    5.20    5.70
   0   4  -6    1.90    5.40
   0   4   6    7.40    5.50
   0   4  -6    9.90    4.70
   0   4  -6    5.10    5.00
   0   4   6   17.30    5.50
  -1  -4  -6  289.37   16.20
  -1  -4  -6  292.97   16.90
   1  -4   6  312.57   17.50
   1  -4   6  280.07   17.20
   1  -4   6  289.77   16.90
   1  -4   6  308.07   17.90
  -1  -4  -6  286.87   16.30
  -1  -4  -6  271.67   16.00
  -1   4  -6  310.07   17.10
   1   4   6  299.57   16.20
  -1   4  -6  286.27   17.00
  -1   4  -6  310.77   17.10
   1   4   6  300.17   15.20
   1   4   6  304.57   15.00
  -1   4  -6  309.47   17.70
   1   4   6  278.07   16.70
  -2  -4  -6    2.80    6.90
  -2  -4  -6    6.50    6.80
  -2  -4  -6    6.10    7.30
  -2  -4  -6   -4.90    7.50
   2  -4   6    5.10    8.50
   2  -4   6   -5.60    8.40
   2  -4   6    2.50    8.70
   2  -4   6    0.90    7.80
   2   4   6    1.90    4.30
  -2   4  -6   12.20    8.90
  -2   4  -6   -3.70    8.60
   2   4   6    2.50    6.90
   2   4   6    6.90    7.50
  -2   4  -6    2.60    8.30
   2   4   6   -3.80    5.30
  -2   4  -6   -0.80    7.80
  -3  -4  -6  109.69   12.50
  -3  -4  -6  106.69   13.20
   3  -4   6  104.79   14.60
  -3  -4  -6  102.99   12.10
   3  -4   6   93.39   14.90
   3  -4   6   89.99   13.60
   3  -4   6   83.59   15.40
  -3  -4  -6   90.19   12.60
   3   4   6   96.49   12.00
  -3   4  -6   98.39   15.10
  -3   4  -6  110.49   14.90
  -3   4  -6   96.69   14.50
  -3   4  -6   93.29   14.00
   4  -4   6   33.20   19.30
   4  -4   6   43.90   17.50
  -4  -4  -6   12.00   14.90
  -4  -4  -6   36.80   14.30
   4  -4   6   20.80   17.40
   4  -4   6   12.70   17.30
  -4  -4  -6    9.60   12.90
  -4  -4  -6   39.40   14.10
   4   4   6   18.30   10.30
  -4   4  -6   30.60   18.00
  -4   4  -6   28.10   18.40
  -4   4  -6   47.50   18.20
   4   4   6   16.90   12.90
  -4   4  -6   58.69   18.60
   4  -5  -6   30.30   15.60
  -4  -5   6   38.40   12.90
   4  -5  -6   69.19   18.80
  -4  -5   6   31.10   13.40
  -4  -5   6   63.09   14.40
  -4  -5   6   50.79   11.50
   4  -5  -6   43.20   16.60
   4  -5  -6   51.19   15.90
  -4   5   6    0.80   17.00
  -4   5   6   13.50   16.90
  -4   5   6   38.00   18.20
  -4   5   6   13.50   18.20
   4   5  -6   20.90   11.90
  -3  -5   6  190.38   16.20
   3  -5  -6  168.68   21.60
   3  -5  -6  202.48   21.90
   3  -5  -6  227.98   21.40
  -3  -5   6  205.18   16.80
  -3  -5   6  202.68   16.70
  -3  -5   6  207.78   15.00
   3  -5  -6  245.38   21.40
   3   5  -6  210.68   16.50
  -3   5   6  178.78   21.70
  -3   5   6  201.28   21.30
  -3   5   6  219.78   21.90
  -3   5   6  190.38   21.60
   3   5  -6  193.38   14.40
  -2  -5   6   13.60    7.00
  -2  -5   6   25.20    6.70
   2  -5  -6   22.70    9.10
   2  -5  -6   19.80    8.80
  -2  -5   6   15.50    5.90
  -2  -5   6   13.90    6.00
   2  -5  -6   18.70    8.30
   2  -5  -6    6.60    9.10
  -2   5   6   13.00    8.90
  -2   5   6    8.40    8.00
   2   5  -6   18.60    5.40
  -2   5   6   17.90    8.70
   2   5  -6   13.50    7.30
  -2   5   6   13.70    7.60
   1  -5  -6  442.06   22.80
   1  -5  -6  476.15   22.60
   1  -5  -6  482.85   23.10
  -1  -5   6  463.15   21.00
   1  -5  -6  454.75   22.40
  -1  -5   6  460.85   21.20
  -1  -5   6  486.55   21.30
  -1  -5   6  490.35   22.10
  -1   5   6  449.36   22.60
  -1   5   6  455.05   22.70
   1   5  -6  469.75   21.30
   1   5  -6  445.96   21.80
  -1   5   6  468.15   22.80
  -1   5   6  447.86   22.60
   0  -5  -6   32.10    6.10
   0  -5   6   39.10    7.10
   0  -5  -6   31.40    6.20
   0  -5  -6   33.30    6.60
   0  -5   6   41.00    6.20
   0  -5   6   26.30    6.30
   0  -5   6   39.10    7.00
   0  -5  -6   24.00    5.80
   0   5  -6   45.90    6.50
   0   5  -6   31.50    6.50
   0   5  -6   31.40    6.60
   0   5   6   44.50    6.70
   0   5   6   35.90    6.30
   0   5   6   30.20    6.60
   0   5   6   31.50    6.60
   0   5  -6   38.40    5.60
   1  -5   6    2.10    7.00
   1  -5   6    7.90    6.70
  -1  -5  -6    7.10    6.30
  -1  -5  -6    2.30    5.70
  -1  -5  -6    2.10    5.50
   1  -5   6   16.60    7.60
   1  -5   6    7.50    6.30
  -1  -5  -6    6.60    6.20
  -1   5  -6    7.60    6.40
   1   5   6    7.30    4.90
   1   5   6   10.90    6.00
  -1   5  -6   12.00    6.50
  -1   5  -6    8.80    7.20
   1   5   6    0.80    4.80
  -1   5  -6    1.30    6.30
   2  -5   6  258.87   19.10
  -2  -5  -6  215.68   15.10
  -2  -5  -6  223.48   16.80
   2  -5   6  247.58   19.30
   2  -5   6  217.08   18.70
   2  -5   6  239.98   18.90
  -2  -5  -6  200.58   16.20
  -2  -5  -6  229.48   15.80
  -2   5  -6  236.78   18.70
  -2   5  -6  245.88   19.50
   2   5   6  173.38   14.80
   2   5   6  214.28   16.10
  -2   5  -6  244.98   18.90
  -2   5  -6  251.67   19.00
  -3  -5  -6   28.50   10.10
   3  -5   6   22.20   13.00
   3  -5   6   32.30   14.50
   3  -5   6    5.70   12.60
  -3  -5  -6   29.60   10.00
  -3  -5  -6   36.60   10.90
   3  -5   6   -1.20   11.50
  -3  -5  -6   14.00   10.40
  -3   5  -6    5.90   11.50
  -3   5  -6   14.10   12.30
   3   5   6   25.20   10.40
  -3   5  -6    7.30   13.10
   4  -5   6  132.19   21.60
  -4  -5  -6  119.59   16.20
  -4  -5  -6  120.09   17.80
   4  -5   6  146.89   23.10
  -4  -5  -6   98.69   15.50
  -4  -5  -6   80.99   16.50
   4  -5   6  112.89   23.10
   4  -5   6   98.59   20.50
   4   5   6  110.49   14.60
  -4   5  -6  151.98   21.70
  -4   5  -6   95.59   22.20
  -4   5  -6  143.89   21.90
   4  -6  -6  110.89   20.90
  -4  -6   6  107.09   16.00
   4  -6  -6  137.29   20.90
  -4  -6   6  109.69   15.20
   4  -6  -6   95.19   18.60
  -4  -6   6   87.49   13.30
  -4  -6   6   73.09   11.10
   4  -6  -6   69.79   18.20
  -4   6   6  123.39   21.50
  -4   6   6  109.99   22.00
  -4   6   6  110.29   21.30
   3  -6  -6   25.20   12.80
  -3  -6   6   29.40    8.10
   3  -6  -6   -7.80   11.80
  -3  -6   6   -7.40    8.30
  -3  -6   6    8.70    8.30
   3  -6  -6    0.70   12.30
  -3  -6   6   22.50    7.20
  -3   6   6  -11.70   11.10
  -3   6   6    8.20   13.20
   3   6  -6    2.00    8.50
  -3   6   6   10.80   11.90
   3   6  -6   21.10    7.00
   2  -6  -6 1153.48   48.10
  -2  -6   6 1135.39   43.80
   2  -6  -6 1096.59   47.10
   2  -6  -6 1137.89   48.10
   2  -6  -6 1079.89   47.20
  -2  -6   6 1047.20   43.90
  -2  -6   6 1115.89   44.80
  -2  -6   6 1122.99   44.50
  -2   6   6 1120.59   47.70
   2   6  -6 1108.89   43.50
  -2   6   6 1068.29   47.10
  -2   6   6 1080.89   47.60
   2   6  -6  997.10   44.50
  -2   6   6 1099.19   47.70
   1  -6  -6  170.48   14.10
  -1  -6   6  151.18   11.40
  -1  -6   6  157.78   11.80
   1  -6  -6  165.68   13.60
  -1  -6   6  177.18   12.50
   1  -6  -6  160.58   13.70
  -1  -6   6  166.08   11.80
   1  -6  -6  168.68   14.50
   1   6  -6  155.68   11.40
  -1   6   6  152.88   13.90
  -1   6   6  165.08   14.00
  -1   6   6  154.28   14.30
  -1   6   6  170.28   14.10
   1   6  -6  160.58   12.20
   0  -6   6  759.22   32.00
   0  -6  -6  734.83   32.30
   0  -6  -6  697.53   31.90
   0  -6   6  791.72   33.00
   0  -6   6  785.52   32.60
   0  -6  -6  777.42   32.60
   0  -6  -6  754.42   32.80
   0  -6   6  734.43   32.80
   0   6  -6  760.62   32.60
   0   6  -6  717.33   30.90
   0   6   6  745.23   32.40
   0   6  -6  837.12   32.00
   0   6   6  742.93   31.80
   0   6   6  777.12   32.10
   0   6   6  754.72   32.50
   0   6  -6  717.43   32.20
   1  -6   6  281.37   18.40
  -1  -6  -6  267.87   15.20
   1  -6   6  271.57   17.80
   1  -6   6  262.87   16.90
  -1  -6  -6  271.07   15.90
  -1  -6  -6  248.88   16.00
  -1  -6  -6  274.77   16.40
   1  -6   6  267.97   16.90
   1   6   6  254.07   15.70
   1   6   6  249.38   12.90
   1   6   6  248.48   13.10
  -1   6  -6  298.27   17.90
  -1   6  -6  270.47   16.60
   1   6   6  257.77   15.40
  -1   6  -6  269.47   17.00
  -2  -6  -6  396.36   22.10
  -2  -6  -6  385.06   21.80
   2  -6   6  422.66   25.00
  -2  -6  -6  403.56   20.70
   2  -6   6  416.66   24.70
   2  -6   6  431.36   25.40
  -2  -6  -6  391.86   21.50
   2  -6   6  410.06   24.50
  -2   6  -6  450.85   25.20
  -2   6  -6  427.66   24.60
   2   6   6  357.56   20.90
  -2   6  -6  411.66   24.50
  -2   6  -6  410.96   24.80
   2   6   6  389.16   20.70
   3  -6   6  400.76   29.70
  -3  -6  -6  430.06   24.10
  -3  -6  -6  409.76   23.50
  -3  -6  -6  444.46   24.50
  -3  -6  -6  393.16   25.00
   3  -6   6  384.76   30.30
   3  -6   6  446.96   30.30
  -3   6  -6  419.06   30.40
  -3   6  -6  404.46   29.50
  -3   6  -6  438.96   29.70
   3  -7  -6  880.71   43.70
   3  -7  -6  888.01   44.20
  -3  -7   6  871.41   37.40
   3  -7  -6  820.32   43.00
  -3  -7   6  883.81   37.60
   3  -7  -6  899.51   45.00
  -3   7   6  879.31   44.60
  -3   7   6  824.42   44.10
  -3   7   6  879.61   44.00
   2  -7  -6  112.99   14.00
  -2  -7   6  105.79   12.30
   2  -7  -6  102.29   12.30
   2  -7  -6  137.09   14.70
  -2  -7   6   99.29   10.80
   2  -7  -6  113.29   12.40
  -2  -7   6  120.49   10.10
  -2   7   6  125.69   13.60
  -2   7   6  104.79   13.10
  -2   7   6  118.69   13.50
  -2   7   6  111.49   12.40
   1  -7  -6 1482.15   59.19
  -1  -7   6 1399.66   57.09
   1  -7  -6 1407.36   58.39
   1  -7  -6 1485.95   58.79
   1  -7  -6 1491.05   58.99
  -1  -7   6 1402.06   56.69
  -1  -7   6 1410.06   56.89
  -1  -7   6 1498.35   57.19
   1   7  -6 1388.76   56.69
  -1   7   6 1477.95   58.39
  -1   7   6 1476.05   58.79
  -1   7   6 1435.36   58.59
   1   7  -6 1445.76   56.89
  -1   7   6 1360.56   58.59
   0  -7   6   83.69    9.50
   0  -7  -6   79.39    9.30
   0  -7   6   83.99    9.80
   0  -7  -6   83.99    8.70
   0  -7   6   87.89   10.70
   0  -7  -6   91.99    9.60
   0  -7  -6   88.89    9.30
   0  -7   6  102.09   11.30
   0   7   6   85.49   10.70
   0   7  -6   86.19    8.90
   0   7   6   90.39    9.00
   0   7  -6   91.79   10.30
   0   7  -6  104.59   10.70
   0   7   6   76.69    8.80
   0   7  -6   80.49    9.30
   0   7   6   84.59   10.70
   1  -7   6  516.05   26.90
   1  -7   6  526.55   25.50
   1  -7   6  533.75   26.10
   1  -7   6  534.75   26.70
  -1  -7  -6  529.95   24.20
  -1  -7  -6  496.85   24.90
  -1  -7  -6  506.25   24.60
  -1  -7  -6  479.65   23.80
   1   7   6  500.15   23.90
   1   7   6  498.95   24.60
  -1   7  -6  574.24   26.40
  -1   7  -6  512.35   26.40
  -1   7  -6  528.85   25.20
  -1   7  -6  530.05   25.70
  -2  -7  -6  475.25   25.00
   2  -7   6  504.15   28.50
   2  -7   6  509.45   28.70
  -2  -7  -6  506.55   24.30
  -2  -7  -6  504.65   24.60
  -2  -7  -6  442.86   25.10
   2  -7   6  574.04   29.80
   2   7   6  469.15   23.80
  -2   7  -6  505.05   28.30
  -2   7  -6  582.44   29.30
  -2   7  -6  514.25   28.60
   2   7   6  474.15   24.00
  -2   7  -6  551.44   28.80
  -3  -7  -6   54.29   10.20
   3  -7   6   38.00   14.50
   3  -7   6   29.40   15.70
  -3  -7  -6   55.79   11.30
   3  -7   6   53.89   16.60
   3  -7   6   47.70   15.00
  -3  -7  -6   56.39   12.20
  -3  -7  -6   76.29   11.50
  -3   7  -6   72.19   24.00
  -3   7  -6   46.40   15.20
  -3   7  -6   57.29   15.70
  -3   7  -6   55.99   15.70
   3  -8  -6  -18.60   13.80
   3  -8  -6   -5.40   12.90
   3  -8  -6   -2.30   13.80
  -3  -8   6    1.30    8.00
   3  -8  -6  -17.90   14.20
  -3  -8   6    9.80    8.70
  -3   8   6   19.70   13.50
  -3   8   6   11.40   14.80
  -3   8   6   13.40   15.60
  -3   8   6   -8.80   14.10
   2  -8  -6 1668.13   70.29
  -2  -8   6 1672.53   66.39
   2  -8  -6 1772.72   70.89
   2  -8  -6 1809.92   71.29
  -2  -8   6 1660.83   66.89
  -2   8   6 1675.53   70.69
  -2   8   6 1678.63   70.09
  -2   8   6 1778.02   70.69
  -2   8   6 1599.54   70.39
  -1  -8   6   19.20    6.20
   1  -8  -6    9.60    8.70
  -1  -8   6   11.70    6.90
   1  -8  -6   20.40    7.40
   1  -8  -6   14.30    8.90
   1  -8  -6   -1.30    6.90
  -1  -8   6    9.80    6.20
  -1  -8   6   12.30    7.00
  -1   8   6   11.50    8.10
  -1   8   6    9.70    7.80
  -1   8   6   16.50    8.50
  -1   8   6   11.30    8.00
   1   8  -6    9.50    6.00
   0  -8   6 1076.99   44.60
   0  -8   6 1114.89   45.30
   0  -8  -6 1128.49   45.40
   0  -8  -6 1088.29   44.60
   0  -8   6 1083.39   44.30
   0  -8  -6 1042.70   44.80
   0  -8  -6 1075.69   45.00
   0  -8   6 1051.99   45.30
   0   8   6 1014.80   44.70
   0   8   6 1065.09   44.80
   0   8  -6 1196.78   43.60
   0   8   6 1036.50   43.70
   0   8  -6 1047.00   42.70
   0   8   6 1060.99   44.00
  -1  -8  -6  221.88   15.30
  -1  -8  -6  239.18   15.70
   1  -8   6  254.17   19.20
   1  -8   6  238.48   18.80
   1  -8   6  250.77   17.90
   1  -8   6  258.97   17.90
  -1  -8  -6  226.48   15.30
  -1   8  -6  234.78   17.70
   1   8   6  222.48   14.70
  -1   8  -6  258.27   18.60
   1   8   6  230.38   15.70
  -1   8  -6  236.58   16.70
  -1   8  -6  206.08   17.90
  -2  -8  -6  520.15   27.70
   2  -8   6  577.84   31.70
  -2  -8  -6  579.04   26.20
   2  -8   6  549.95   31.00
  -2  -8  -6  541.65   27.40
  -2  -8  -6  524.25   26.20
   2  -8   6  636.34   32.00
  -2   8  -6  554.34   30.80
   2   8   6  525.35   25.60
  -2   8  -6  575.54   31.00
  -2   8  -6  580.94   31.30
  -2   8  -6  639.74   31.30
   2   8   6  520.65   25.70
  -3  -8  -6  303.47   19.00
   3  -8   6  295.47   30.00
   3  -8   6  366.56   31.60
  -3  -8  -6  334.47   22.10
  -3  -8  -6  319.87   23.60
   3  -8   6  359.96   31.10
  -3  -8  -6  295.57   19.70
   3  -8   6  271.87   30.20
  -3   8  -6  342.97   30.10
  -3   8  -6  316.47   31.30
  -3   8  -6  315.77   29.50
   3   8   6  277.67   18.00
  -3   8  -6  325.17   29.60
   3  -9  -6  196.18   20.00
   3  -9  -6  241.08   29.70
   3  -9  -6  228.08   27.00
  -3  -9   6  236.28   17.30
   3  -9  -6  238.48   30.50
  -3   9   6  225.68   28.30
  -3   9   6  262.67   27.00
  -3   9   6  229.38   23.20
  -3   9   6  209.38   22.10
   2  -9  -6   14.40   11.00
  -2  -9   6   22.50    7.80
  -2  -9   6   12.60    7.40
   2  -9  -6    8.30   12.00
   2  -9  -6   22.30   12.30
  -2   9   6   20.40   11.30
  -2   9   6    8.60   12.20
  -2   9   6   14.90   12.00
  -2   9   6   23.70   11.70
  -1  -9   6  359.26   18.30
   1  -9  -6  353.46   22.50
  -1  -9   6  357.06   18.80
   1  -9  -6  352.46   22.50
  -1  -9   6  332.87   19.60
  -1  -9   6  329.87   17.50
   1  -9  -6  364.26   21.30
   1  -9  -6  336.27   21.00
  -1   9   6  350.86   22.00
  -1   9   6  322.87   21.60
   1   9  -6  341.57   18.10
  -1   9   6  333.77   21.80
   0  -9   6  323.67   18.50
   0  -9  -6  306.77   19.10
   0  -9  -6  299.07   19.60
   0  -9  -6  276.97   18.60
   0  -9   6  305.27   19.30
   0  -9   6  318.47   18.50
   0  -9   6  307.57   20.00
   0  -9  -6  310.77   18.80
   0   9   6  313.77   17.50
   0   9  -6  322.97   15.40
   0   9   6  317.87   17.40
   0   9  -6  299.27   18.70
   0   9   6  299.07   18.60
   0   9  -6  343.37   16.30
   0   9   6  291.27   18.70
  -1  -9  -6  245.68   17.00
   1  -9   6  276.97   19.20
   1  -9   6  262.97   21.10
   1  -9   6  282.67   19.60
   1  -9   6  285.47   20.90
  -1  -9  -6  270.87   16.70
  -1  -9  -6  269.97   17.30
   1   9   6  263.87   17.50
  -1   9  -6  291.67   18.30
   1   9   6  254.27   15.70
  -1   9  -6  269.27   19.70
  -1   9  -6  268.27   20.10
  -1   9  -6  294.87   20.80
   2  -9   6  206.38   24.10
  -2  -9  -6  223.28   18.00
  -2  -9  -6  269.77   19.40
  -2  -9  -6  227.48   15.80
   2  -9   6  257.37   24.00
   2  -9   6  280.57   25.10
  -2  -9  -6  244.18   16.20
   2  -9   6  244.88   24.00
  -2   9  -6  290.67   24.20
  -2   9  -6  270.07   23.00
   2   9   6  227.98   15.70
   2   9   6  226.58   14.90
  -2   9  -6  233.88   22.10
  -2   9  -6  230.28   23.50
   3  -9   6    4.00   16.20
  -3  -9  -6    7.00   11.30
   3  -9   6   13.50   17.90
  -3  -9  -6   -4.60   12.20
   3  -9   6   -8.10   16.90
   3  -9   6   19.80   18.70
  -3   9  -6    6.80   16.70
  -3   9  -6   21.90   17.40
  -3   9  -6   17.20   16.70
  -3   9  -6   -8.50   16.60
  -3 -10   6   19.10    9.80
   3 -10  -6   -3.30   13.60
  -3 -10   6   -3.20    9.00
   3 -10  -6  -35.20   17.30
   3 -10  -6   23.80   16.70
   3 -10  -6  -12.70   12.30
  -3  10   6    6.40   17.40
  -3  10   6   -6.80   16.80
  -3  10   6  -12.80   16.60
  -3  10   6    9.80   15.70
   2 -10  -6  230.88   22.70
   2 -10  -6  234.98   24.70
   2 -10  -6  211.48   25.20
  -2 -10   6  230.08   16.00
  -2 -10   6  241.88   17.40
   2 -10  -6  239.18   22.30
  -2  10   6  236.58   24.10
  -2  10   6  277.17   26.00
  -2  10   6  234.48   23.10
   1 -10  -6   25.40    9.90
  -1 -10   6   18.00    7.60
   1 -10  -6   15.30   10.80
  -1 -10   6    4.90    6.50
  -1 -10   6   14.50    8.50
   1 -10  -6   11.50   10.60
   1 -10  -6   -0.80    8.70
  -1 -10   6   18.20    7.90
   1  10  -6   -0.70    6.60
  -1  10   6    8.70    9.90
  -1  10   6   28.60   10.60
  -1  10   6   31.30   10.50
   1  10  -6   22.20    7.40
   0 -10   6  481.75   25.80
   0 -10   6  496.75   24.70
   0 -10   6  477.45   26.30
   0 -10  -6  482.05   25.60
   0 -10   6  457.55   24.80
   0 -10  -6  480.25   25.10
   0 -10  -6  488.35   25.60
   0 -10  -6  489.35   26.10
   0  10  -6  494.85   26.00
   0  10   6  498.55   23.30
   0  10   6  517.85   27.90
   0  10  -6  508.15   21.50
   0  10  -6  410.76   24.10
   0  10   6  486.25   23.00
   0  10  -6  532.55   21.20
   1 -10   6  164.28   19.50
  -1 -10  -6  159.68   14.60
   1 -10   6  179.48   18.50
  -1 -10  -6  157.68   16.50
   1 -10   6  145.09   18.20
  -1 -10  -6  165.68   15.10
   1 -10   6  189.48   20.30
  -1 -10  -6  174.98   15.10
  -1  10  -6  156.28   18.70
   1  10   6  161.08   13.40
  -1  10  -6  174.88   16.60
  -1  10  -6  180.38   18.10
   1  10   6  175.48   15.50
  -1  10  -6  169.88   18.40
  -2 -10  -6  107.39   10.30
  -2 -10  -6  116.99   12.30
   2 -10   6  117.49   16.30
  -2 -10  -6   96.69   12.40
   2 -10   6   95.09   17.50
   2 -10   6   90.79   15.50
   2 -10   6   89.69   15.20
  -2 -10  -6  108.89   13.30
  -2  10  -6  112.09   16.40
  -2  10  -6   81.39   15.20
  -2  10  -6  119.69   17.30
   2  10   6   90.39   11.30
  -3 -10  -6   79.89   13.90
   3 -10   6   38.70   20.70
   3 -10   6   76.29   21.80
  -3 -10  -6   27.20   13.60
   3 -10   6   28.50   18.10
   3 -10   6   15.10   19.20
  -3  10  -6   23.90   17.50
  -3  10  -6   56.19   19.10
  -3  10  -6   41.90   19.10
  -3  10  -6   66.79   19.10
   2 -11  -6   27.50   15.30
  -2 -11   6   26.70    8.30
   2 -11  -6   12.70   12.00
  -2 -11   6    3.20    9.90
   2 -11  -6   13.40   13.30
   2 -11  -6   -5.20   13.60
  -2  11   6   11.10   14.10
  -2  11   6    2.00   13.40
  -2  11   6    9.00   13.90
   1 -11  -6  116.89   14.80
   1 -11  -6   88.59   12.40
  -1 -11   6  114.29   11.20
   1 -11  -6  142.39   18.30
  -1 -11   6  110.39   12.30
   1 -11  -6  121.19   14.50
  -1 -11   6  117.69   12.40
  -1 -11   6  111.69   11.10
  -1  11   6  112.89   14.80
  -1  11   6  110.69   13.50
  -1  11   6  112.49   14.00
   1  11  -6  102.89   12.90
   1  11  -6  109.99   12.70
   0 -11  -6   10.20    8.80
   0 -11   6    4.40    8.60
   0 -11  -6   18.90    9.60
   0 -11  -6    8.00   10.00
   0 -11   6   18.00    9.30
   0 -11  -6   15.50    9.40
   0 -11   6    2.60   10.20
   0 -11   6    8.60    9.90
   0  11   6   10.40    7.20
   0  11  -6    7.80    8.70
   0  11   6    5.90    6.90
  -1 -11  -6   72.89   11.60
  -1 -11  -6   70.29   10.50
   1 -11   6   50.19   14.10
   1 -11   6   41.40   11.90
  -1 -11  -6   63.49   10.50
   1 -11   6   71.89   14.30
  -1 -11  -6   65.59   10.00
   1 -11   6   76.19   12.70
  -1  11  -6   71.59   13.00
  -1  11  -6   48.60   12.80
  -1  11  -6   53.09   10.40
   1  11   6   65.79    9.00
  -1  11  -6   66.59   11.90
   2 -11   6   19.50   14.60
  -2 -11  -6   -1.80   10.10
  -2 -11  -6   18.60    7.40
   2 -11   6   13.40   14.10
   2 -11   6   15.70   16.20
  -2 -11  -6   10.20    7.80
   2 -11   6    1.20   14.80
  -2  11  -6   32.20   14.40
  -2  11  -6   23.40   15.40
  -2  11  -6    8.30   14.20
  -2 -12   6    4.20   10.20
   2 -12  -6   13.00   15.70
   2 -12  -6   24.70   16.20
  -2 -12   6   21.50    9.70
   2 -12  -6   13.90   17.50
   2 -12  -6   25.10   13.50
  -2  12   6   21.40   15.50
  -2  12   6   34.90   13.90
  -2  12   6   20.90   15.40
  -2  12   6   13.00   15.50
   1 -12  -6    0.70   12.20
  -1 -12   6   16.30    8.90
  -1 -12   6   -8.20   10.10
   1 -12  -6   -1.70   12.30
   1 -12  -6    9.00   11.10
  -1 -12   6   18.70    9.00
   1 -12  -6   -0.70   11.20
  -1 -12   6    7.10    7.10
  -1  12   6   -5.20   10.90
  -1  12   6  -10.10    9.60
  -1  12   6   -2.00   10.70
   1  12  -6   -5.40    7.00
  -1  12   6   17.10   11.70
   0 -12  -6    9.00   10.60
   0 -12   6   18.90    9.80
   0 -12  -6   14.90   11.40
   0 -12  -6   13.50   10.40
   0 -12   6    9.60    9.80
   0 -12   6   -2.80   10.50
   0 -12   6   -4.40   10.90
   0 -12  -6    7.10   10.30
   0  12   6   17.00    7.00
   0  12   6   17.70    8.80
   0  12  -6   20.40    8.60
   0  12   6   14.90    6.60
  -1 -12  -6    7.80    8.90
  -1 -12  -6    2.00    9.30
  -1 -12  -6   13.20   10.90
   1 -12   6   17.30   13.40
   1 -12   6   11.40   13.30
   1 -12   6    4.90   11.60
  -1 -12  -6   12.40   10.00
   1 -12   6   14.40   11.80
  -1  12  -6    7.50   11.40
   1  12   6   -1.60    6.20
  -1  12  -6   14.60   11.40
  -1  12  -6   34.30   10.20
   1  12   6   25.20   10.20
  -1  12  -6   22.00   12.80
   2 -12   6   -2.00   15.80
  -2 -12  -6   19.60   12.00
   2 -12   6   21.10   17.80
   2 -12   6   21.10   16.70
   2 -12   6    3.70   15.10
  -2 -12  -6   20.70   11.60
  -2  12  -6    3.70   15.60
  -2  12  -6   16.00   15.30
  -2  12  -6   -2.70   15.10
   2 -13  -6   18.70   17.80
  -2 -13   6   -3.40   11.00
   2 -13  -6   -1.20   15.00
   2 -13  -6   19.90   17.80
  -2 -13   6   -5.60   10.40
   2 -13  -6   25.20   19.30
  -2  13   6   -4.30   17.70
  -2  13   6   -6.80   16.40
  -2  13   6  -21.90   14.70
  -2  13   6   23.00   17.70
  -1 -13   6  243.28   21.70
  -1 -13   6  200.48   18.10
   1 -13  -6  236.58   24.30
  -1 -13   6  208.48   18.80
   1 -13  -6  257.07   26.60
   1 -13  -6  232.98   22.80
   1 -13  -6  273.17   26.20
  -1 -13   6  218.88   16.30
  -1  13   6  262.27   24.50
  -1  13   6  255.27   22.60
   1  13  -6  197.98   15.80
  -1  13   6  252.77   21.40
   0 -13   6    8.70   12.00
   0 -13   6   15.40   11.20
   0 -13  -6    7.80   11.90
   0 -13   6    8.60    9.80
   0 -13  -6    4.90   12.50
   0 -13   6   -5.70   12.30
   0 -13  -6   29.90   12.20
   0 -13  -6   15.70   12.20
   0  13   6    6.90    8.30
   0  13  -6    3.90    7.90
   0  13  -6    8.90   10.60
   0  13   6    5.30   11.10
   1 -13   6  131.79   16.00
   1 -13   6  136.79   17.00
  -1 -13  -6  124.39   14.50
   1 -13   6  149.29   18.30
   1 -13   6  113.19   18.00
  -1 -13  -6  129.99   13.20
  -1 -13  -6  145.49   17.10
  -1 -13  -6  143.99   15.60
  -1  13  -6  135.69   14.40
   1  13   6  117.89   13.50
  -1  13  -6  128.09   16.70
   2 -13   6   12.10   18.60
  -2 -13  -6   -4.00   13.10
   2 -13   6   12.00   19.60
   2 -13   6   17.60   16.60
  -2 -13  -6  -20.10   12.30
   2 -13   6   -1.80   19.40
  -2  13  -6   11.10   17.10
  -2  13  -6  -19.80   16.80
  -2  13  -6   -4.70   16.50
  -2  13  -6    6.70   15.40
  -1 -14   6   10.70   11.90
  -1 -14   6   14.90    8.80
   1 -14  -6   13.70   17.00
   1 -14  -6   20.70   13.20
   1 -14  -6   18.50   14.20
  -1 -14   6   12.10   10.30
   1 -14  -6    7.70   16.10
  -1 -14   6   -6.40   11.10
  -1  14   6   18.10   14.60
  -1  14   6  -28.40   12.60
  -1  14   6   -7.20    9.50
  -1  14   6   -6.70   11.70
   0 -14  -6  297.37   26.80
   0 -14   6  340.27   23.70
   0 -14  -6  319.97   26.30
   0 -14   6  325.27   28.10
   0 -14  -6  350.56   25.90
   0 -14  -6  351.26   27.30
   0 -14   6  336.77   25.20
   0 -14   6  314.67   25.90
   0  14  -6  298.27   23.90
   0  14   6  260.37   25.10
  -1 -14  -6  131.69   14.80
   1 -14   6  149.59   17.40
   1 -14   6  154.28   20.60
  -1 -14  -6  117.19   14.70
   1 -14   6  154.78   18.30
   1 -14   6  147.39   19.80
  -1 -14  -6  141.89   15.80
  -1 -14  -6  160.58   17.10
  -1  14  -6  133.89   14.40
  -1  14  -6  105.29   17.50
   1  14   6  118.69   14.10
   4   0  -7   12.80    9.60
   4   0  -7   -5.80   10.30
  -4   0   7   -2.90   12.90
  -4   0   7   -2.10   13.60
  -4   0   7  -14.70   13.90
   4   0  -7   -6.70   13.40
  -4   0   7   11.80   14.50
   4   0  -7   -9.60    9.50
  -3   0   7   -1.40    9.50
   3   0  -7   -0.40    9.10
  -3   0   7   -8.00    9.40
   3   0  -7    4.60    8.50
  -3   0   7    2.90    9.90
  -3   0   7    3.90    9.30
   3   0  -7   -0.30    7.80
   3   0  -7    5.30    9.30
  -2   0   7   -0.10    6.50
   2   0  -7   -0.70    6.60
   2   0  -7    2.60    6.30
   2   0  -7   -0.80    7.10
   2   0  -7   -5.60    6.20
  -2   0   7    4.70    6.70
  -2   0   7   -1.80    6.90
  -2   0   7   -8.30    6.30
   1   0  -7    4.40    5.20
  -1   0   7   -4.10    5.20
   1   0  -7   -2.90    5.40
  -1   0   7    1.80    5.20
   1   0  -7    0.60    5.90
  -1   0   7   -1.20    6.00
   1   0  -7    3.20    5.00
   0   0   7   -6.60    5.70
   0   0  -7   -2.10    4.70
   0   0   7    0.30    4.70
   0   0   7    0.00    5.30
   0   0  -7   -4.50    5.60
   0   0   7   -3.90    4.50
   0   0  -7    0.90    5.30
   0   0  -7   -1.70    5.10
  -1   0  -7    0.80    6.30
   1   0   7   -4.20    5.90
  -1   0  -7   -5.70    5.80
  -1   0  -7    9.80    6.80
   1   0   7   -1.20    6.10
  -1   0  -7    1.60    6.00
   1   0   7    7.00    6.90
   1   0   7    0.20    6.60
  -2   0  -7    2.70    7.40
  -2   0  -7    2.90    7.40
  -2   0  -7   -5.30    7.10
   2   0   7    9.20    8.60
   2   0   7   -0.90    7.90
   2   0   7    9.60    7.90
   2   0   7   -5.30    7.20
  -2   0  -7    2.00    8.00
  -3   0  -7  -12.60   10.40
   3   0   7  -17.40    9.60
   3   0   7   -3.50    9.30
  -3   0  -7    2.10   10.70
   3   0   7    2.80   10.80
  -3   0  -7    9.20   10.80
   3   0   7   -3.20   10.90
  -3   0  -7   -5.00   10.60
  -4   0  -7   18.50   15.40
   4   0   7   -7.50   12.00
   4   0   7   -2.80   10.10
   4   0   7    3.70   13.80
  -4   0  -7   -0.30   15.50
  -4   0  -7    3.60   15.20
  -4   0  -7  -18.80   14.40
   4   0   7   14.00   16.20
   4  -1  -7    3.30   11.70
  -4  -1   7   -6.00   13.70
   4  -1  -7    8.50   13.60
   4  -1  -7  -14.50   10.70
  -4  -1   7   -0.10   13.50
   4  -1  -7   20.20   10.40
  -4  -1   7   -7.40   12.40
  -4  -1   7   -6.90   13.90
   4   1  -7    8.10    8.00
  -4   1   7   -1.30   15.20
   4   1  -7   23.00   13.30
  -4   1   7   15.10   15.00
  -4   1   7   11.50   14.20
  -4   1   7    3.10   13.60
   4   1  -7    0.00    8.30
  -3  -1   7    7.90    9.70
   3  -1  -7   13.80    9.40
  -3  -1   7    6.20    8.90
  -3  -1   7    6.00    9.10
   3  -1  -7    6.50    9.20
  -3  -1   7   23.00    9.50
   3  -1  -7   16.40    8.80
   3  -1  -7   16.00    9.60
  -3   1   7   14.90   10.00
  -3   1   7    8.70   10.00
  -3   1   7   17.60   10.00
   3   1  -7    3.40    7.00
  -3   1   7   13.60   10.20
   3   1  -7   15.30    9.60
   3   1  -7   -6.10    8.00
  -2  -1   7  133.69   13.00
  -2  -1   7  148.29   13.30
   2  -1  -7  153.88   14.00
   2  -1  -7  160.08   13.70
   2  -1  -7  151.28   13.60
   2  -1  -7  156.28   13.80
  -2  -1   7  133.39   12.70
  -2  -1   7  161.18   13.60
   2   1  -7  154.48   13.30
  -2   1   7  141.49   14.00
  -2   1   7  127.69   13.40
  -2   1   7  142.89   14.40
  -2   1   7  145.19   13.80
   2   1  -7  145.49   12.70
   2   1  -7  134.39   13.50
   2   1  -7  127.59   11.70
   1  -1  -7   81.99    8.60
  -1  -1   7   99.69    9.50
   1  -1  -7  102.69   10.70
   1  -1  -7   87.89   10.00
   1  -1  -7   82.19   10.40
  -1  -1   7   92.69   10.20
  -1  -1   7   75.59    9.90
  -1  -1   7   91.69   10.30
   1   1  -7  101.69    9.50
  -1   1   7   86.19   10.60
   1   1  -7   91.69    9.70
   1   1  -7   89.19   10.20
   1   1  -7   92.09   10.20
  -1   1   7   85.89   11.10
  -1   1   7   89.39   10.20
   0  -1  -7  325.87   17.80
   0  -1  -7  338.77   17.50
   0  -1   7  317.67   18.00
   0  -1   7  305.17   17.20
   0  -1  -7  346.27   18.00
   0  -1   7  328.97   17.60
   0  -1  -7  321.27   17.50
   0  -1   7  325.87   17.80
   0   1   7  342.77   17.30
   0   1  -7  359.06   18.00
   0   1  -7  334.07   17.50
   0   1  -7  334.67   17.90
   0   1  -7  316.37   18.20
   0   1   7  323.77   18.00
   0   1   7  352.96   17.80
   0   1   7  313.77   17.20
   1  -1   7   96.19   11.70
  -1  -1  -7   83.69   10.80
  -1  -1  -7   87.69    8.90
  -1  -1  -7   83.89    9.60
   1  -1   7   76.49    9.30
  -1  -1  -7   96.49   10.10
   1  -1   7   90.49    9.70
   1  -1   7   86.79   10.10
  -1   1  -7   96.49   11.50
   1   1   7   87.39    9.80
   1   1   7   85.89   11.10
  -1   1  -7   77.89    9.40
  -1   1  -7   99.39   11.10
  -1   1  -7   77.49    9.60
   1   1   7   78.39    9.80
   1   1   7   91.59    9.50
  -2  -1  -7  254.07   18.10
   2  -1   7  278.17   18.70
   2  -1   7  263.77   18.60
  -2  -1  -7  269.37   17.30
   2  -1   7  282.37   18.40
   2  -1   7  289.97   18.70
  -2  -1  -7  253.57   17.50
  -2  -1  -7  273.57   18.60
  -2   1  -7  270.57   18.80
  -2   1  -7  258.57   18.30
  -2   1  -7  260.07   18.10
   2   1   7  279.07   18.00
  -2   1  -7  268.67   18.50
   2   1   7  276.37   17.00
   2   1   7  289.77   18.90
   2   1   7  254.17   18.30
  -3  -1  -7   17.60   11.00
  -3  -1  -7   26.00   10.70
   3  -1   7    4.50   10.20
   3  -1   7   19.80   11.80
  -3  -1  -7   12.20   11.10
   3  -1   7   13.70   11.30
  -3  -1  -7   29.20   10.50
   3  -1   7   23.00   10.90
   3   1   7   11.60   10.30
   3   1   7    7.80   10.60
  -3   1  -7   29.40   11.40
  -3   1  -7   17.30   11.80
  -3   1  -7    9.50   11.10
   3   1   7   19.00   10.70
   3   1   7   21.00    9.20
  -3   1  -7   19.40   11.90
  -4  -1  -7    1.90   14.60
  -4  -1  -7    2.80   14.80
   4  -1   7   36.60   17.60
  -4  -1  -7   25.40   15.80
   4  -1   7   16.20   13.50
   4  -1   7   36.10   15.80
  -4  -1  -7    2.60   14.00
   4  -1   7   40.00   14.30
   4   1   7    5.20   15.70
  -4   1  -7   11.60   15.70
  -4   1  -7   -8.30   14.30
   4   1   7  -11.60    9.00
  -4   1  -7   25.30   16.00
   4   1   7   10.00   12.40
   4   1   7   12.40   11.90
  -4   1  -7   40.80   17.60
  -4  -2   7  400.26   28.60
  -4  -2   7  381.86   28.60
  -4  -2   7  379.06   28.50
   4  -2  -7  379.96   29.10
  -4  -2   7  373.06   27.50
   4  -2  -7  298.87   26.60
   4  -2  -7  302.37   25.40
  -4   2   7  367.76   29.70
  -4   2   7  367.66   30.20
  -4   2   7  398.26   31.20
   4   2  -7  330.87   26.80
  -4   2   7  366.26   30.20
  -3  -2   7  415.46   24.20
   3  -2  -7  446.56   24.70
  -3  -2   7  411.76   24.40
   3  -2  -7  450.75   26.00
  -3  -2   7  436.26   24.00
   3  -2  -7  398.36   24.80
   3  -2  -7  430.06   25.00
  -3  -2   7  436.16   24.20
  -3   2   7  390.46   25.90
   3   2  -7  389.46   19.40
  -3   2   7  447.06   25.90
  -3   2   7  427.66   26.40
   3   2  -7  410.56   21.00
  -3   2   7  422.26   25.90
  -2  -2   7   28.10    7.60
   2  -2  -7   22.90    7.70
   2  -2  -7   16.60    7.80
   2  -2  -7   14.20    7.60
  -2  -2   7   17.50    7.40
   2  -2  -7   23.10    7.60
  -2  -2   7   21.60    7.00
  -2  -2   7   19.10    7.20
   2   2  -7   15.40    6.80
  -2   2   7   19.00    7.50
   2   2  -7   28.10    5.80
   2   2  -7   15.30    6.60
  -2   2   7   23.90    7.40
   2   2  -7   12.70    6.90
  -2   2   7   15.80    7.80
  -2   2   7   21.00    8.20
  -1  -2   7  814.62   34.70
   1  -2  -7  809.72   34.90
   1  -2  -7  801.32   35.00
   1  -2  -7  872.81   35.00
  -1  -2   7  821.72   34.80
  -1  -2   7  819.52   34.60
   1  -2  -7  823.82   34.90
  -1  -2   7  817.02   34.20
  -1   2   7  798.22   35.00
  -1   2   7  815.12   34.90
   1   2  -7  808.72   34.90
   1   2  -7  831.02   33.70
  -1   2   7  817.62   35.00
   1   2  -7  827.62   34.70
   1   2  -7  835.62   34.90
   0  -2  -7   18.40    5.90
   0  -2   7   23.00    6.20
   0  -2   7   21.30    6.80
   0  -2  -7   17.30    5.30
   0  -2  -7   25.90    6.20
   0  -2   7   23.40    6.40
   0  -2   7    8.60    5.60
   0  -2  -7   24.20    6.50
   0   2  -7   21.70    6.40
   0   2   7   29.10    6.80
   0   2  -7   23.20    6.70
   0   2   7   29.50    6.80
   0   2   7   27.20    6.60
   0   2  -7   26.60    6.50
   0   2   7   29.80    6.50
   0   2  -7   20.60    6.90
  -1  -2  -7 1426.06   57.29
   1  -2   7 1419.86   57.99
  -1  -2  -7 1439.06   57.69
   1  -2   7 1412.36   57.79
  -1  -2  -7 1509.55   58.19
  -1  -2  -7 1456.95   58.09
   1  -2   7 1368.56   57.69
  -1   2  -7 1432.26   58.09
   1   2   7 1425.26   56.99
   1   2   7 1458.65   57.79
  -1   2  -7 1419.26   57.59
  -1   2  -7 1491.55   58.09
   1   2   7 1420.76   57.99
   1   2   7 1377.16   57.49
  -1   2  -7 1372.46   57.69
  -2  -2  -7  239.98   16.50
   2  -2   7  253.47   18.20
  -2  -2  -7  227.08   16.60
   2  -2   7  248.48   18.80
  -2  -2  -7  254.77   18.30
   2  -2   7  249.38   18.40
   2  -2   7  252.87   18.30
  -2  -2  -7  235.08   17.80
  -2   2  -7  237.98   17.60
   2   2   7  232.08   15.70
  -2   2  -7  217.38   17.70
   2   2   7  252.57   17.90
  -2   2  -7  242.98   18.70
   2   2   7  253.27   17.40
   2   2   7  239.58   17.50
  -2   2  -7  269.07   18.40
  -3  -2  -7   38.20   11.60
   3  -2   7   30.60   11.80
   3  -2   7   31.70   12.10
  -3  -2  -7   37.30   10.80
   3  -2   7   16.40   11.50
   3  -2   7   16.70   11.00
  -3  -2  -7   27.30   10.90
  -3  -2  -7   29.50   10.50
   3   2   7   31.20    8.70
  -3   2  -7   33.20   12.70
  -3   2  -7   34.20   12.10
  -3   2  -7   28.80   11.50
  -3   2  -7   37.40   11.80
   3   2   7   22.40   11.40
   3   2   7   29.90    9.90
  -4  -2  -7  209.08   25.00
  -4  -2  -7  180.88   21.10
  -4  -2  -7  165.38   18.60
   4  -2   7  135.29   19.50
   4  -2   7  150.58   22.20
  -4  -2  -7  171.18   18.10
   4  -2   7  104.99   18.50
  -4   2  -7  152.38   20.50
  -4   2  -7  162.48   22.50
   4   2   7  131.99   17.00
  -4   2  -7  153.68   21.40
   4   2   7  134.59   18.40
  -4   2  -7  169.68   21.00
  -4  -3   7   83.29   15.50
   4  -3  -7   62.19   14.70
  -4  -3   7   85.29   14.60
   4  -3  -7   14.40   18.70
   4  -3  -7   46.70   15.80
  -4  -3   7   80.59   14.70
   4  -3  -7   43.60   16.70
  -4  -3   7   42.10   15.20
   4   3  -7    8.50    9.00
  -4   3   7   72.79   18.00
   4   3  -7   38.50   13.80
  -4   3   7   89.29   18.80
  -4   3   7   75.09   17.20
  -4   3   7   42.30   15.60
   3  -3  -7  218.38   20.20
   3  -3  -7  240.48   20.60
  -3  -3   7  228.28   18.00
  -3  -3   7  223.88   18.00
  -3  -3   7  237.58   18.70
  -3  -3   7  227.58   18.60
   3  -3  -7  255.97   20.90
   3  -3  -7  224.98   20.90
  -3   3   7  236.78   22.00
  -3   3   7  225.58   22.00
   3   3  -7  245.48   17.00
  -3   3   7  202.08   21.00
  -3   3   7  234.08   20.50
  -2  -3   7 1680.23   70.39
   2  -3  -7 1824.22   71.39
  -2  -3   7 1859.11   70.29
   2  -3  -7 1796.02   71.39
   2  -3  -7 1827.02   71.79
  -2  -3   7 1834.82   70.39
  -2  -3   7 1759.52   70.09
   2  -3  -7 1761.02   71.39
   2   3  -7 1717.13   68.69
  -2   3   7 1836.32   71.59
  -2   3   7 1831.32   71.79
  -2   3   7 1810.62   71.69
   2   3  -7 1709.33   69.79
  -2   3   7 1759.32   71.49
   2   3  -7 1802.62   70.59
   2   3  -7 1682.33   68.09
   1  -3  -7  727.53   31.60
   1  -3  -7  750.62   31.40
  -1  -3   7  695.33   30.50
  -1  -3   7  692.13   31.20
   1  -3  -7  755.62   31.80
   1  -3  -7  692.33   31.30
  -1  -3   7  740.23   31.60
  -1  -3   7  697.83   30.70
   1   3  -7  744.43   31.70
  -1   3   7  736.63   31.60
   1   3  -7  689.23   30.40
   1   3  -7  733.33   31.10
   1   3  -7  694.53   29.50
  -1   3   7  705.03   31.50
  -1   3   7  717.93   31.80
   0  -3  -7 2474.95   96.69
   0  -3   7 2664.53   97.49
   0  -3  -7 2477.05   97.09
   0  -3   7 2518.65   97.39
   0  -3   7 2393.86   96.89
   0  -3  -7 2540.55   97.09
   0  -3   7 2398.26   96.79
   0   3  -7 2482.35   97.39
   0   3   7 2536.85   96.99
   0   3   7 2439.76   96.69
   0   3  -7 2540.65   96.89
   0   3   7 2449.45   96.99
   0   3  -7 2520.95   96.69
   0   3  -7 2500.65   97.19
   0   3   7 2535.05   97.09
   1  -3   7   61.79    8.60
  -1  -3  -7   60.19    8.20
  -1  -3  -7   57.39    9.40
  -1  -3  -7   46.80    7.80
   1  -3   7   85.79    9.90
  -1  -3  -7   76.39    9.20
   1  -3   7   58.49    8.60
   1  -3   7   62.29    9.20
   1   3   7   62.19    8.50
   1   3   7   55.29    8.50
  -1   3  -7   73.79    9.20
   1   3   7   66.39    9.00
  -1   3  -7   75.69    9.40
  -1   3  -7   68.99    9.00
  -1   3  -7   71.99    9.20
   1   3   7   60.69    7.60
   2  -3   7 1050.19   44.90
  -2  -3  -7  989.40   43.70
  -2  -3  -7 1022.10   43.60
   2  -3   7 1019.00   45.40
  -2  -3  -7 1082.39   44.90
   2  -3   7 1043.50   45.30
  -2  -3  -7 1049.59   44.50
   2  -3   7 1038.00   45.20
  -2   3  -7 1000.70   44.90
   2   3   7 1020.60   43.90
   2   3   7 1019.30   43.10
   2   3   7 1073.79   44.80
  -2   3  -7 1066.69   45.20
  -2   3  -7 1008.20   45.00
   2   3   7 1014.90   42.10
   3  -3   7   88.29   14.20
  -3  -3  -7   97.99   13.50
   3  -3   7   68.09   13.00
  -3  -3  -7  103.29   12.90
   3  -3   7   98.69   14.90
   3  -3   7   87.99   14.40
  -3  -3  -7   75.59   12.90
   3   3   7   81.59    8.80
   3   3   7   76.29   10.00
  -3   3  -7   70.89   14.40
  -3   3  -7   70.39   13.20
  -3   3  -7   54.89   12.70
  -3   3  -7   78.19   14.20
   4  -3   7  137.59   20.80
   4  -3   7  151.28   19.90
   4  -3   7  101.69   21.70
  -4  -3  -7  156.18   19.20
   4  -3   7  150.78   19.60
  -4  -3  -7  200.18   25.30
  -4  -3  -7  154.48   18.60
  -4  -3  -7  122.19   18.60
  -4   3  -7  138.99   20.60
  -4   3  -7  112.39   21.30
   4   3   7  109.99   17.30
  -4   3  -7  115.69   21.00
  -4   3  -7  181.68   22.20
  -4  -4   7  297.27   24.40
  -4  -4   7  282.97   22.60
   4  -4  -7  245.18   29.80
   4  -4  -7  234.68   26.30
  -4  -4   7  261.67   25.90
  -4  -4   7  246.28   25.50
   4  -4  -7  242.18   23.60
   4  -4  -7  314.57   28.50
  -4   4   7  297.47   32.30
   4   4  -7  274.27   23.90
  -4   4   7  231.68   24.10
  -4   4   7  238.98   24.90
  -4   4   7  236.48   29.00
   3  -4  -7  473.45   28.10
   3  -4  -7  445.16   26.90
  -3  -4   7  450.15   24.60
   3  -4  -7  425.86   27.60
  -3  -4   7  433.06   23.60
   3  -4  -7  490.15   28.20
  -3  -4   7  449.66   24.70
  -3  -4   7  431.16   24.70
  -3   4   7  457.85   28.50
   3   4  -7  436.86   22.80
  -3   4   7  419.56   28.40
  -3   4   7  427.66   27.40
  -3   4   7  483.15   29.20
  -2  -4   7  510.05   24.20
   2  -4  -7  512.15   25.40
  -2  -4   7  477.25   23.00
   2  -4  -7  481.55   25.80
   2  -4  -7  518.25   26.20
  -2  -4   7  509.35   23.90
   2  -4  -7  496.65   25.30
  -2  -4   7  494.75   23.40
  -2   4   7  418.26   24.80
   2   4  -7  503.85   24.30
  -2   4   7  491.35   25.70
  -2   4   7  479.25   26.30
   2   4  -7  478.15   22.60
  -2   4   7  525.45   26.40
   1  -4  -7 1933.71   76.09
  -1  -4   7 1925.21   75.79
   1  -4  -7 1909.71   76.29
  -1  -4   7 1923.31   75.19
   1  -4  -7 1981.80   76.39
  -1  -4   7 1895.61   75.39
  -1  -4   7 1996.60   76.09
   1  -4  -7 1910.91   76.19
  -1   4   7 1968.30   76.39
  -1   4   7 1979.40   76.29
  -1   4   7 1902.81   76.19
   1   4  -7 1918.31   76.19
   1   4  -7 1865.01   73.99
   1   4  -7 1899.81   74.19
   0  -4   7    1.70    6.20
   0  -4  -7    3.90    6.00
   0  -4  -7    0.40    5.40
   0  -4  -7    1.90    6.00
   0  -4   7    5.30    6.30
   0  -4  -7    3.90    5.40
   0  -4   7    0.90    6.00
   0  -4   7    6.90    5.90
   0   4   7   15.80    6.10
   0   4   7   10.50    6.20
   0   4  -7   12.70    5.70
   0   4   7   -2.10    6.00
   0   4   7    6.10    6.20
   0   4  -7    6.80    5.80
   0   4  -7    6.60    6.40
   0   4  -7    3.40    6.30
  -1  -4  -7 1124.59   47.00
   1  -4   7 1156.28   47.80
  -1  -4  -7 1155.28   47.50
  -1  -4  -7 1160.88   47.00
   1  -4   7 1133.49   47.90
   1  -4   7 1172.58   47.80
  -1  -4  -7 1212.48   47.20
   1  -4   7 1102.19   47.10
  -1   4  -7 1150.68   47.60
   1   4   7 1153.78   47.40
   1   4   7 1115.89   45.90
   1   4   7 1100.59   46.90
  -1   4  -7 1177.58   47.80
  -1   4  -7 1067.39   47.00
  -1   4  -7 1100.19   47.30
   1   4   7 1135.29   46.20
   2  -4   7  237.48   19.50
  -2  -4  -7  259.37   18.40
   2  -4   7  264.17   19.80
   2  -4   7  272.97   19.70
  -2  -4  -7  241.08   16.80
   2  -4   7  234.68   19.80
  -2  -4  -7  272.77   18.90
  -2  -4  -7  250.97   17.40
  -2   4  -7  258.07   19.80
   2   4   7  245.68   15.30
  -2   4  -7  246.98   19.40
   2   4   7  244.08   14.10
   2   4   7  230.08   17.20
  -2   4  -7  264.07   19.70
  -3  -4  -7  409.86   25.40
   3  -4   7  385.36   27.80
   3  -4   7  382.46   27.90
  -3  -4  -7  401.46   24.30
   3  -4   7  408.36   28.30
  -3  -4  -7  379.66   24.80
  -3   4  -7  405.56   28.30
  -3   4  -7  379.26   27.60
  -3   4  -7  380.76   26.90
  -3   4  -7  386.76   28.40
   3   4   7  385.46   24.20
  -4  -4  -7  365.36   30.70
   4  -4   7  334.17   34.40
   4  -4   7  377.76   33.30
   4  -4   7  332.37   36.70
  -4  -4  -7  392.06   28.90
  -4  -4  -7  350.96   28.10
   4  -4   7  356.06   34.60
  -4  -4  -7  342.67   29.00
  -4   4  -7  325.37   34.40
  -4   4  -7  403.26   35.00
  -4   4  -7  385.46   36.20
  -4   4  -7  319.47   39.40
  -4  -5   7  178.78   19.00
   4  -5  -7  186.88   20.20
  -4  -5   7  180.18   17.10
   4  -5  -7  141.19   20.80
  -4  -5   7  187.48   18.00
   4  -5  -7  171.58   22.90
  -4  -5   7  137.79   15.20
   4  -5  -7  137.39   20.80
  -4   5   7  196.78   26.50
  -4   5   7  213.08   22.90
   4   5  -7  165.98   17.20
  -4   5   7  192.98   23.80
  -4   5   7  146.19   22.20
   3  -5  -7   73.89   13.80
   3  -5  -7   73.69   14.40
  -3  -5   7   70.59   10.60
   3  -5  -7   87.99   15.00
   3  -5  -7   44.90   11.60
  -3  -5   7   59.39   10.30
  -3  -5   7   64.09    9.80
  -3  -5   7   65.39   10.70
  -3   5   7   71.69   13.70
   3   5  -7   61.49    9.00
  -3   5   7   73.79   13.80
  -3   5   7   67.59   13.60
  -3   5   7   88.59   15.00
  -2  -5   7 1226.88   51.09
  -2  -5   7 1289.47   52.19
   2  -5  -7 1230.68   53.39
   2  -5  -7 1313.67   54.29
   2  -5  -7 1284.07   53.79
  -2  -5   7 1302.77   51.29
  -2  -5   7 1321.77   51.79
   2  -5  -7 1278.37   54.09
  -2   5   7 1236.58   53.79
  -2   5   7 1232.28   53.79
  -2   5   7 1232.98   53.39
   2   5  -7 1306.07   50.89
   2   5  -7 1277.77   52.39
  -2   5   7 1311.67   54.19
   1  -5  -7  191.78   14.00
   1  -5  -7  172.68   14.00
  -1  -5   7  162.68   13.00
   1  -5  -7  164.38   14.60
  -1  -5   7  137.49   13.60
  -1  -5   7  155.98   12.40
   1  -5  -7  152.18   14.00
  -1  -5   7  165.28   12.60
   1   5  -7  164.28    9.10
   1   5  -7  160.78   13.90
  -1   5   7  169.18   14.30
  -1   5   7  171.18   14.20
   1   5  -7  161.28   12.40
  -1   5   7  150.18   14.40
   1   5  -7  158.18    9.50
   0  -5   7 1812.52   68.79
   0  -5  -7 1728.63   68.39
   0  -5   7 1676.93   68.59
   0  -5   7 1699.93   67.99
   0  -5  -7 1716.53   67.99
   0  -5   7 1706.73   68.49
   0  -5  -7 1697.53   68.19
   0  -5  -7 1779.02   68.59
   0   5  -7 1724.03   68.59
   0   5   7 1697.93   67.99
   0   5  -7 1684.03   67.29
   0   5  -7 1734.13   67.79
   0   5  -7 1730.23   68.49
   0   5   7 1699.03   68.39
   0   5   7 1747.33   68.49
   0   5   7 1719.93   67.99
   1  -5   7   25.10    8.80
   1  -5   7   27.60    7.70
   1  -5   7   11.10    7.10
   1  -5   7   18.80    7.90
  -1  -5  -7   19.00    7.50
  -1  -5  -7   29.50    7.80
  -1  -5  -7   20.90    6.90
  -1  -5  -7   14.50    6.90
   1   5   7   15.00    7.20
   1   5   7   21.00    6.20
   1   5   7   22.10    7.80
  -1   5  -7   24.30    7.70
  -1   5  -7   20.20    7.90
  -1   5  -7   11.90    7.50
  -1   5  -7   22.00    8.20
   1   5   7   19.20    6.40
  -2  -5  -7  413.16   22.00
   2  -5   7  397.56   24.60
   2  -5   7  420.86   25.00
  -2  -5  -7  418.86   23.10
  -2  -5  -7  374.46   21.80
   2  -5   7  393.16   24.50
   2  -5   7  404.96   25.30
  -2  -5  -7  378.86   22.50
  -2   5  -7  423.56   24.40
   2   5   7  392.96   21.70
   2   5   7  396.16   17.70
  -2   5  -7  410.56   24.60
   2   5   7  397.36   18.10
  -2   5  -7  405.36   25.30
  -2   5  -7  401.66   24.20
   2   5   7  375.56   22.80
  -3  -5  -7  186.68   20.80
   3  -5   7  259.27   25.50
  -3  -5  -7  252.57   20.00
   3  -5   7  211.18   25.10
   3  -5   7  221.88   25.40
  -3  -5  -7  246.28   20.60
  -3   5  -7  250.17   24.40
  -3   5  -7  244.98   25.10
   3   5   7  178.28   23.20
  -3   5  -7  266.37   24.60
   3  -6  -7   34.50   13.30
  -3  -6   7   58.69   10.20
   3  -6  -7   49.40   13.20
  -3  -6   7   40.60   10.30
  -3  -6   7   51.09   10.30
  -3  -6   7   51.59    8.70
   3  -6  -7   68.59   14.90
  -3   6   7   54.19   14.60
   3   6  -7   54.69    8.50
  -3   6   7   41.20   13.60
  -3   6   7   43.40   13.50
  -2  -6   7  112.49   12.90
  -2  -6   7  108.59   13.20
   2  -6  -7  119.69   13.10
  -2  -6   7  102.09   11.70
   2  -6  -7  127.39   14.50
   2  -6  -7  125.69   14.10
   2  -6  -7  120.79   13.80
  -2   6   7  113.09   13.00
   2   6  -7   95.79   10.90
  -2   6   7   75.79   11.30
  -2   6   7   88.39   12.20
  -2   6   7  108.69   13.10
   2   6  -7  103.89   10.50
   1  -6  -7  963.60   40.90
   1  -6  -7  908.41   40.40
  -1  -6   7  951.40   39.20
  -1  -6   7  960.00   39.60
   1  -6  -7  883.31   40.00
   1  -6  -7  948.41   40.80
  -1  -6   7  905.21   38.90
  -1  -6   7  928.81   39.00
   1   6  -7  927.91   39.50
   1   6  -7 1010.30   39.20
  -1   6   7  910.11   40.50
  -1   6   7  930.81   40.50
  -1   6   7  947.61   40.50
   0  -6   7   38.00    8.30
   0  -6  -7   39.20    8.00
   0  -6   7   35.70    8.40
   0  -6   7   41.60    7.80
   0  -6   7   36.30    7.20
   0  -6  -7   41.10    7.40
   0  -6  -7   24.40    7.30
   0  -6  -7   32.40    7.00
   0   6   7   46.20    8.40
   0   6   7   35.80    7.70
   0   6  -7   41.10    7.30
   0   6   7   41.40    7.50
   0   6  -7   32.20    7.40
   0   6   7   21.60    7.00
   0   6  -7   23.00    7.70
   0   6  -7   41.60    6.30
   1  -6   7  123.49   12.90
   1  -6   7  124.09   14.60
  -1  -6  -7  103.39   10.80
  -1  -6  -7   91.99   10.30
  -1  -6  -7   93.39    9.90
  -1  -6  -7  105.99   10.90
   1  -6   7  114.39   13.90
   1  -6   7  123.59   14.50
  -1   6  -7  112.39   11.50
  -1   6  -7  117.09   13.90
   1   6   7  102.59   10.60
  -1   6  -7  111.79   11.70
   1   6   7   96.49    9.90
  -1   6  -7  113.19   13.30
   1   6   7  101.89   10.20
   2  -6   7   95.59   13.60
  -2  -6  -7   58.49   11.10
   2  -6   7   83.89   12.70
  -2  -6  -7   83.49   10.80
   2  -6   7   84.39   12.90
  -2  -6  -7   88.59   10.40
  -2  -6  -7   68.49   10.70
   2  -6   7   63.19   12.20
   2   6   7   72.49   10.40
  -2   6  -7   89.69   13.60
  -2   6  -7   74.09   12.50
  -2   6  -7   91.59   13.20
  -2   6  -7   94.39   13.20
   2   6   7   81.69   10.80
   3  -6   7  248.38   27.00
  -3  -6  -7  207.98   21.30
   3  -6   7  236.08   26.70
  -3  -6  -7  230.98   20.50
   3  -6   7  264.37   26.40
  -3  -6  -7  217.78   20.50
   3  -6   7  254.77   27.30
  -3   6  -7  247.18   25.40
  -3   6  -7  247.78   25.90
  -3   6  -7  236.58   26.20
   3   6   7  201.58   19.20
   3  -7  -7   58.39   15.70
  -3  -7   7   66.39    8.40
   3  -7  -7   64.49   15.60
  -3  -7   7   72.59   10.40
   3  -7  -7   67.89   14.90
  -3  -7   7   69.59   11.20
  -3  -7   7   68.89   10.60
   3  -7  -7   77.49   16.60
  -3   7   7   60.99   14.70
  -3   7   7   79.89   16.50
  -3   7   7   74.59   15.90
  -2  -7   7   56.39    8.80
  -2  -7   7   57.99    9.20
   2  -7  -7   68.29   13.10
   2  -7  -7   59.89   11.50
   2  -7  -7   39.10    9.50
  -2  -7   7   51.89    8.40
  -2  -7   7   63.29    7.90
  -2   7   7   44.30   11.40
   2   7  -7   48.50    8.40
  -2   7   7   27.40   11.40
   2   7  -7   53.39    7.00
  -2   7   7   53.69   11.90
  -2   7   7   47.80   11.30
  -1  -7   7  -12.90    6.40
   1  -7  -7    8.20    8.50
   1  -7  -7   11.20    8.10
  -1  -7   7    3.90    6.70
  -1  -7   7   -3.20    6.60
  -1  -7   7    6.10    7.30
   1  -7  -7    1.30    7.70
   1  -7  -7    2.70    7.20
   1   7  -7   -2.20    6.70
  -1   7   7    8.70    7.80
  -1   7   7    7.90    8.30
  -1   7   7    5.40    8.30
   1   7  -7    2.10    6.10
   0  -7   7  189.28   15.80
   0  -7   7  175.08   14.20
   0  -7   7  173.68   14.60
   0  -7  -7  177.38   14.80
   0  -7  -7  175.18   14.10
   0  -7   7  167.88   15.00
   0  -7  -7  172.88   15.10
   0  -7  -7  179.08   14.60
   0   7   7  169.98   14.30
   0   7  -7  168.28   14.70
   0   7  -7  164.88   14.10
   0   7  -7  174.88   11.90
   0   7  -7  185.48   13.40
   0   7   7  169.08   14.50
   0   7   7  174.28   13.90
   0   7   7  179.78   13.90
  -1  -7  -7   49.20    9.00
  -1  -7  -7   38.70    8.90
   1  -7   7   45.40   10.30
   1  -7   7   46.00   10.50
   1  -7   7   41.90    9.50
  -1  -7  -7   42.20    8.00
  -1  -7  -7   31.50    8.60
   1  -7   7   35.20    9.80
   1   7   7   39.10    6.00
  -1   7  -7   43.00    8.70
   1   7   7   32.30    8.10
  -1   7  -7   51.69    9.50
   1   7   7   46.60    8.30
  -1   7  -7   50.49   10.00
   1   7   7   43.50    6.10
  -2  -7  -7  147.69   16.80
   2  -7   7  143.69   15.90
   2  -7   7  164.18   21.00
  -2  -7  -7  162.18   16.20
  -2  -7  -7  174.68   15.40
   2  -7   7  132.19   16.10
  -2  -7  -7  174.88   16.70
  -2   7  -7  179.08   21.00
   2   7   7  136.19   14.80
   2   7   7  138.19   15.00
  -2   7  -7  163.88   19.60
  -2   7  -7  172.38   19.50
  -2   7  -7  169.78   20.20
   3  -7   7   -3.80   16.20
   3  -7   7   12.50   16.00
   3  -7   7   -3.60   14.30
   3  -7   7    2.20   15.80
  -3  -7  -7    4.90   11.80
  -3  -7  -7   -7.80   11.20
  -3  -7  -7    3.30   10.70
  -3   7  -7   14.20   14.90
   3   7   7   11.40    9.90
  -3   7  -7    2.50   15.20
   3   7   7    4.80    8.50
  -3   7  -7    0.40   14.70
  -3   7  -7    3.60   15.50
   3  -8  -7   38.00   14.00
   3  -8  -7   48.90   16.90
   3  -8  -7   44.30   14.60
  -3  -8   7   37.60   10.50
   3  -8  -7   36.80   16.80
  -3   8   7   49.50   15.00
  -3   8   7   36.80   16.30
  -3   8   7   54.99   15.70
  -3   8   7   99.39   17.80
   2  -8  -7   22.40   11.00
   2  -8  -7   40.50   13.10
  -2  -8   7   43.10    7.10
   2  -8  -7   26.50   12.70
  -2  -8   7   24.90    8.20
  -2  -8   7   34.70    7.40
  -2  -8   7   33.00    8.80
  -2   8   7   27.90   11.00
   2   8  -7   33.30    6.10
   2   8  -7   29.70    6.70
  -2   8   7   18.40   10.80
  -2   8   7   39.60   12.20
  -2   8   7   27.40   11.70
   1  -8  -7    6.90    8.10
   1  -8  -7   11.80    7.70
   1  -8  -7   16.90    8.50
   1  -8  -7    7.60    9.40
  -1  -8   7   21.50    7.40
  -1  -8   7   18.20    7.30
  -1  -8   7    7.30    7.60
  -1  -8   7   14.50    8.10
  -1   8   7   10.50    8.30
   1   8  -7    2.20    6.20
   1   8  -7   16.00    6.90
  -1   8   7    8.10    8.70
  -1   8   7    3.10    9.00
   0  -8   7  176.28   14.90
   0  -8  -7  159.28   15.90
   0  -8   7  160.38   16.30
   0  -8   7  183.48   16.00
   0  -8  -7  172.58   14.60
   0  -8  -7  155.28   14.50
   0  -8   7  182.38   14.60
   0  -8  -7  152.48   15.20
   0   8   7  155.08   13.70
   0   8   7  173.98   13.90
   0   8   7  161.28   14.80
   0   8   7  167.28   15.10
   0   8  -7  164.98   11.80
   0   8  -7  152.58   15.10
   0   8  -7  177.68   13.30
   1  -8   7   -8.80    9.40
   1  -8   7    5.50    8.70
  -1  -8  -7    3.70    7.60
   1  -8   7   11.20    8.80
  -1  -8  -7  -13.20    7.70
  -1  -8  -7    0.10    8.00
   1  -8   7   10.70   10.00
  -1   8  -7    8.70    9.30
   1   8   7   -6.20    7.90
  -1   8  -7    3.70    9.60
  -1   8  -7    7.10    8.10
   1   8   7    4.40    4.50
   1   8   7    1.60    7.50
  -1   8  -7    3.40    8.90
  -2  -8  -7    6.60    8.50
  -2  -8  -7   -6.80    8.80
  -2  -8  -7    4.20   10.10
   2  -8   7    7.90   12.00
   2  -8   7   15.70   13.40
  -2  -8  -7   -6.50    8.90
   2  -8   7   -3.70   12.10
   2   8   7   -6.30    7.80
  -2   8  -7   -5.70   11.20
   2   8   7   -0.30    8.50
  -2   8  -7   21.90   11.90
  -2   8  -7    3.00   11.10
  -2   8  -7   -7.20   11.60
  -3  -8  -7    2.60   11.50
  -3  -8  -7   -9.00   12.00
   3  -8   7  -29.40   16.40
   3  -8   7   21.90   17.60
   3  -8   7   -1.30   16.90
  -3  -8  -7    7.30   10.80
   3  -8   7  -21.60   16.40
  -3   8  -7    1.70   15.10
   3   8   7    7.20    9.30
   3   8   7   13.50    8.30
  -3   8  -7   -2.10   16.40
  -3   8  -7   -1.00   16.80
  -3   8  -7   13.20   15.70
   3  -9  -7   17.70   17.50
   3  -9  -7   -2.30   14.80
   3  -9  -7    7.80   15.90
  -3  -9   7    7.10    9.90
   3  -9  -7    8.10   16.00
  -3   9   7   -6.80   16.70
  -3   9   7   28.60   15.70
  -3   9   7   28.80   17.10
  -3   9   7   19.00   16.50
  -2  -9   7  114.09   11.50
  -2  -9   7  109.49   11.50
   2  -9  -7   93.49   14.60
   2  -9  -7  112.29   14.10
   2  -9  -7  119.19   15.90
  -2   9   7  132.29   16.00
  -2   9   7  118.69   15.70
  -2   9   7  117.69   15.00
   1  -9  -7    5.30    9.00
  -1  -9   7   -4.90    8.40
  -1  -9   7    1.50    7.30
   1  -9  -7    0.50    9.50
   1  -9  -7   -5.90    9.70
  -1  -9   7   10.20    7.30
  -1  -9   7   -6.50    7.80
   1  -9  -7   -3.50    8.90
  -1   9   7   16.60    9.50
   1   9  -7   -3.70    6.80
  -1   9   7   -0.60    9.30
  -1   9   7   16.10   10.00
   0  -9  -7  403.96   22.80
   0  -9   7  424.26   22.50
   0  -9  -7  424.26   23.50
   0  -9   7  431.66   24.30
   0  -9   7  419.76   23.90
   0  -9  -7  403.56   22.90
   0  -9  -7  445.46   24.20
   0  -9   7  410.36   22.50
   0   9  -7  421.36   19.80
   0   9   7  422.26   23.20
   0   9  -7  446.36   20.60
   0   9   7  431.06   21.70
   0   9  -7  410.96   23.20
   0   9   7  401.86   21.60
   0   9   7  415.66   23.10
   1  -9   7    8.80   10.70
   1  -9   7    2.50    9.30
  -1  -9  -7    0.90    8.20
   1  -9   7   -2.00   10.20
  -1  -9  -7    1.90    8.30
   1  -9   7    7.80    9.00
  -1  -9  -7    2.70    8.00
  -1   9  -7   -3.30    9.00
   1   9   7    5.10    7.50
  -1   9  -7    0.80    8.30
  -1   9  -7    8.20    9.70
  -1   9  -7    5.00   10.30
   1   9   7    8.90    8.60
   2  -9   7   95.69   15.50
   2  -9   7   80.59   14.90
   2  -9   7   75.89   15.70
  -2  -9  -7   85.39   11.00
  -2  -9  -7   80.59   12.10
  -2  -9  -7   91.29   10.90
   2  -9   7  103.59   16.00
  -2  -9  -7  145.49   17.70
  -2   9  -7  106.79   15.60
  -2   9  -7   86.79   15.50
   2   9   7   99.39   10.60
  -2   9  -7  107.99   15.20
  -3  -9  -7   77.59   11.50
   3  -9   7   54.79   18.50
  -3  -9  -7   93.99   15.60
   3  -9   7   84.89   19.20
   3  -9   7   81.59   21.10
   3  -9   7   96.79   19.70
  -3  -9  -7   95.59   14.70
   3   9   7   85.79   10.40
  -3   9  -7   82.39   20.50
  -3   9  -7  112.69   19.50
  -3   9  -7  100.59   20.70
  -3   9  -7   92.09   19.10
   3 -10  -7  182.08   23.30
  -3 -10   7  185.18   18.60
   3 -10  -7  114.19   20.20
  -3 -10   7  180.38   19.10
   3 -10  -7  170.88   23.70
   3 -10  -7  203.68   23.40
  -3  10   7  198.58   23.90
  -3  10   7  149.88   21.60
  -3  10   7  167.08   23.30
  -3  10   7  206.18   22.60
   2 -10  -7  177.08   21.90
   2 -10  -7  192.68   24.40
  -2 -10   7  164.78   16.60
   2 -10  -7  199.18   22.30
   2 -10  -7  206.58   20.40
  -2 -10   7  168.88   18.10
  -2  10   7  205.58   20.30
  -2  10   7  196.28   19.30
  -2  10   7  210.18   24.10
   1 -10  -7  731.33   35.80
  -1 -10   7  747.53   34.80
   1 -10  -7  755.22   36.00
   1 -10  -7  764.52   36.80
  -1 -10   7  791.32   33.60
  -1 -10   7  724.23   32.30
  -1 -10   7  730.03   33.30
   1 -10  -7  776.32   36.90
  -1  10   7  747.43   36.30
  -1  10   7  707.83   35.90
   1  10  -7  700.03   32.50
   1  10  -7  752.52   32.90
  -1  10   7  782.72   35.20
  -1  10   7  710.93   36.20
   0 -10  -7  169.08   16.90
   0 -10   7  175.18   16.10
   0 -10   7  184.18   17.90
   0 -10  -7  174.18   16.90
   0 -10   7  176.78   19.30
   0 -10  -7  156.48   17.00
   0 -10   7  178.78   16.60
   0 -10  -7  180.78   18.60
   0  10  -7  177.98   12.60
   0  10  -7  190.48   12.00
   0  10   7  168.88   17.20
   0  10   7  163.78   14.60
   0  10   7  161.18   15.10
  -1 -10  -7  218.58   18.10
   1 -10   7  240.18   20.80
  -1 -10  -7  241.58   18.10
  -1 -10  -7  241.18   17.70
   1 -10   7  218.48   19.90
   1 -10   7  288.47   22.80
   1 -10   7  240.58   22.70
  -1 -10  -7  203.68   19.30
  -1  10  -7  231.28   18.90
   1  10   7  220.58   16.40
  -1  10  -7  241.08   20.30
  -1  10  -7  259.17   20.30
  -1  10  -7  272.07   21.70
   1  10   7  203.18   17.40
  -2 -10  -7   21.70   11.60
  -2 -10  -7   10.40    9.20
  -2 -10  -7   12.80    8.40
   2 -10   7    6.70   14.10
  -2 -10  -7   25.90   10.70
   2 -10   7   -0.70   14.20
   2 -10   7   25.70   16.00
   2 -10   7   -0.90   13.20
  -2  10  -7   25.90   13.20
  -2  10  -7  -13.70   14.10
   2  10   7    1.60    6.00
  -2  10  -7   21.00   14.80
   3 -10   7  142.99   23.10
  -3 -10  -7  195.28   24.30
   3 -10   7   88.79   21.70
  -3 -10  -7  135.09   17.40
  -3  10  -7  116.29   21.90
  -3  10  -7  116.09   22.40
  -3  10  -7  153.28   22.90
  -3  10  -7  174.88   22.30
   2 -11  -7  349.67   29.10
   2 -11  -7  280.87   29.00
  -2 -11   7  287.97   19.80
  -2 -11   7  265.07   22.60
   2 -11  -7  237.68   26.20
   2 -11  -7  249.18   26.90
  -2  11   7  335.97   29.50
  -2  11   7  325.47   26.10
  -2  11   7  289.97   26.20
  -2  11   7  290.27   27.30
   1 -11  -7   -6.20   10.60
  -1 -11   7   21.50   11.00
   1 -11  -7   12.70   11.30
   1 -11  -7   19.80   12.20
   1 -11  -7   13.60   10.80
  -1 -11   7   19.20    9.30
  -1 -11   7   18.60    7.70
  -1 -11   7   26.70    9.40
  -1  11   7   13.00   11.60
  -1  11   7   28.50   11.30
  -1  11   7   19.80   10.20
  -1  11   7   11.60   11.40
   1  11  -7    9.40    8.20
   0 -11  -7  965.70   43.70
   0 -11   7 1025.80   44.70
   0 -11  -7 1016.60   43.80
   0 -11   7 1032.00   44.50
   0 -11  -7 1050.39   44.90
   0 -11   7  876.21   42.80
   0 -11   7 1015.50   43.40
   0 -11  -7  959.80   43.60
   0  11   7  964.80   41.10
   0  11  -7  866.11   42.60
   0  11   7 1025.90   46.00
   0  11   7  996.10   41.20
  -1 -11  -7    3.50   10.90
  -1 -11  -7   16.50    9.50
   1 -11   7   23.70   13.20
  -1 -11  -7    1.20    9.90
   1 -11   7    9.90   11.90
   1 -11   7   -5.60   10.60
  -1 -11  -7    9.90    9.30
   1 -11   7   15.80   13.40
  -1  11  -7   13.60   12.10
  -1  11  -7  -10.10   10.60
  -1  11  -7   22.00   11.30
  -1  11  -7   20.30    9.90
  -2 -11  -7  286.07   22.60
   2 -11   7  318.47   30.30
   2 -11   7  347.57   31.20
   2 -11   7  264.27   28.50
  -2 -11  -7  278.87   19.10
  -2 -11  -7  261.97   18.20
   2 -11   7  240.08   29.00
   2  11   7  239.28   18.30
  -2  11  -7  288.77   28.30
  -2  11  -7  322.27   29.80
  -2  11  -7  307.87   28.00
   2 -12  -7   -5.60   14.10
   2 -12  -7   13.20   15.10
  -2 -12   7    8.20   12.10
   2 -12  -7    7.20   16.60
  -2 -12   7   34.20   11.20
   2 -12  -7   -0.90   16.20
  -2  12   7   18.50   16.30
  -2  12   7    9.70   15.70
  -2  12   7   49.00   15.60
  -2  12   7   34.30   15.50
   1 -12  -7  320.37   26.50
   1 -12  -7  353.26   27.10
  -1 -12   7  306.47   19.10
  -1 -12   7  295.57   21.60
  -1 -12   7  329.57   21.00
  -1 -12   7  317.37   23.70
   1 -12  -7  355.66   25.00
   1 -12  -7  313.17   25.50
   1  12  -7  314.57   19.50
  -1  12   7  328.47   25.50
  -1  12   7  378.66   26.30
  -1  12   7  325.27   25.50
  -1  12   7  333.07   23.50
   0 -12  -7  -14.00   10.60
   0 -12  -7   12.70   10.60
   0 -12   7   27.00   12.30
   0 -12  -7  -13.80   10.90
   0 -12   7    9.90   11.10
   0 -12  -7   24.30   11.70
   0 -12   7   -7.80   12.00
   0 -12   7   26.00   11.10
   0  12   7    6.70    7.80
   0  12   7    8.30    6.40
   0  12  -7   16.30    7.70
  -1 -12  -7  446.66   28.20
   1 -12   7  436.26   31.10
  -1 -12  -7  448.76   25.90
  -1 -12  -7  431.36   25.10
   1 -12   7  489.05   32.20
   1 -12   7  535.15   30.60
  -1 -12  -7  406.06   26.50
   1 -12   7  438.96   28.90
  -1  12  -7  463.05   29.00
  -1  12  -7  496.05   26.40
  -1  12  -7  427.66   30.50
  -1  12  -7  491.75   27.70
   1  12   7  420.96   26.00
  -2 -12  -7   71.39   10.10
  -2 -12  -7   88.89   11.20
   2 -12   7   83.69   21.40
   2 -12   7   99.89   18.80
   2 -12   7  111.79   21.60
  -2 -12  -7   92.49   14.70
   2 -12   7   77.19   18.80
  -2  12  -7   54.29   19.40
  -2  12  -7   95.59   17.40
  -2  12  -7  107.99   19.20
  -2  12  -7  126.39   18.20
   1 -13  -7   19.50   14.80
  -1 -13   7   33.40   11.80
  -1 -13   7   16.60    8.90
  -1 -13   7   20.70   13.10
  -1 -13   7   34.00   11.20
   1 -13  -7   39.30   14.10
   1 -13  -7   -3.10   14.90
   1 -13  -7    8.60   13.50
   1  13  -7   15.80    7.70
  -1  13   7   28.90   14.40
   1  13  -7   -2.10    8.80
  -1  13   7   13.80   12.60
  -1  13   7    3.10   11.10
  -1  13   7    7.60   13.40
   0 -13  -7  331.07   25.00
   0 -13  -7  281.67   24.10
   0 -13  -7  316.97   25.70
   0 -13   7  294.47   23.10
   0 -13  -7  326.37   26.80
   0 -13   7  338.27   25.30
   0 -13   7  307.67   26.00
   0 -13   7  345.67   25.00
   0  13   7  334.97   24.80
   0  13  -7  290.37   23.70
  -1 -13  -7   -9.00   10.30
  -1 -13  -7   -3.40   12.30
   1 -13   7  -13.40   12.80
   1 -13   7  -13.70   14.40
   1 -13   7  -23.20   14.80
  -1 -13  -7   21.30   13.50
   1 -13   7   -9.10   15.30
  -1 -13  -7  -20.00   11.20
   1  13   7   -3.00    8.30
   1  13   7  -17.30   11.40
  -1  13  -7   16.00   11.90
  -1  13  -7   14.80    8.80
  -1  13  -7  -15.10   10.20
  -1  13  -7    9.20   14.80
   1 -14  -7  135.79   20.30
   1 -14  -7  143.79   21.20
  -1 -14   7  101.39   16.60
  -1 -14   7   96.09   11.80
  -1 -14   7  113.19   13.70
   1 -14  -7  113.79   18.00
   1 -14  -7  101.59   18.70
  -1 -14   7  120.89   15.10
  -1  14   7  109.99   25.00
   1  14  -7  113.79   11.70
  -1  14   7  107.69   16.70
   0 -14   7    8.60   13.20
   0 -14  -7   -3.10   14.00
   0 -14  -7    7.20   14.00
   0 -14  -7   -4.00   14.60
   0 -14  -7    8.80   14.60
   0 -14   7   -0.20   15.00
   0 -14   7   10.50   12.40
   0 -14   7  -10.00   14.40
   0  14  -7  -11.70   12.10
   0  14   7   29.00   14.10
   0  14   7    0.90    9.40
   0  14  -7   -1.20   10.10
   1 -14   7  186.18   23.00
  -1 -14  -7  146.89   16.50
   1 -14   7  180.48   21.10
  -1 -14  -7  163.18   17.90
  -1 -14  -7  168.58   16.00
  -1 -14  -7  170.98   19.20
   1 -14   7  131.69   17.40
  -1  14  -7  152.28   15.70
   1  14   7  108.79   15.50
   4   0  -8   34.40   10.60
  -4   0   8   13.20   15.20
   4   0  -8    8.40   14.20
  -4   0   8   27.00   14.80
  -4   0   8   40.90   16.20
  -4   0   8   36.90   14.90
   4   0  -8   27.50   11.10
   3   0  -8 1819.42   73.79
  -3   0   8 1810.22   73.99
  -3   0   8 1922.41   74.19
  -3   0   8 1707.73   73.69
  -3   0   8 1798.32   73.79
   3   0  -8 1822.62   73.99
   3   0  -8 1792.32   71.89
   3   0  -8 1778.32   72.89
  -2   0   8  489.65   24.60
  -2   0   8  482.75   24.70
   2   0  -8  461.45   23.30
   2   0  -8  497.95   24.40
  -2   0   8  481.15   24.80
   2   0  -8  480.55   24.60
   2   0  -8  491.55   24.50
  -2   0   8  458.55   24.20
  -1   0   8  309.57   18.70
   1   0  -8  340.27   18.20
   1   0  -8  322.27   18.00
   1   0  -8  326.17   17.70
  -1   0   8  307.77   17.70
  -1   0   8  321.27   18.10
  -1   0   8  353.56   18.30
   1   0  -8  310.07   18.70
   0   0  -8 3140.49  122.19
   0   0   8 3169.88  122.59
   0   0   8 3167.78  122.19
   0   0  -8 3028.60  122.59
   0   0   8 3029.60  122.59
   0   0  -8 3332.27  122.89
   0   0   8 3174.88  122.69
   0   0  -8 3315.67  123.19
  -1   0  -8 1676.13   63.69
   1   0   8 1565.14   63.39
  -1   0  -8 1486.85   62.69
  -1   0  -8 1536.55   63.49
  -1   0  -8 1533.35   63.59
   1   0   8 1551.04   63.49
   1   0   8 1545.55   62.99
   1   0   8 1602.14   63.69
   2   0   8 1146.09   48.60
  -2   0  -8 1209.08   48.60
  -2   0  -8 1095.69   48.10
  -2   0  -8 1095.09   48.60
   2   0   8 1136.59   48.50
   2   0   8 1108.99   48.70
  -2   0  -8 1086.59   48.70
   2   0   8 1147.99   47.90
   3   0   8   36.30   11.30
  -3   0  -8   51.49   12.00
   3   0   8   35.50   13.10
   3   0   8   29.90   11.70
  -3   0  -8   35.90   12.40
  -3   0  -8   53.29   13.10
  -3   0  -8   32.50   12.30
   3   0   8   51.89   12.60
   4   0   8  170.28   18.80
  -4   0  -8  177.98   20.80
  -4   0  -8  195.28   20.40
  -4   0  -8  158.78   20.10
   4   0   8  174.58   26.30
  -4   0  -8  161.28   22.00
   4  -1  -8  248.08   22.10
  -4  -1   8  241.48   26.80
  -4  -1   8  256.67   26.60
  -4  -1   8  238.58   22.70
   4  -1  -8  215.78   26.90
  -4  -1   8  266.57   25.30
  -4   1   8  252.07   27.90
  -4   1   8  229.08   22.40
  -4   1   8  249.78   27.00
  -4   1   8  239.08   28.40
   4   1  -8  217.28   25.80
   3  -1  -8  109.09   13.70
   3  -1  -8  117.09   13.30
  -3  -1   8   99.79   13.30
  -3  -1   8  100.59   13.10
  -3  -1   8  123.89   13.50
   3  -1  -8  132.99   13.00
   3  -1  -8  125.89   13.90
  -3  -1   8  135.89   17.30
   3   1  -8  122.89   14.10
  -3   1   8  120.29   14.40
  -3   1   8  130.79   14.70
  -3   1   8  122.29   14.40
  -3   1   8  101.89   13.20
   3   1  -8  116.09   10.80
   3   1  -8  141.69   13.30
   2  -1  -8  944.11   41.50
  -2  -1   8  922.91   41.40
  -2  -1   8  982.00   42.00
   2  -1  -8 1029.80   42.60
  -2  -1   8  979.30   41.90
   2  -1  -8  977.90   42.00
   2  -1  -8  982.40   42.20
  -2  -1   8  981.90   41.90
   2   1  -8  973.10   41.70
   2   1  -8  994.30   42.10
  -2   1   8 1010.80   42.40
   2   1  -8  946.91   40.60
  -2   1   8  985.40   42.60
  -2   1   8  979.90   42.40
   2   1  -8  996.70   41.70
  -2   1   8  999.80   42.20
   1  -1  -8  771.22   33.60
  -1  -1   8  753.52   34.10
   1  -1  -8  767.52   33.90
  -1  -1   8  785.52   33.90
   1  -1  -8  772.52   34.10
   1  -1  -8  760.62   33.80
  -1  -1   8  788.92   33.80
  -1  -1   8  771.22   33.40
   1   1  -8  799.12   34.00
  -1   1   8  792.02   34.00
  -1   1   8  768.62   34.30
   1   1  -8  780.72   33.90
  -1   1   8  772.42   33.60
   1   1  -8  788.92   34.40
  -1   1   8  805.32   34.20
   1   1  -8  767.52   33.10
   0  -1  -8  466.95   23.50
   0  -1  -8  493.45   24.00
   0  -1  -8  490.85   23.70
   0  -1   8  468.05   24.00
   0  -1   8  479.55   23.30
   0  -1   8  467.65   23.60
   0  -1   8  480.05   23.50
   0  -1  -8  480.05   23.90
   0   1  -8  458.75   23.60
   0   1  -8  484.35   23.80
   0   1  -8  485.45   24.20
   0   1  -8  482.55   23.30
   0   1   8  508.75   23.60
   0   1   8  465.65   24.00
   0   1   8  490.55   23.80
   0   1   8  486.65   23.10
   1  -1   8 1033.80   43.30
   1  -1   8 1038.30   43.40
   1  -1   8  974.50   42.80
  -1  -1  -8 1031.20   43.00
   1  -1   8 1018.10   43.30
  -1  -1  -8 1017.40   43.30
  -1  -1  -8  994.40   42.60
  -1  -1  -8 1009.40   43.40
   1   1   8  996.80   42.40
   1   1   8  974.40   43.00
   1   1   8 1010.40   43.30
  -1   1  -8 1010.70   43.10
  -1   1  -8 1004.00   43.20
   1   1   8 1052.09   43.40
  -1   1  -8  963.30   42.50
  -1   1  -8 1002.00   43.50
   2  -1   8   -5.10    8.80
   2  -1   8    1.50    8.80
   2  -1   8   10.10    8.90
  -2  -1  -8   -1.40    8.60
  -2  -1  -8   10.70    9.50
  -2  -1  -8    0.00    7.70
   2  -1   8   24.90    9.60
  -2  -1  -8   -3.30    8.40
  -2   1  -8    4.40    9.10
   2   1   8   -1.80    8.00
   2   1   8   -4.40    9.10
   2   1   8   -6.00    8.70
  -2   1  -8    2.10    8.10
  -2   1  -8   10.60    8.50
  -2   1  -8   -0.20    8.60
   2   1   8    0.30    8.00
  -3  -1  -8  497.05   29.00
   3  -1   8  450.25   29.20
  -3  -1  -8  488.45   29.20
   3  -1   8  532.85   30.00
   3  -1   8  518.55   31.00
   3  -1   8  510.35   28.50
  -3  -1  -8  487.75   30.00
   3   1   8  461.25   29.70
   3   1   8  455.85   28.70
  -3   1  -8  504.25   30.50
  -3   1  -8  498.65   29.30
   3   1   8  536.95   28.40
  -3   1  -8  537.35   30.90
   3   1   8  502.25   26.60
  -3   1  -8  478.15   30.70
   4  -1   8  -12.10   13.10
   4  -1   8   52.99   19.40
  -4  -1  -8   29.90   17.40
   4  -1   8   80.69   17.30
   4  -1   8   -1.90   13.20
  -4  -1  -8   41.70   14.70
  -4  -1  -8   27.70   15.80
  -4  -1  -8   63.29   17.20
  -4   1  -8   13.10   18.50
   4   1   8   19.90   12.80
  -4   1  -8   36.70   17.30
  -4   1  -8   29.20   16.70
   4   1   8   57.29   14.30
  -4   1  -8   51.29   19.40
   4   1   8   48.20   23.90
   4   1   8   11.30   10.50
   4  -2  -8    1.10   14.50
   4  -2  -8   15.10   15.10
  -4  -2   8   -5.00   15.10
   4  -2  -8  -12.40   12.30
   4  -2  -8   17.40   12.60
  -4  -2   8    7.60   15.30
  -4  -2   8    7.70   14.80
  -4  -2   8    6.80   14.00
  -4   2   8    2.40   15.70
  -4   2   8  -19.40   15.70
  -4   2   8    8.20   15.90
   4   2  -8    7.70    9.80
  -4   2   8  -18.50   15.70
   4   2  -8    8.60   13.30
   3  -2  -8  121.39   13.30
  -3  -2   8   95.39   12.70
   3  -2  -8   81.29   13.20
   3  -2  -8  106.49   13.90
  -3  -2   8   88.99   12.10
  -3  -2   8  115.39   12.40
  -3  -2   8   91.99   12.50
   3  -2  -8  103.09   13.60
  -3   2   8  103.69   14.10
  -3   2   8   79.69   13.60
  -3   2   8   96.09   13.90
   3   2  -8   95.19   11.20
  -3   2   8  111.69   14.30
   3   2  -8   95.19   10.40
  -2  -2   8  374.66   20.90
  -2  -2   8  363.56   20.70
  -2  -2   8  347.97   20.50
   2  -2  -8  404.96   21.20
  -2  -2   8  337.87   20.10
   2  -2  -8  388.56   21.90
   2  -2  -8  360.56   21.50
   2  -2  -8  386.96   21.30
  -2   2   8  368.46   21.80
  -2   2   8  365.36   21.30
   2   2  -8  373.36   18.50
  -2   2   8  357.26   21.60
   2   2  -8  354.76   20.40
   2   2  -8  329.57   20.00
  -2   2   8  380.46   22.30
   2   2  -8  395.66   20.70
   1  -2  -8  119.29   12.60
  -1  -2   8  118.09   11.70
  -1  -2   8  101.19   12.30
   1  -2  -8  110.09   12.80
  -1  -2   8   99.49   11.80
   1  -2  -8  118.29   12.10
   1  -2  -8  126.89   12.60
  -1  -2   8  113.89   12.00
  -1   2   8  123.39   12.90
  -1   2   8  126.89   13.10
   1   2  -8  107.49   12.10
  -1   2   8  125.39   12.40
   1   2  -8  116.09   11.20
   1   2  -8  123.59   12.20
   1   2  -8  114.99   10.90
  -1   2   8  135.99   12.70
   0  -2  -8 1657.13   64.59
   0  -2  -8 1512.35   64.19
   0  -2   8 1584.54   64.49
   0  -2   8 1615.24   64.19
   0  -2   8 1702.03   64.79
   0  -2  -8 1635.74   64.39
   0  -2  -8 1604.64   64.29
   0  -2   8 1573.84   64.49
   0   2  -8 1582.54   64.79
   0   2   8 1644.84   64.49
   0   2  -8 1551.04   64.59
   0   2  -8 1609.54   64.59
   0   2   8 1636.44   64.59
   0   2  -8 1588.64   63.99
   0   2   8 1599.34   63.99
   0   2   8 1584.44   64.39
   1  -2   8   12.20    7.50
  -1  -2  -8    5.00    7.10
  -1  -2  -8   14.50    8.00
  -1  -2  -8   14.10    7.20
   1  -2   8    4.60    7.30
  -1  -2  -8   14.70    6.90
   1  -2   8    7.50    8.00
   1  -2   8   11.00    7.20
   1   2   8   10.40    7.20
  -1   2  -8   18.00    8.20
  -1   2  -8   10.20    7.70
   1   2   8   13.80    7.30
  -1   2  -8    4.70    6.70
  -1   2  -8   11.40    7.50
   1   2   8    7.20    7.60
   1   2   8    7.30    7.50
  -2  -2  -8  423.76   24.10
   2  -2   8  442.26   25.20
   2  -2   8  430.86   25.30
   2  -2   8  443.56   25.00
  -2  -2  -8  419.76   23.70
  -2  -2  -8  420.56   25.10
   2  -2   8  454.85   25.40
  -2  -2  -8  442.16   25.20
  -2   2  -8  434.76   24.70
   2   2   8  467.85   24.30
   2   2   8  419.36   24.10
  -2   2  -8  466.75   25.20
   2   2   8  427.56   22.60
   2   2   8  419.06   24.70
  -2   2  -8  432.76   25.00
  -2   2  -8  426.16   25.60
   3  -2   8   46.40   12.90
   3  -2   8   70.39   14.20
   3  -2   8   52.99   14.40
   3  -2   8   33.50   13.10
  -3  -2  -8   68.59   14.00
  -3  -2  -8   42.80   12.70
  -3  -2  -8   42.10   12.00
  -3   2  -8   52.19   12.90
  -3   2  -8   50.09   13.20
   3   2   8   51.79   11.40
  -3   2  -8   62.79   14.70
  -3   2  -8   50.19   13.20
   3   2   8   43.20    9.70
   3   2   8   50.89   12.50
  -4  -2  -8  204.68   23.00
  -4  -2  -8  223.38   24.60
   4  -2   8  257.07   28.20
   4  -2   8  237.08   25.70
   4  -2   8  192.78   24.10
  -4  -2  -8  217.88   21.90
  -4  -2  -8  223.78   22.60
  -4   2  -8  206.28   24.00
  -4   2  -8  208.68   22.80
  -4   2  -8  178.78   23.60
   4   2   8  209.28   20.20
  -4   2  -8  174.68   23.00
  -4  -3   8   81.39   15.40
   4  -3  -8   79.09   15.60
   4  -3  -8   23.30   15.70
  -4  -3   8   95.59   16.80
   4  -3  -8   73.89   16.80
  -4  -3   8   93.79   15.80
  -4  -3   8   75.39   16.10
  -4   3   8   45.00   16.80
   4   3  -8   66.69   15.10
  -4   3   8   89.49   19.70
  -4   3   8   85.39   19.10
  -4   3   8   92.09   18.50
  -3  -3   8  171.48   18.00
   3  -3  -8  117.19   14.40
   3  -3  -8  145.89   15.60
  -3  -3   8  136.79   17.00
   3  -3  -8  144.19   15.20
   3  -3  -8  147.39   15.80
  -3  -3   8  149.99   17.60
  -3  -3   8  178.28   18.50
   3   3  -8  138.69   16.00
  -3   3   8  146.29   15.80
  -3   3   8  128.49   15.50
  -3   3   8  130.19   15.50
  -3   3   8  127.09   15.90
   2  -3  -8  245.28   18.70
  -2  -3   8  264.07   17.40
  -2  -3   8  263.07   16.90
   2  -3  -8  248.18   18.60
   2  -3  -8  258.37   18.70
  -2  -3   8  280.47   17.40
   2  -3  -8  274.87   19.20
  -2  -3   8  284.37   17.70
  -2   3   8  217.88   18.70
   2   3  -8  250.67   15.30
   2   3  -8  258.17   13.90
  -2   3   8  274.47   19.40
   2   3  -8  272.67   17.40
  -2   3   8  262.17   19.00
  -2   3   8  266.97   19.50
   1  -3  -8   67.19    9.20
  -1  -3   8   65.99    8.20
   1  -3  -8   62.39    9.20
   1  -3  -8   53.19    8.60
  -1  -3   8   58.39    8.70
  -1  -3   8   75.39    9.40
   1  -3  -8   46.50    7.30
  -1  -3   8   56.49    8.60
   1   3  -8   62.29    9.00
   1   3  -8   67.79    8.90
   1   3  -8   63.49    7.20
  -1   3   8   39.40    7.70
  -1   3   8   69.69    9.40
   1   3  -8   56.99    8.20
  -1   3   8   51.59    8.60
   0  -3   8  121.09   12.30
   0  -3  -8   94.49   11.40
   0  -3  -8  114.59   11.60
   0  -3  -8  105.29   12.70
   0  -3   8  106.89   12.60
   0  -3   8   97.19   12.40
   0  -3   8  111.69   12.50
   0   3   8  107.99   12.30
   0   3  -8  109.49   12.30
   0   3  -8  108.09   12.90
   0   3  -8  107.79   12.40
   0   3  -8  121.99   13.20
   0   3   8   98.89   12.70
   0   3   8  104.29   11.80
   0   3   8  117.29   12.60
   1  -3   8  204.98   16.60
  -1  -3  -8  220.78   16.10
  -1  -3  -8  210.58   15.70
  -1  -3  -8  198.98   15.40
  -1  -3  -8  193.78   15.90
   1  -3   8  213.08   16.30
   1  -3   8  229.08   16.80
   1  -3   8  193.48   15.70
  -1   3  -8  195.78   16.00
   1   3   8  200.68   15.50
  -1   3  -8  212.28   16.00
  -1   3  -8  202.68   16.40
   1   3   8  175.58   15.60
   1   3   8  206.68   16.10
   1   3   8  194.18   14.80
  -1   3  -8  229.18   16.80
  -2  -3  -8   33.90   10.10
  -2  -3  -8   28.90    9.00
  -2  -3  -8   29.90    9.90
   2  -3   8   38.70   10.10
  -2  -3  -8   35.60    8.40
   2  -3   8   23.00   10.50
   2  -3   8   39.80   11.10
   2  -3   8   38.20   10.70
   2   3   8   33.90   10.60
  -2   3  -8   36.00   10.30
   2   3   8   22.70    9.50
  -2   3  -8   28.30   10.10
   2   3   8   26.70    8.10
  -2   3  -8   38.30   10.30
  -2   3  -8   23.70    9.80
   2   3   8   19.40    8.80
  -3  -3  -8   17.00   12.20
   3  -3   8   -3.00   11.90
   3  -3   8    6.90   13.10
  -3  -3  -8   -3.60   10.70
   3  -3   8  -11.00   11.60
   3  -3   8    6.80   12.10
  -3  -3  -8    4.90   11.50
  -3   3  -8   12.80   12.10
   3   3   8   -7.50   11.10
  -3   3  -8    1.90   12.40
  -3   3  -8   -6.40   12.90
   3   3   8   -8.00    7.90
  -3   3  -8   13.60   12.50
   3   3   8   13.50    9.30
  -4  -4   8   46.00   14.90
  -4  -4   8   25.00   15.30
   4  -4  -8   67.09   18.60
   4  -4  -8   54.39   15.70
   4  -4  -8   29.40   19.00
   4  -4  -8   39.10   17.40
  -4  -4   8   57.19   13.80
  -4  -4   8   60.99   15.60
  -4   4   8   39.00   17.40
  -4   4   8   40.30   19.40
   4   4  -8   11.70   10.30
  -4   4   8   47.40   18.20
  -4   4   8   26.50   17.80
   4   4  -8   14.80   13.50
   3  -4  -8   88.89   14.70
  -3  -4   8  107.89   12.50
   3  -4  -8   93.69   13.80
  -3  -4   8   82.29   12.40
  -3  -4   8   96.59   11.70
   3  -4  -8  105.89   15.10
  -3  -4   8  105.19   12.40
   3  -4  -8  113.69   15.20
  -3   4   8  105.59   15.20
  -3   4   8   87.49   15.20
   3   4  -8  119.49   14.60
  -3   4   8   95.69   14.80
  -3   4   8   67.19   13.70
  -2  -4   8   49.10    8.50
   2  -4  -8   26.80    9.70
   2  -4  -8   41.10    9.60
  -2  -4   8   45.40    9.50
   2  -4  -8   37.30   10.10
   2  -4  -8   32.30   10.10
  -2  -4   8   29.50    8.30
   2   4  -8   46.70    9.00
  -2   4   8   33.40    9.10
  -2   4   8   42.60   10.30
  -2   4   8   36.50   10.00
  -2   4   8   45.30    9.90
   2   4  -8   48.20    7.90
  -1  -4   8  115.59   12.90
   1  -4  -8  115.29   13.00
  -1  -4   8  110.79   12.40
   1  -4  -8  117.09   13.60
   1  -4  -8  114.39   13.80
   1  -4  -8  118.09   11.30
  -1  -4   8  129.09   13.00
  -1  -4   8  116.29   12.10
   1   4  -8  116.69   10.10
   1   4  -8  103.19   12.40
  -1   4   8  116.09   13.10
  -1   4   8  117.99   13.50
   1   4  -8   95.59   10.80
  -1   4   8  111.59   14.10
   1   4  -8  118.99   11.00
   0  -4   8   19.50    7.30
   0  -4   8   12.30    6.90
   0  -4  -8   13.50    7.10
   0  -4   8   11.30    7.20
   0  -4  -8    6.60    6.40
   0  -4  -8    3.20    6.70
   0  -4   8   10.80    7.00
   0  -4  -8   11.90    6.80
   0   4   8    5.50    7.20
   0   4  -8    8.60    7.30
   0   4  -8   11.60    7.70
   0   4   8   11.50    7.30
   0   4  -8   20.10    6.90
   0   4   8   16.70    6.70
   0   4   8   12.00    6.90
   0   4  -8    9.50    6.80
  -1  -4  -8   -7.30    8.20
   1  -4   8   -3.60    8.00
   1  -4   8   -4.20    7.70
  -1  -4  -8    0.20    6.70
   1  -4   8    6.60    7.60
   1  -4   8    0.50    7.40
  -1  -4  -8    6.00    7.30
  -1  -4  -8    1.90    7.20
  -1   4  -8   20.60    8.10
   1   4   8    4.80    7.30
  -1   4  -8    8.00    7.80
   1   4   8    3.20    7.10
  -1   4  -8   11.30    7.90
  -1   4  -8    2.20    7.50
   1   4   8    6.10    6.60
   1   4   8   -0.10    7.50
  -2  -4  -8   33.20    9.70
  -2  -4  -8   25.10    9.10
   2  -4   8   27.90   11.10
   2  -4   8   21.80   11.00
  -2  -4  -8   23.20    9.10
   2  -4   8   18.90   11.00
  -2  -4  -8   24.10   10.20
   2  -4   8   26.90   10.90
   2   4   8   23.00    8.40
   2   4   8    4.00    9.80
  -2   4  -8   28.00   10.10
   2   4   8   28.90    7.10
  -2   4  -8   44.10   11.20
  -2   4  -8   38.40   11.10
   2   4   8   18.60    9.20
  -3  -4  -8    3.70   10.50
   3  -4   8   21.90   14.00
  -3  -4  -8    5.80   11.80
  -3  -4  -8   13.60   12.40
   3  -4   8   16.00   12.10
   3  -4   8   22.40   13.20
   3   4   8    0.00    9.30
  -3   4  -8   25.80   13.20
  -3   4  -8   -9.10   13.20
  -3   4  -8   19.20   15.20
   3   4   8   25.90    7.40
  -3   4  -8   11.80   13.90
   3  -5  -8   -8.30   12.10
  -3  -5   8    2.20   10.10
  -3  -5   8   12.30   10.00
  -3  -5   8  -12.10    9.80
   3  -5  -8   11.40   11.60
  -3  -5   8   -0.60    8.70
   3  -5  -8   -1.70   11.90
  -3   5   8  -19.50   12.00
  -3   5   8    4.80   12.30
  -3   5   8    3.70   12.70
   3   5  -8    2.10    6.00
  -3   5   8    0.60   11.80
   2  -5  -8    1.80    9.10
  -2  -5   8   12.70    8.30
  -2  -5   8   13.30    7.70
   2  -5  -8   15.60    8.60
   2  -5  -8    9.10    9.30
  -2  -5   8   10.30    8.50
   2  -5  -8    7.50    9.00
  -2   5   8    8.90   10.30
  -2   5   8    7.10   10.30
   2   5  -8    4.10    8.80
   2   5  -8    5.60    6.70
  -2   5   8   17.10    9.70
  -2   5   8    7.00    9.20
  -1  -5   8  270.77   17.40
   1  -5  -8  260.67   18.30
  -1  -5   8  260.27   16.60
   1  -5  -8  252.67   17.10
   1  -5  -8  237.58   17.50
  -1  -5   8  265.47   16.30
   1  -5  -8  241.88   16.70
  -1  -5   8  241.78   16.30
  -1   5   8  251.47   17.80
   1   5  -8  224.38   17.50
   1   5  -8  272.27   13.30
   1   5  -8  261.17   13.40
  -1   5   8  221.18   17.40
  -1   5   8  247.28   17.60
   0  -5  -8   75.89    8.90
   0  -5   8   73.09    9.90
   0  -5  -8   84.59    9.70
   0  -5   8   62.89    9.60
   0  -5  -8   83.39   10.60
   0  -5  -8  100.59   10.60
   0  -5   8   75.09   10.40
   0  -5   8   78.19    9.50
   0   5  -8   94.39   10.90
   0   5  -8   73.19    8.50
   0   5  -8   92.19   11.90
   0   5   8   87.29   10.70
   0   5   8   73.89    9.00
   0   5  -8   96.99   11.10
   0   5   8   70.59    9.40
   0   5   8   99.09   10.10
   1  -5   8   62.09   10.30
   1  -5   8   74.09   11.50
  -1  -5  -8   87.09   10.50
  -1  -5  -8   80.79   10.10
  -1  -5  -8   63.79   10.10
   1  -5   8   73.59   10.50
   1  -5   8   86.39   11.40
  -1  -5  -8   95.29   10.50
   1   5   8   89.69    9.50
  -1   5  -8   77.29   11.00
  -1   5  -8   83.29   11.00
   1   5   8   85.99   11.00
   1   5   8   77.69    9.10
  -1   5  -8   83.09   10.60
   1   5   8   63.99    9.30
  -1   5  -8   57.29    9.40
   2  -5   8    3.10   10.90
   2  -5   8   18.90   11.90
  -2  -5  -8   31.40    9.70
  -2  -5  -8   36.50    9.40
  -2  -5  -8   22.20    9.30
  -2  -5  -8   14.20    9.90
   2  -5   8   27.70   11.00
   2  -5   8   31.70   11.70
   2   5   8   16.50    6.10
   2   5   8   25.40    9.70
   2   5   8   24.80    7.10
  -2   5  -8   25.00   10.90
  -2   5  -8   20.80   10.90
  -2   5  -8   17.70   10.80
  -3  -5  -8  120.09   15.90
   3  -5   8  130.79   19.40
  -3  -5  -8  179.68   20.80
   3  -5   8  103.49   16.30
  -3  -5  -8  122.59   15.50
   3  -5   8  127.39   18.40
   3  -5   8  164.98   19.70
  -3   5  -8  149.59   18.80
  -3   5  -8  135.99   17.60
  -3   5  -8  126.49   16.40
   3   5   8  123.39   14.70
   3  -6  -8  153.18   18.10
   3  -6  -8  160.28   17.90
   3  -6  -8  170.98   18.80
  -3  -6   8  144.69   17.80
  -3  -6   8  147.99   17.50
  -3  -6   8  175.28   15.70
  -3  -6   8  138.49   17.80
   3  -6  -8  134.69   16.80
  -3   6   8  164.88   18.30
   3   6  -8  157.38   18.10
  -3   6   8  169.08   18.60
  -3   6   8  159.68   18.30
  -2  -6   8  515.75   26.00
  -2  -6   8  508.75   25.00
   2  -6  -8  521.15   27.90
   2  -6  -8  522.25   27.90
  -2  -6   8  506.95   25.50
   2  -6  -8  530.35   29.40
  -2  -6   8  480.55   24.60
   2  -6  -8  538.95   29.20
   2   6  -8  516.15   24.10
  -2   6   8  503.75   28.60
   2   6  -8  448.26   26.40
  -2   6   8  561.54   28.80
  -2   6   8  518.35   29.00
  -2   6   8  519.45   29.40
  -1  -6   8 1141.49   45.80
   1  -6  -8 1088.69   46.50
  -1  -6   8 1005.90   46.00
   1  -6  -8 1058.99   46.60
   1  -6  -8 1165.58   47.30
   1  -6  -8 1145.19   47.40
  -1  -6   8 1097.89   45.60
  -1  -6   8 1115.39   45.80
  -1   6   8 1108.99   46.90
  -1   6   8 1146.59   47.00
   1   6  -8 1034.30   42.50
   1   6  -8 1058.89   46.40
   1   6  -8 1078.69   42.80
  -1   6   8 1135.19   47.00
   1   6  -8 1074.09   45.60
   0  -6  -8  878.91   38.40
   0  -6  -8  884.91   38.70
   0  -6   8  894.11   38.50
   0  -6   8  864.11   39.40
   0  -6  -8  912.51   39.30
   0  -6   8  891.11   39.40
   0  -6   8  886.11   39.20
   0  -6  -8  913.91   39.20
   0   6  -8  898.91   38.00
   0   6   8  922.71   38.40
   0   6   8  901.01   39.10
   0   6  -8  876.21   39.30
   0   6  -8  910.71   39.30
   0   6   8  920.21   38.50
   0   6   8  901.91   39.00
   0   6  -8  856.51   37.30
   1  -6   8   82.89   11.50
  -1  -6  -8  115.39   12.00
  -1  -6  -8  105.29   11.30
   1  -6   8  106.49   12.90
  -1  -6  -8   99.99   11.50
   1  -6   8  102.79   11.80
   1  -6   8  122.49   12.90
  -1  -6  -8  109.69   11.20
  -1   6  -8  117.79   15.20
  -1   6  -8  109.69   11.70
  -1   6  -8   83.99   11.40
   1   6   8  104.29   11.80
  -1   6  -8   94.89   11.40
   1   6   8   92.49   11.30
   1   6   8  100.29    9.60
   1   6   8   96.69    9.40
  -2  -6  -8  233.78   19.10
   2  -6   8  275.97   22.30
  -2  -6  -8  266.37   19.00
  -2  -6  -8  232.38   19.70
   2  -6   8  254.07   23.00
   2  -6   8  235.38   22.70
  -2  -6  -8  235.88   20.00
   2   6   8  220.18   18.80
  -2   6  -8  249.78   21.90
  -2   6  -8  256.57   21.60
  -2   6  -8  212.08   22.60
   2   6   8  232.58   18.50
  -2   6  -8  225.58   22.30
  -3  -6  -8   15.30   11.90
   3  -6   8   -4.20   16.00
   3  -6   8   10.40   15.40
  -3  -6  -8   11.80   12.50
  -3  -6  -8    1.10   11.30
   3  -6   8   10.10   12.40
   3  -6   8  -26.80   13.90
  -3   6  -8    1.20   13.00
  -3   6  -8   25.60   19.80
  -3   6  -8    4.00   13.40
   3   6   8   -1.90    8.60
  -3   6  -8   -5.30   13.90
   3   6   8   17.00   11.50
   3  -7  -8   41.80   14.00
  -3  -7   8   39.30   10.70
   3  -7  -8   27.10   14.30
  -3  -7   8   41.90    8.80
   3  -7  -8   31.80   15.40
  -3  -7   8   38.80   11.00
   3  -7  -8   57.29   14.80
  -3   7   8   62.69   15.40
   3   7  -8   34.50   10.90
  -3   7   8   12.80   14.20
  -3   7   8   29.60   14.90
  -3   7   8   21.60   14.00
   2  -7  -8  292.57   23.70
  -2  -7   8  285.17   18.90
   2  -7  -8  262.77   22.10
  -2  -7   8  297.77   17.60
   2  -7  -8  306.67   23.50
  -2  -7   8  299.57   19.10
  -2  -7   8  256.67   18.10
   2   7  -8  303.97   16.60
  -2   7   8  299.87   23.20
  -2   7   8  280.17   22.90
   2   7  -8  272.97   19.10
  -2   7   8  321.37   22.80
  -2   7   8  267.57   22.80
  -1  -7   8  745.33   33.60
   1  -7  -8  738.93   35.20
  -1  -7   8  741.23   33.20
   1  -7  -8  751.82   34.70
   1  -7  -8  700.13   34.20
  -1  -7   8  777.52   33.80
  -1  -7   8  759.52   33.40
   1  -7  -8  752.32   35.30
   1   7  -8  772.12   33.10
  -1   7   8  741.73   34.90
   1   7  -8  741.53   33.70
  -1   7   8  749.92   35.20
  -1   7   8  757.02   34.70
  -1   7   8  714.93   34.70
   0  -7  -8  383.76   21.70
   0  -7   8  386.16   21.60
   0  -7  -8  397.36   21.10
   0  -7  -8  397.26   22.40
   0  -7   8  375.96   21.00
   0  -7   8  360.06   22.40
   0  -7  -8  389.26   21.20
   0  -7   8  398.46   22.10
   0   7  -8  370.16   19.10
   0   7   8  351.66   21.50
   0   7   8  375.36   20.60
   0   7  -8  373.96   21.90
   0   7  -8  319.57   21.10
   0   7   8  361.56   20.70
   0   7  -8  385.86   20.10
   0   7   8  369.36   21.30
   1  -7   8 1101.29   47.30
   1  -7   8 1095.89   47.80
   1  -7   8 1065.19   47.00
  -1  -7  -8 1036.40   45.20
  -1  -7  -8 1103.69   45.80
   1  -7   8 1025.20   46.40
  -1  -7  -8 1063.59   45.80
  -1  -7  -8 1035.40   46.00
   1   7   8 1032.90   43.30
  -1   7  -8 1083.19   46.80
  -1   7  -8 1167.68   46.90
   1   7   8 1086.19   43.30
  -1   7  -8 1044.00   45.80
   1   7   8 1046.70   45.70
   2  -7   8   10.70   12.60
   2  -7   8   -1.00   11.60
  -2  -7  -8   -3.50    9.80
   2  -7   8   -3.20   12.10
  -2  -7  -8  -17.70    9.80
  -2  -7  -8   -6.20    8.90
  -2  -7  -8   11.30    9.80
  -2   7  -8   16.10   12.30
  -2   7  -8    9.90   11.60
  -2   7  -8    8.60   11.60
   2   7   8   -4.30    8.70
   2   7   8  -17.60    8.50
  -2   7  -8   -1.00   11.90
  -3  -7  -8  359.56   25.10
   3  -7   8  324.87   31.80
   3  -7   8  361.16   32.20
  -3  -7  -8  333.37   27.10
   3  -7   8  327.57   32.70
  -3  -7  -8  343.27   25.70
   3  -7   8  415.66   32.80
  -3   7  -8  396.36   32.20
  -3   7  -8  342.77   30.70
  -3   7  -8  359.46   33.00
   3   7   8  346.87   23.70
  -3   7  -8  425.26   31.10
   3  -8  -8  271.97   30.10
   3  -8  -8  226.68   26.50
  -3  -8   8  300.37   21.00
   3  -8  -8  257.97   28.00
   3  -8  -8  256.17   30.30
  -3   8   8  303.57   29.40
  -3   8   8  306.67   28.70
  -3   8   8  217.38   28.00
  -3   8   8  254.47   29.40
   2  -8  -8  410.16   27.60
  -2  -8   8  376.26   21.50
  -2  -8   8  367.66   20.80
  -2  -8   8  406.96   22.40
  -2  -8   8  385.76   20.10
   2  -8  -8  351.36   27.20
   2  -8  -8  371.46   25.00
  -2   8   8  428.46   27.60
  -2   8   8  368.46   26.80
  -2   8   8  380.46   26.60
   2   8  -8  364.66   20.70
   2   8  -8  375.36   19.30
  -1  -8   8  955.90   39.40
  -1  -8   8  843.52   39.30
   1  -8  -8  906.21   41.30
  -1  -8   8  925.21   39.20
  -1  -8   8  917.51   40.00
   1  -8  -8  933.01   42.10
   1  -8  -8  928.71   41.20
   1  -8  -8  880.91   40.70
   1   8  -8  917.61   39.00
  -1   8   8  930.31   41.20
  -1   8   8  913.71   41.30
  -1   8   8  969.80   41.30
   1   8  -8  894.51   39.00
  -1   8   8  812.92   40.10
   0  -8  -8  604.94   29.70
   0  -8   8  602.74   29.80
   0  -8  -8  596.44   30.50
   0  -8  -8  622.44   29.90
   0  -8   8  644.14   30.60
   0  -8   8  574.14   30.50
   0  -8  -8  630.64   29.40
   0  -8   8  622.94   29.60
   0   8   8  608.44   29.90
   0   8  -8  629.24   27.80
   0   8   8  627.94   28.70
   0   8  -8  588.94   29.60
   0   8   8  591.94   28.60
   0   8  -8  601.64   27.10
   0   8  -8  617.74   30.00
   0   8   8  614.74   30.00
   1  -8   8  111.09   13.00
  -1  -8  -8  125.19   12.90
   1  -8   8  136.89   14.10
  -1  -8  -8  116.49   12.10
  -1  -8  -8  129.29   12.90
   1  -8   8  113.79   14.90
   1  -8   8  143.09   15.30
   1   8   8   97.99   10.80
   1   8   8  130.09   15.70
  -1   8  -8  143.19   17.20
   1   8   8  105.79   10.60
   1   8   8  109.79   12.00
  -1   8  -8  112.89   12.40
  -1   8  -8  127.19   14.00
  -2  -8  -8  301.07   22.30
   2  -8   8  275.77   25.10
   2  -8   8  283.67   26.50
  -2  -8  -8  236.38   20.20
   2  -8   8  298.87   25.50
  -2  -8  -8  263.47   19.80
  -2  -8  -8  244.08   21.30
  -2   8  -8  246.58   24.20
   2   8   8  265.07   19.30
  -2   8  -8  278.37   25.70
  -2   8  -8  287.57   25.90
  -3  -8  -8    8.10   14.00
   3  -8   8  -13.90   19.80
  -3  -8  -8   18.00   12.40
   3  -8   8  -27.10   17.40
  -3  -8  -8    6.40   11.90
   3  -8   8   38.20   17.90
   3  -8   8   16.60   17.00
  -3   8  -8  -12.10   16.10
   3   8   8    5.30    9.30
   3   8   8  -15.50   10.50
  -3   8  -8    6.80   18.90
  -3   8  -8  -14.30   15.90
  -3   8  -8    3.80   17.60
   3  -9  -8    1.30   13.10
   3  -9  -8   25.90   17.30
   3  -9  -8   30.30   16.70
  -3  -9   8   14.50   11.50
  -3  -9   8   42.10   12.00
   3  -9  -8  -28.10   17.30
  -3   9   8   12.10   17.50
  -3   9   8   21.10   15.90
  -3   9   8   42.90   17.40
  -3   9   8   13.70   17.20
  -2  -9   8  137.19   13.50
   2  -9  -8  184.38   18.70
  -2  -9   8  151.38   13.70
  -2  -9   8  172.28   17.10
  -2  -9   8  143.89   13.50
   2  -9  -8  139.49   17.60
   2  -9  -8  136.19   15.40
   2   9  -8  103.59   11.60
   2   9  -8  141.19   12.30
  -2   9   8  209.18   22.40
  -2   9   8  123.89   16.40
  -2   9   8  182.08   18.30
  -1  -9   8  589.54   28.10
   1  -9  -8  601.44   31.70
  -1  -9   8  569.74   29.10
   1  -9  -8  600.34   30.80
  -1  -9   8  594.44   28.00
   1  -9  -8  507.55   29.50
   1  -9  -8  567.14   29.60
  -1  -9   8  576.94   27.30
  -1   9   8  579.64   30.50
  -1   9   8  531.35   29.20
  -1   9   8  561.74   30.30
   1   9  -8  548.25   27.20
  -1   9   8  593.04   30.60
   1   9  -8  548.05   27.00
   0  -9   8    2.70   10.40
   0  -9  -8   23.30   10.00
   0  -9   8   29.90   10.70
   0  -9  -8   18.60   10.30
   0  -9  -8   15.60    8.90
   0  -9   8   23.50    9.10
   0  -9  -8   21.10    9.50
   0  -9   8   25.70    9.30
   0   9  -8   17.90    7.50
   0   9  -8   19.90    6.50
   0   9   8   27.90    9.80
   0   9   8   20.90    9.20
   0   9   8   24.50    8.60
   0   9   8   22.60    8.70
   0   9  -8   12.90   10.20
   1  -9   8  831.02   41.00
  -1  -9  -8  845.82   38.80
  -1  -9  -8  862.11   38.30
  -1  -9  -8  870.31   38.30
   1  -9   8  838.72   41.30
   1  -9   8  862.31   40.40
   1  -9   8  791.82   39.70
   1   9   8  837.02   37.80
  -1   9  -8  940.41   40.10
  -1   9  -8  777.92   39.80
  -1   9  -8  863.11   41.30
  -1   9  -8  889.81   38.70
  -2  -9  -8    6.70   10.00
   2  -9   8    7.50   13.70
   2  -9   8   12.80   13.80
  -2  -9  -8   -7.80   10.80
  -2  -9  -8    4.90    9.80
   2  -9   8   -4.50   14.30
   2  -9   8   26.20   15.70
  -2  -9  -8    6.80   11.40
  -2   9  -8   11.80   13.70
   2   9   8    1.00    7.20
   2   9   8    0.20   11.40
  -2   9  -8   15.80   13.30
  -2   9  -8    0.80   14.70
  -3  -9  -8  300.17   28.10
   3  -9   8  409.66   34.70
  -3  -9  -8  341.87   26.80
   3  -9   8  383.96   34.80
   3  -9   8  374.36   35.90
   3  -9   8  338.07   41.20
  -3  -9  -8  298.87   22.80
  -3   9  -8  313.87   34.50
  -3   9  -8  316.67   36.90
  -3   9  -8  336.37   35.90
  -3   9  -8  279.77   33.20
   3   9   8  284.47   21.70
  -2 -10   8   77.59    8.40
  -2 -10   8   71.79   11.80
   2 -10  -8   44.50   12.10
  -2 -10   8   75.89   12.50
   2 -10  -8   99.29   17.00
   2 -10  -8   57.99   13.50
   2 -10  -8   60.49   13.90
  -2  10   8   70.19   15.50
  -2  10   8   58.19   15.20
  -2  10   8   88.29   16.90
  -2  10   8   67.59   16.10
   1 -10  -8   50.39   11.30
  -1 -10   8   74.59   11.10
   1 -10  -8   64.69   13.60
  -1 -10   8   60.19   12.00
   1 -10  -8   56.09   12.60
  -1 -10   8   52.99   10.60
   1 -10  -8   65.39   14.20
  -1 -10   8   63.89    9.70
  -1  10   8   45.70   12.60
   1  10  -8   54.29    9.60
  -1  10   8   59.19   12.40
  -1  10   8   64.39   11.70
  -1  10   8   52.39   12.60
   0 -10   8   85.39   13.30
   0 -10   8   96.49   12.10
   0 -10  -8   99.09   13.90
   0 -10   8   70.79   13.40
   0 -10  -8  101.39   12.80
   0 -10  -8   83.29   11.70
   0 -10   8  100.29   12.70
   0 -10  -8   84.49   11.60
   0  10   8   88.09   10.90
   0  10   8   95.89   11.20
   0  10   8  100.29   12.90
   0  10  -8   87.19    8.60
   1 -10   8   54.19   12.00
   1 -10   8   70.39   15.10
  -1 -10  -8   82.99   12.80
  -1 -10  -8   57.89   11.60
   1 -10   8   68.19   14.60
  -1 -10  -8   51.29   11.10
  -1 -10  -8   70.39   11.70
   1 -10   8   72.49   13.00
  -1  10  -8   66.99   12.80
  -1  10  -8   78.09   12.50
  -1  10  -8   63.99   13.90
   1  10   8   64.39   10.50
  -1  10  -8   66.89   11.60
   2 -10   8  227.68   22.80
   2 -10   8  210.88   26.40
   2 -10   8  246.28   28.30
  -2 -10  -8  193.18   22.20
   2 -10   8  255.27   28.40
  -2 -10  -8  203.58   18.90
  -2 -10  -8  187.58   17.60
  -2 -10  -8  206.48   18.10
  -2  10  -8  276.17   27.70
  -2  10  -8  204.58   24.90
   2  10   8  200.48   18.90
  -2  10  -8  227.78   23.00
   2 -11  -8   97.09   18.60
  -2 -11   8  108.99   13.60
   2 -11  -8   86.59   16.30
   2 -11  -8   79.39   17.00
   2 -11  -8  102.89   18.90
  -2 -11   8   77.39   14.60
  -2  11   8  111.59   18.10
  -2  11   8   50.19   15.80
  -2  11   8   92.79   18.50
  -2  11   8  122.59   17.80
   1 -11  -8   14.70   11.50
  -1 -11   8   21.30   12.40
   1 -11  -8   29.90   11.80
  -1 -11   8   16.50   10.40
  -1 -11   8    5.90   10.00
   1 -11  -8   16.10   12.40
  -1 -11   8   10.80    8.60
   1 -11  -8   17.90   11.90
  -1  11   8   -0.70   12.30
  -1  11   8   15.30   11.10
  -1  11   8   -3.80   11.50
   1  11  -8   10.00   15.00
  -1  11   8    9.60   11.90
   1  11  -8    6.00    6.90
   0 -11  -8  105.99   14.20
   0 -11  -8   85.79   13.10
   0 -11   8  104.69   13.30
   0 -11   8   92.99   14.20
   0 -11   8  100.29   13.30
   0 -11   8  115.29   15.60
   0 -11  -8   98.49   14.30
   0 -11  -8   89.39   13.20
   0  11  -8  117.79   10.10
   0  11   8  105.19   11.70
   0  11   8  107.79   11.40
   0  11   8  101.39   13.90
   1 -11   8    0.60   12.10
   1 -11   8  -10.60   13.50
   1 -11   8    1.10   13.40
  -1 -11  -8    7.70   11.10
   1 -11   8    6.00   11.20
  -1 -11  -8   10.50   10.90
  -1 -11  -8  -11.00    9.80
  -1 -11  -8   -4.10   11.90
  -1  11  -8   -1.30   10.40
  -1  11  -8    3.50   11.40
  -1  11  -8   13.40   13.10
  -1  11  -8   11.90   11.90
   1  11   8   -1.90   11.00
   1  11   8    0.10    6.70
   2 -11   8   26.70   18.70
   2 -11   8    0.40   15.90
  -2 -11  -8   21.10   10.50
  -2 -11  -8   32.20   13.10
   2 -11   8   10.50   17.00
   2 -11   8   51.69   18.20
  -2 -11  -8   19.00   11.20
   2  11   8   13.30   10.70
  -2  11  -8    3.60   15.70
  -2  11  -8   -8.00   16.50
  -2  11  -8   27.10   16.10
  -2  11  -8   16.70   15.00
   2  11   8    4.30    7.60
   2 -12  -8   14.70   15.50
  -2 -12   8   11.60   11.80
   2 -12  -8   18.50   17.50
   2 -12  -8  -32.20   16.40
  -2 -12   8    4.60   13.00
   2 -12  -8   13.70   14.00
  -2  12   8    1.20   15.80
  -2  12   8   22.70   17.00
  -2  12   8    9.30   17.60
  -1 -12   8    2.00    8.70
  -1 -12   8   24.00   10.80
   1 -12  -8   -2.90   13.90
  -1 -12   8  -14.90   11.00
   1 -12  -8  -13.20   12.40
  -1 -12   8  -14.70   11.70
   1 -12  -8   16.70   14.40
   1 -12  -8  -13.80   12.90
   1  12  -8   -2.20    9.60
  -1  12   8    9.60   13.40
  -1  12   8    7.90   13.50
   1  12  -8   15.70    7.30
  -1  12   8   10.10   13.20
  -1  12   8   -0.60   11.80
   0 -12   8   32.80   12.10
   0 -12  -8    3.80   11.40
   0 -12   8    5.80   13.80
   0 -12  -8    4.20   11.60
   0 -12   8   11.90   11.40
   0 -12   8   22.30   13.30
   0 -12  -8   18.80   13.10
   0 -12  -8  -12.60   12.10
   0  12   8   24.90    9.40
   0  12   8    3.00    6.80
   0  12  -8   -6.40    8.60
   0  12   8   10.40    9.60
   0  12  -8   18.40   13.20
   1 -12   8   -8.50   12.90
  -1 -12  -8  -10.40    9.80
   1 -12   8   -2.50   15.30
   1 -12   8    7.50   15.90
   1 -12   8    7.10   13.40
  -1 -12  -8  -10.70   12.50
  -1 -12  -8    2.30   11.80
  -1 -12  -8   -6.70   11.40
  -1  12  -8   12.10   11.80
  -1  12  -8   -1.70   12.50
   1  12   8    4.50   12.00
  -1  12  -8    7.80   11.40
  -1  12  -8   -5.50   14.20
   1  12   8   -5.30    7.30
   2 -12   8   -7.10   20.40
   2 -12   8  -16.90   17.80
  -2 -12  -8    3.00   10.20
   2 -12   8   -2.70   16.80
  -2 -12  -8   29.30   14.40
   2 -12   8  -17.10   19.50
  -2 -12  -8   10.70   14.60
  -2 -12  -8   -7.80   11.20
  -2  12  -8  -39.30   15.50
   2  12   8   -7.70    7.70
   2  12   8   -2.90   10.80
  -2  12  -8   -8.90   19.20
  -2  12  -8  -17.50   17.20
  -2  12  -8    2.10   16.60
   1 -13  -8   82.69   17.80
  -1 -13   8   96.59   13.50
   1 -13  -8   61.49   16.50
  -1 -13   8   74.59   11.40
  -1 -13   8   81.79   15.80
   1 -13  -8   68.29   16.60
  -1 -13   8   71.59   14.50
   1 -13  -8   70.59   16.40
  -1  13   8   88.39   15.90
  -1  13   8   74.99   17.70
   1  13  -8   72.49   11.80
  -1  13   8   90.19   15.20
   0 -13   8   12.90   12.20
   0 -13   8   20.20   13.80
   0 -13  -8   25.30   13.10
   0 -13   8    6.20   14.40
   0 -13   8   26.20   14.90
   0 -13  -8   22.10   14.50
   0 -13  -8    7.90   13.00
   0 -13  -8    6.20   13.00
   0  13  -8   -6.50    9.40
   0  13   8    7.00    8.40
   0  13   8    4.60   14.30
   0  13   8   16.90    7.30
   0  13  -8   26.70   14.10
   1 -13   8  107.79   20.40
  -1 -13  -8  148.19   16.70
   1 -13   8  124.29   18.10
   1 -13   8  136.99   19.40
  -1 -13  -8  194.08   25.00
  -1 -13  -8  153.18   17.20
  -1 -13  -8  127.49   15.30
   1 -13   8  131.99   18.10
   1  13   8  144.59   16.90
  -1  13  -8  152.58   16.20
  -1  13  -8  135.29   19.60
   0 -14   8  123.89   19.50
   0 -14   8  124.89   17.70
   0 -14  -8   95.89   17.90
   0 -14   8  117.19   15.40
   0 -14  -8  139.29   20.30
   0 -14  -8   99.09   17.40
   0 -14  -8   98.99   16.60
   0 -14   8  121.59   18.00
   0  14  -8   54.19   17.00
  -4   0   9   -4.70   15.90
   4   0  -9  -10.80   16.20
   4   0  -9    0.60   10.80
   4   0  -9   15.10   11.30
  -4   0   9  -31.70   14.00
  -4   0   9    8.40   16.10
   4   0  -9  -24.40   11.70
  -4   0   9   21.90   15.20
  -3   0   9    6.90   10.90
  -3   0   9   14.80   10.60
  -3   0   9    5.90   11.40
   3   0  -9   -1.10   10.30
   3   0  -9    2.50   10.60
   3   0  -9    0.00   10.40
   3   0  -9    5.60    8.80
  -3   0   9   -7.50   10.60
   2   0  -9    0.20    7.40
  -2   0   9  -12.60    8.20
  -2   0   9   -3.30    8.30
  -2   0   9    4.40    8.10
   2   0  -9   -8.30    8.40
   2   0  -9    3.10    8.30
   2   0  -9   -1.40    7.70
  -2   0   9    5.80    8.00
  -1   0   9   -0.60    7.70
  -1   0   9   -9.20    6.40
   1   0  -9   -6.60    7.40
   1   0  -9    5.50    6.80
   1   0  -9    2.80    7.10
   1   0  -9   -1.60    6.80
  -1   0   9   -0.40    7.00
  -1   0   9   -1.20    7.40
   0   0  -9    0.60    7.00
   0   0  -9    2.90    6.30
   0   0   9    5.40    6.80
   0   0  -9   -4.50    7.40
   0   0  -9    0.80    7.30
   0   0   9    5.70    6.30
   0   0   9    0.80    7.60
   0   0   9    3.40    6.30
   1   0   9    4.30    7.70
  -1   0  -9   -6.70    7.40
   1   0   9    0.70    7.50
  -1   0  -9    0.10    6.80
  -1   0  -9   -2.80    8.10
   1   0   9   10.20    8.90
   1   0   9    7.70    8.80
  -1   0  -9    8.20    7.90
  -2   0  -9  -14.70    8.50
   2   0   9    2.30    9.30
  -2   0  -9    1.40    9.60
   2   0   9   -8.60    9.30
   2   0   9   -9.30    9.80
   2   0   9    2.10    9.90
  -2   0  -9   26.70   10.70
  -2   0  -9    4.70    9.70
  -3   0  -9   -5.10   12.90
   3   0   9   12.40   12.30
  -3   0  -9   19.60   13.00
   3   0   9   -4.80   11.50
   3   0   9    8.50   11.80
   3   0   9   13.50   12.90
  -3   0  -9   17.50   11.90
   4  -1  -9    7.10   12.70
   4  -1  -9   13.30   19.20
  -4  -1   9   36.60   14.90
  -4  -1   9    7.30   14.60
   4  -1  -9   15.50   12.80
  -4  -1   9   54.09   16.40
  -4  -1   9    0.00   16.30
   4  -1  -9  -16.50   12.10
  -4   1   9   25.70   15.10
  -4   1   9  -30.00   14.50
   4   1  -9    1.00   11.90
   4   1  -9   13.10    8.70
   4   1  -9   16.90   10.00
  -4   1   9   36.80   17.10
  -4   1   9   -2.50   16.70
   3  -1  -9   47.40   11.80
  -3  -1   9   27.70   11.60
  -3  -1   9   36.80   10.70
   3  -1  -9   35.90   11.60
  -3  -1   9   31.50   11.50
   3  -1  -9   34.60   10.90
   3  -1  -9   33.70   11.50
  -3  -1   9   37.60   12.00
  -3   1   9   19.50   11.90
  -3   1   9   32.00   11.60
   3   1  -9   46.90    9.20
   3   1  -9   37.70   10.90
  -3   1   9   50.39   12.50
   3   1  -9   38.60   12.00
  -3   1   9   49.90   12.80
  -2  -1   9   62.29    9.90
   2  -1  -9   43.20    9.40
   2  -1  -9   57.79    9.10
   2  -1  -9   50.39    9.50
  -2  -1   9   41.30    9.30
   2  -1  -9   54.39   10.10
  -2  -1   9   44.90   10.10
  -2  -1   9   43.40   10.20
   2   1  -9   60.49    8.70
   2   1  -9   41.20    9.20
   2   1  -9   51.29   10.00
  -2   1   9   41.70    9.70
  -2   1   9   63.49   10.70
   2   1  -9   58.19   10.40
  -2   1   9   61.39   10.90
  -2   1   9   49.70    9.50
  -1  -1   9   82.79   10.20
   1  -1  -9  117.69   11.80
   1  -1  -9  100.49   12.60
  -1  -1   9   86.09    9.80
   1  -1  -9   91.79   11.00
  -1  -1   9   93.49   10.00
  -1  -1   9  104.49   10.90
   1  -1  -9  106.09   10.90
  -1   1   9   84.39    9.50
   1   1  -9   92.29   11.80
   1   1  -9  116.89   11.90
  -1   1   9  103.69   12.80
  -1   1   9   94.59   10.60
   1   1  -9  102.29   10.60
  -1   1   9  116.79   11.50
   1   1  -9  101.29   12.70
   0  -1   9  331.27   18.50
   0  -1   9  283.67   18.00
   0  -1  -9  277.77   18.10
   0  -1   9  309.37   18.60
   0  -1  -9  314.37   18.70
   0  -1   9  291.27   19.00
   0  -1  -9  287.57   18.60
   0  -1  -9  295.97   18.70
   0   1   9  251.87   18.80
   0   1  -9  295.07   18.40
   0   1   9  301.17   17.70
   0   1   9  274.27   18.10
   0   1  -9  281.27   18.40
   0   1   9  295.97   18.60
   0   1  -9  302.17   19.40
   0   1  -9  288.37   18.00
   1  -1   9   10.20    8.10
  -1  -1  -9    7.90    8.60
   1  -1   9    5.60    8.30
   1  -1   9   16.50    8.70
  -1  -1  -9    3.20    7.20
   1  -1   9   20.90    8.50
  -1  -1  -9   12.80    8.20
  -1  -1  -9   13.30    8.80
   1   1   9    6.80    8.80
   1   1   9   -1.50    7.90
   1   1   9    1.50    7.60
   1   1   9   11.10    8.30
  -1   1  -9   18.10    8.80
  -1   1  -9    1.40    8.20
  -1   1  -9   15.40    7.20
  -1   1  -9    1.80    8.60
  -2  -1  -9  183.08   17.60
   2  -1   9  161.38   18.20
  -2  -1  -9  167.18   18.40
   2  -1   9  148.49   18.80
  -2  -1  -9  135.69   14.80
   2  -1   9  165.08   18.20
  -2  -1  -9  164.28   17.20
   2  -1   9  153.08   18.70
   2   1   9  174.98   18.20
  -2   1  -9  166.38   18.30
  -2   1  -9  147.29   18.70
  -2   1  -9  161.18   16.40
   2   1   9  158.58   18.00
   2   1   9  188.38   18.70
  -2   1  -9  162.98   17.50
   2   1   9  164.88   16.90
  -3  -1  -9   13.20   12.80
   3  -1   9    0.90   12.30
  -3  -1  -9   -7.50   10.80
  -3  -1  -9    4.30   13.00
   3  -1   9   25.90   12.60
   3  -1   9   -9.20   13.10
   3  -1   9   10.00   13.30
   3   1   9   -1.60   11.50
  -3   1  -9   -3.60   12.00
   3   1   9   23.40   12.10
  -3   1  -9    5.00   13.60
   3   1   9    5.00   13.40
   3   1   9  -13.00    9.80
  -3   1  -9   -3.10   13.70
   4  -2  -9  217.88   24.60
  -4  -2   9  232.48   25.70
   4  -2  -9  237.08   27.50
  -4  -2   9  236.78   26.80
  -4  -2   9  245.38   28.70
  -4  -2   9  265.67   28.60
   4  -2  -9  152.78   18.80
  -4   2   9  215.18   23.30
  -4   2   9  210.48   22.40
  -4   2   9  234.68   30.40
  -4   2   9  215.98   22.70
   3  -2  -9   45.00   12.50
  -3  -2   9   23.60   11.40
  -3  -2   9   39.30   12.00
  -3  -2   9   38.00   11.30
  -3  -2   9   50.49   11.90
   3  -2  -9   38.00   12.50
   3  -2  -9   21.50   11.40
   3  -2  -9   38.40   11.60
  -3   2   9   33.80   11.60
  -3   2   9   52.69   13.10
   3   2  -9   47.80   10.10
  -3   2   9   26.20   12.50
   3   2  -9   31.40   12.30
  -3   2   9   41.60   12.50
   3   2  -9   49.20    7.80
  -2  -2   9  986.30   42.70
   2  -2  -9 1011.80   43.90
  -2  -2   9  954.30   42.80
   2  -2  -9  993.60   43.40
   2  -2  -9  999.60   43.10
   2  -2  -9  986.90   43.30
  -2  -2   9  961.60   42.20
  -2  -2   9 1001.30   43.10
  -2   2   9 1013.10   43.80
   2   2  -9  990.40   42.60
  -2   2   9 1009.20   43.90
  -2   2   9 1011.60   44.10
   2   2  -9  970.40   40.80
   2   2  -9 1009.80   43.10
   2   2  -9  963.70   42.50
  -2   2   9  958.30   43.20
   1  -2  -9  315.67   19.10
  -1  -2   9  270.57   18.00
   1  -2  -9  313.57   19.20
  -1  -2   9  309.87   18.70
   1  -2  -9  308.87   19.00
   1  -2  -9  314.57   18.90
  -1  -2   9  339.37   19.40
  -1  -2   9  323.77   18.90
   1   2  -9  316.97   19.50
  -1   2   9  320.17   20.30
  -1   2   9  330.27   18.90
   1   2  -9  322.07   19.00
  -1   2   9  308.87   19.40
   1   2  -9  309.17   17.70
   1   2  -9  294.97   19.50
  -1   2   9  323.27   19.20
   0  -2   9  219.18   16.20
   0  -2   9  243.08   16.60
   0  -2  -9  203.58   16.30
   0  -2   9  244.98   17.10
   0  -2   9  220.68   16.40
   0  -2  -9  215.48   16.50
   0  -2  -9  232.78   16.00
   0   2   9  210.58   15.80
   0   2  -9  237.28   16.50
   0   2   9  215.68   15.90
   0   2  -9  203.68   16.90
   0   2   9  236.68   16.70
   0   2   9  216.48   17.10
   0   2  -9  230.58   16.30
   0   2  -9  215.68   17.20
  -1  -2  -9  654.53   31.70
   1  -2   9  657.43   31.70
  -1  -2  -9  692.53   32.10
   1  -2   9  649.14   32.00
  -1  -2  -9  678.23   31.40
   1  -2   9  650.33   31.80
   1  -2   9  651.63   31.80
  -1  -2  -9  654.43   31.20
  -1   2  -9  674.03   32.20
   1   2   9  653.13   31.50
   1   2   9  661.83   31.50
  -1   2  -9  637.74   32.00
   1   2   9  658.03   30.80
   1   2   9  651.63   31.70
  -1   2  -9  699.03   31.90
  -1   2  -9  637.74   31.20
  -2  -2  -9  352.76   23.50
   2  -2   9  351.36   23.50
   2  -2   9  373.76   23.80
   2  -2   9  348.17   23.80
  -2  -2  -9  363.96   22.40
   2  -2   9  313.57   23.40
  -2  -2  -9  343.97   22.00
  -2  -2  -9  297.77   23.30
   2   2   9  336.37   22.90
  -2   2  -9  363.76   24.10
  -2   2  -9  347.07   24.50
   2   2   9  362.36   23.00
   2   2   9  349.17   21.10
   2   2   9  384.96   22.40
  -2   2  -9  342.87   23.30
  -2   2  -9  302.37   22.80
  -3  -2  -9  389.36   28.60
   3  -2   9  350.56   28.80
   3  -2   9  351.26   27.10
   3  -2   9  440.56   28.00
  -3  -2  -9  401.56   26.80
  -3  -2  -9  406.96   27.70
   3  -2   9  370.46   28.20
   3   2   9  408.56   27.50
  -3   2  -9  352.96   27.40
   3   2   9  402.36   27.00
  -3   2  -9  372.86   29.40
   3   2   9  442.56   24.70
  -3   2  -9  403.96   28.60
  -3   2  -9  363.66   29.00
   3   2   9  353.16   22.90
   3  -3  -9  655.63   34.00
  -3  -3   9  628.84   32.80
  -3  -3   9  650.33   32.90
   3  -3  -9  615.14   34.50
   3  -3  -9  662.23   35.10
   3  -3  -9  685.73   34.70
  -3  -3   9  652.83   33.70
  -3  -3   9  667.03   32.30
  -3   3   9  647.04   34.90
  -3   3   9  664.63   35.10
   3   3  -9  589.94   31.10
  -3   3   9  642.34   35.40
  -3   3   9  626.34   35.70
  -2  -3   9   20.40    8.90
   2  -3  -9   29.40   10.20
   2  -3  -9   13.60    9.80
   2  -3  -9    9.50    8.80
   2  -3  -9   30.00    9.60
  -2  -3   9   18.10    8.90
  -2  -3   9   22.30    9.20
   2   3  -9   11.10    8.40
  -2   3   9   28.80   10.80
  -2   3   9   19.20   10.10
   2   3  -9    0.80    7.40
  -2   3   9   25.00    9.80
  -2   3   9   25.60    9.50
   2   3  -9   15.90    8.60
   2   3  -9   21.90    6.60
  -1  -3   9 1881.21   74.49
   1  -3  -9 1730.93   74.59
   1  -3  -9 1907.41   74.59
   1  -3  -9 1893.31   74.79
  -1  -3   9 1770.02   73.79
  -1  -3   9 1984.90   74.99
  -1  -3   9 1870.81   74.19
   1  -3  -9 1898.31   74.69
   1   3  -9 1921.21   75.09
   1   3  -9 1839.22   72.99
   1   3  -9 1907.31   74.39
   1   3  -9 1814.62   73.99
  -1   3   9 1843.02   74.29
  -1   3   9 1785.52   74.69
  -1   3   9 1865.81   74.79
  -1   3   9 1889.51   75.09
   0  -3  -9  109.99   11.40
   0  -3   9  128.89   12.50
   0  -3  -9  114.49   12.90
   0  -3   9  118.79   14.20
   0  -3   9   88.19   10.90
   0  -3   9  118.39   11.90
   0  -3  -9  115.49   14.10
   0   3   9  119.49   13.70
   0   3  -9  109.99   13.90
   0   3  -9  124.99   12.10
   0   3   9  123.89   14.20
   0   3   9  138.39   12.80
   0   3  -9  123.89   13.80
   0   3   9  120.29   13.60
   0   3  -9  142.19   13.10
   1  -3   9  616.94   30.50
  -1  -3  -9  621.64   30.20
   1  -3   9  575.44   29.90
  -1  -3  -9  606.84   29.70
   1  -3   9  624.94   30.30
  -1  -3  -9  609.04   29.70
   1  -3   9  610.24   30.00
  -1  -3  -9  618.64   29.60
   1   3   9  601.94   29.90
  -1   3  -9  596.74   30.50
  -1   3  -9  623.14   30.10
  -1   3  -9  585.24   29.70
  -1   3  -9  592.64   30.00
   1   3   9  659.03   29.90
   1   3   9  625.04   28.80
   1   3   9  566.14   29.50
  -2  -3  -9  249.78   21.30
  -2  -3  -9  257.07   19.60
   2  -3   9  288.07   22.00
   2  -3   9  272.07   22.40
  -2  -3  -9  262.17   20.20
   2  -3   9  282.47   23.00
  -2  -3  -9  240.08   21.10
   2  -3   9  291.07   21.70
   2   3   9  271.17   19.90
  -2   3  -9  241.28   21.90
  -2   3  -9  292.57   21.90
  -2   3  -9  288.77   22.20
   2   3   9  303.57   18.60
   2   3   9  287.67   20.80
   2   3   9  268.67   20.90
  -2   3  -9  282.97   22.00
   3  -3   9   42.30   15.10
   3  -3   9   51.49   14.60
   3  -3   9   27.60   14.30
  -3  -3  -9   39.30   14.30
  -3  -3  -9   19.50   13.20
  -3  -3  -9   23.00   12.50
   3   3   9   21.50    9.50
   3   3   9   14.60   12.90
  -3   3  -9    5.80   12.80
  -3   3  -9   22.40   14.00
   3   3   9   39.50   10.60
  -3   3  -9   35.60   14.20
  -3   3  -9   24.60   13.60
  -3  -4   9   28.80   10.80
   3  -4  -9   36.60   13.30
  -3  -4   9   22.10   11.40
   3  -4  -9   10.10   11.80
   3  -4  -9   21.60   13.10
  -3  -4   9   27.70   11.00
  -3  -4   9   25.40   11.10
   3  -4  -9   43.70   12.50
  -3   4   9   24.70   14.20
  -3   4   9   22.50   13.20
  -3   4   9   35.30   13.60
   3   4  -9   30.90   11.80
  -3   4   9   36.70   13.50
  -2  -4   9  439.46   23.70
   2  -4  -9  432.76   25.10
   2  -4  -9  411.76   25.00
  -2  -4   9  366.26   22.40
   2  -4  -9  428.16   24.50
  -2  -4   9  407.06   23.10
   2  -4  -9  407.86   24.60
   2   4  -9  413.86   18.50
  -2   4   9  410.16   24.40
   2   4  -9  398.76   23.70
  -2   4   9  363.86   25.20
   2   4  -9  407.56   19.10
  -2   4   9  399.36   24.90
  -2   4   9  417.46   25.60
  -1  -4   9  631.04   30.50
   1  -4  -9  652.13   31.40
   1  -4  -9  671.93   32.10
  -1  -4   9  672.63   31.50
  -1  -4   9  703.03   31.70
  -1  -4   9  716.23   31.20
   1  -4  -9  704.33   31.80
   1  -4  -9  679.13   32.10
   1   4  -9  646.44   29.00
   1   4  -9  693.83   31.10
  -1   4   9  654.03   31.30
   1   4  -9  643.94   29.80
   1   4  -9  689.63   32.40
  -1   4   9  664.83   32.30
  -1   4   9  662.63   31.90
  -1   4   9  685.13   31.70
   0  -4  -9 1900.21   78.29
   0  -4  -9 2028.30   78.89
   0  -4   9 1909.21   78.69
   0  -4   9 1963.90   79.09
   0  -4   9 1974.00   79.19
   0  -4  -9 2075.79   79.29
   0  -4   9 1900.61   78.69
   0  -4  -9 1955.90   78.79
   0   4  -9 1980.20   79.59
   0   4  -9 1910.91   78.39
   0   4  -9 1939.71   78.09
   0   4   9 2011.30   78.89
   0   4  -9 1954.50   78.99
   0   4   9 2084.59   79.19
   0   4   9 1966.80   78.29
   0   4   9 2028.60   78.79
   1  -4   9 1097.59   46.80
   1  -4   9 1072.49   46.90
  -1  -4  -9 1053.69   45.90
  -1  -4  -9 1079.89   46.00
  -1  -4  -9 1078.99   46.10
  -1  -4  -9 1050.19   46.50
   1  -4   9 1064.09   46.80
   1  -4   9 1024.80   46.10
  -1   4  -9 1049.09   46.60
   1   4   9 1096.29   44.90
   1   4   9 1077.29   46.40
  -1   4  -9 1109.79   46.90
   1   4   9 1024.20   45.30
   1   4   9 1042.40   45.80
  -1   4  -9 1052.09   46.40
  -1   4  -9 1082.39   46.20
   2  -4   9  350.06   24.70
  -2  -4  -9  352.36   23.00
   2  -4   9  353.26   24.10
  -2  -4  -9  320.97   21.70
  -2  -4  -9  292.97   21.90
   2  -4   9  304.37   24.50
   2  -4   9  327.27   23.90
  -2  -4  -9  303.17   21.10
  -2   4  -9  305.07   23.40
   2   4   9  294.87   20.00
   2   4   9  318.37   23.00
   2   4   9  275.17   18.70
   2   4   9  273.07   21.40
  -2   4  -9  332.57   23.80
  -2   4  -9  331.97   23.90
  -3  -4  -9  385.66   27.00
   3  -4   9  403.86   36.00
  -3  -4  -9  412.56   25.70
   3  -4   9  411.66   29.70
  -3  -4  -9  385.16   28.00
   3  -4   9  381.76   31.20
   3  -4   9  428.26   30.50
  -3  -4  -9  397.06   27.40
  -3   4  -9  368.46   30.70
  -3   4  -9  402.56   30.30
  -3   4  -9  405.06   30.60
   3   4   9  392.36   21.60
  -3   4  -9  395.36   31.90
   3  -5  -9  679.03   36.50
  -3  -5   9  631.14   32.80
   3  -5  -9  692.73   37.40
  -3  -5   9  678.73   33.30
  -3  -5   9  643.04   31.80
  -3  -5   9  669.23   33.50
   3  -5  -9  676.43   36.70
   3   5  -9  664.83   34.50
  -3   5   9  621.24   37.00
  -3   5   9  601.04   36.50
  -3   5   9  656.53   36.90
  -3   5   9  669.33   37.50
  -2  -5   9   85.39   10.70
  -2  -5   9   94.39   11.30
  -2  -5   9   94.19   12.20
  -2  -5   9   77.59   11.20
   2  -5  -9   93.99   13.00
   2  -5  -9   82.79   12.90
   2  -5  -9  104.09   13.50
   2  -5  -9  102.99   13.80
  -2   5   9   86.59   13.30
  -2   5   9   69.09   12.90
   2   5  -9   90.19   12.60
   2   5  -9   85.29    9.50
  -2   5   9   76.29   12.90
  -1  -5   9  951.00   40.00
  -1  -5   9  942.11   40.20
   1  -5  -9  929.11   40.50
  -1  -5   9  946.51   40.60
   1  -5  -9  927.61   41.00
   1  -5  -9  973.30   41.30
   1  -5  -9  781.62   39.90
  -1  -5   9  941.71   39.70
  -1   5   9  883.41   40.30
   1   5  -9  838.32   39.70
   1   5  -9  863.71   40.80
  -1   5   9  922.61   40.30
   1   5  -9  912.31   37.70
  -1   5   9  961.10   41.30
  -1   5   9  933.51   40.80
   1   5  -9  945.01   37.50
   0  -5   9  376.86   22.70
   0  -5   9  399.26   21.80
   0  -5  -9  386.96   22.00
   0  -5   9  427.46   23.00
   0  -5  -9  371.96   22.50
   0  -5   9  392.56   22.70
   0  -5  -9  367.16   21.50
   0  -5  -9  404.16   22.80
   0   5   9  403.16   22.50
   0   5  -9  401.16   23.20
   0   5  -9  378.86   21.50
   0   5  -9  404.26   21.40
   0   5  -9  415.16   22.90
   0   5   9  386.56   21.60
   0   5   9  394.46   22.60
   0   5   9  377.96   22.20
   1  -5   9  496.75   28.30
  -1  -5  -9  455.75   26.40
   1  -5   9  539.65   28.00
  -1  -5  -9  509.95   26.40
  -1  -5  -9  520.55   27.40
  -1  -5  -9  562.44   27.50
   1  -5   9  521.75   28.30
   1  -5   9  514.05   27.30
  -1   5  -9  532.05   27.50
  -1   5  -9  491.05   27.60
  -1   5  -9  601.44   28.20
   1   5   9  520.55   25.70
   1   5   9  432.46   26.30
   1   5   9  543.55   25.50
   1   5   9  478.25   27.10
  -1   5  -9  553.94   28.00
  -2  -5  -9  330.47   22.50
   2  -5   9  343.17   25.30
  -2  -5  -9  337.37   22.10
  -2  -5  -9  344.07   23.60
  -2  -5  -9  338.97   23.30
   2  -5   9  332.77   24.80
   2  -5   9  320.57   25.50
   2   5   9  342.97   19.50
  -2   5  -9  370.66   25.30
   2   5   9  332.07   18.70
  -2   5  -9  374.86   25.40
   2   5   9  332.87   27.60
  -2   5  -9  340.17   25.30
  -3  -5  -9    9.50   12.70
   3  -5   9    0.90   15.90
  -3  -5  -9    6.10   12.00
   3  -5   9   30.70   15.80
   3  -5   9   17.20   15.80
   3  -5   9   21.50   15.70
  -3  -5  -9   12.60   12.00
  -3  -5  -9   19.00   13.30
   3   5   9    0.90   12.80
  -3   5  -9   -6.30   15.20
   3   5   9   10.80   10.10
  -3   5  -9   23.40   17.00
  -3   5  -9   14.70   15.20
  -3   5  -9   26.30   15.20
   3  -6  -9   12.50   14.70
   3  -6  -9   -4.10   12.80
   3  -6  -9    8.80   13.30
  -3  -6   9   -6.00   11.10
  -3  -6   9   -3.80    9.60
   3  -6  -9   23.70   15.30
  -3  -6   9   -0.70   10.80
   3   6  -9   11.90   12.70
  -3   6   9  -26.30   14.10
  -3   6   9   24.40   15.20
  -3   6   9   -2.20   13.80
  -3   6   9    8.40   13.70
   3   6  -9    0.50    6.90
  -2  -6   9  103.59   11.20
   2  -6  -9  118.39   15.20
   2  -6  -9   64.19   12.20
  -2  -6   9   71.79   11.40
   2  -6  -9   87.89   13.40
  -2  -6   9   74.19   10.60
   2  -6  -9   68.99   12.00
  -2  -6   9   80.49   11.60
   2   6  -9   89.99   10.00
  -2   6   9   87.19   13.80
  -2   6   9   90.29   14.60
   2   6  -9   70.39   12.30
  -2   6   9  112.89   14.40
  -1  -6   9  194.58   16.00
  -1  -6   9  160.08   15.90
  -1  -6   9  149.88   16.20
   1  -6  -9  173.28   16.60
  -1  -6   9  146.79   15.90
   1  -6  -9  166.48   16.80
   1  -6  -9  168.88   17.50
   1  -6  -9  162.28   17.80
  -1   6   9  198.08   18.30
   1   6  -9  155.68   17.10
  -1   6   9  144.99   16.60
  -1   6   9  158.48   17.30
  -1   6   9  162.88   16.80
   1   6  -9  165.28   11.40
   1   6  -9  182.68   11.30
   0  -6  -9  594.94   29.90
   0  -6  -9  580.94   29.10
   0  -6  -9  560.54   28.70
   0  -6  -9  587.84   30.00
   0  -6   9  652.33   30.10
   0  -6   9  606.54   29.90
   0  -6   9  586.14   29.90
   0  -6   9  599.84   29.10
   0   6  -9  619.24   28.40
   0   6  -9  572.94   27.70
   0   6  -9  591.64   29.90
   0   6   9  589.14   28.60
   0   6   9  602.94   29.10
   0   6  -9  570.64   29.60
   0   6   9  618.24   29.70
   0   6   9  618.34   29.60
  -1  -6  -9  195.48   18.30
  -1  -6  -9  175.78   17.00
  -1  -6  -9  174.28   18.20
  -1  -6  -9  207.48   16.70
   1  -6   9  205.18   20.60
   1  -6   9  185.28   19.40
   1  -6   9  199.28   19.20
   1  -6   9  221.58   19.00
   1   6   9  199.18   18.00
   1   6   9  167.18   16.80
  -1   6  -9  234.58   19.40
  -1   6  -9  200.08   18.50
   1   6   9  181.48   15.20
   1   6   9  186.38   15.60
  -1   6  -9  211.88   18.40
  -1   6  -9  199.58   19.20
  -2  -6  -9  -16.00    9.90
  -2  -6  -9   -3.30   10.10
  -2  -6  -9    4.40    9.70
   2  -6   9   34.00   13.10
  -2  -6  -9   19.10   11.70
   2  -6   9   -5.40   12.70
   2  -6   9   10.70   12.70
   2   6   9  -16.50    9.30
   2   6   9    1.00    6.80
  -2   6  -9  -11.50   12.10
  -2   6  -9    5.50   10.80
  -2   6  -9   14.90   12.00
   2   6   9    7.40    6.30
   3  -6   9  152.88   20.90
  -3  -6  -9  147.79   16.90
  -3  -6  -9  147.39   17.30
   3  -6   9  161.88   23.00
   3  -6   9  154.28   19.80
   3  -6   9  139.39   20.30
  -3  -6  -9  131.89   15.40
  -3  -6  -9  133.79   16.50
   3   6   9   93.19   15.20
  -3   6  -9  149.09   21.40
  -3   6  -9  125.89   20.20
  -3   6  -9  138.89   20.30
  -3   6  -9  102.79   18.40
   3  -7  -9  150.58   20.00
  -3  -7   9  143.49   14.60
   3  -7  -9  173.48   20.80
  -3  -7   9  173.28   19.80
   3  -7  -9  126.09   16.80
   3  -7  -9  186.78   20.00
  -3  -7   9  140.89   16.60
  -3   7   9  101.59   18.30
  -3   7   9  137.89   19.20
  -3   7   9  115.19   18.10
   3   7  -9  118.99   14.80
  -3   7   9  148.99   19.60
  -2  -7   9   37.90   11.10
  -2  -7   9   48.10   11.00
  -2  -7   9   45.50   10.20
   2  -7  -9   68.29   13.70
  -2  -7   9   52.29   10.10
   2  -7  -9   60.89   13.70
   2  -7  -9   40.70   14.00
  -2   7   9   40.00   13.50
  -2   7   9   49.10   12.00
   2   7  -9   47.00   11.20
   2   7  -9   62.09    8.90
  -2   7   9   52.29   13.30
   1  -7  -9   49.99   10.90
  -1  -7   9   55.89   10.70
  -1  -7   9   49.50    9.80
  -1  -7   9   52.49   10.40
   1  -7  -9   26.70   10.70
  -1  -7   9   51.19    9.90
   1  -7  -9   44.40   10.50
   1  -7  -9   44.20   11.70
   1   7  -9   57.89    7.10
  -1   7   9   58.59   11.40
   1   7  -9   52.69    9.70
   1   7  -9   58.09    7.50
  -1   7   9   61.49   11.80
  -1   7   9   37.20   10.10
  -1   7   9   26.50    9.80
   1   7  -9   59.09   10.90
   0  -7  -9  124.79   15.80
   0  -7   9  139.09   16.80
   0  -7   9  131.79   16.80
   0  -7  -9  134.09   14.00
   0  -7   9  149.49   14.50
   0  -7  -9  120.79   15.50
   0  -7   9  137.89   15.80
   0  -7  -9  128.29   16.50
   0   7   9  127.39   15.70
   0   7  -9  137.49   16.50
   0   7  -9  138.99   14.50
   0   7   9  138.89   14.20
   0   7  -9  148.49   13.70
   0   7  -9  145.89   16.60
   0   7   9  148.19   14.00
   0   7   9  157.48   15.50
   1  -7   9  156.18   19.10
  -1  -7  -9  121.79   15.80
   1  -7   9  119.19   15.60
  -1  -7  -9  136.39   13.60
  -1  -7  -9  140.09   18.10
   1  -7   9  161.88   18.30
  -1  -7  -9  145.59   17.60
   1  -7   9  152.18   19.10
  -1   7  -9  116.49   13.10
   1   7   9  161.98   15.30
  -1   7  -9  127.79   13.90
   1   7   9  128.39   13.50
   1   7   9  136.29   13.80
  -1   7  -9  139.49   14.80
  -1   7  -9  138.59   14.70
   1   7   9  125.19   14.20
  -2  -7  -9   85.39   13.50
   2  -7   9   68.69   15.80
   2  -7   9   65.69   14.80
  -2  -7  -9   59.79   12.00
  -2  -7  -9   67.49   12.20
  -2  -7  -9   49.30   12.60
   2  -7   9   97.39   16.40
  -2   7  -9   55.19   15.20
  -2   7  -9   71.49   15.30
  -2   7  -9   55.29   14.30
   2   7   9   50.39   11.30
  -3  -7  -9   36.00   12.10
   3  -7   9   -3.10   20.10
   3  -7   9   -6.20   14.10
   3  -7   9   24.70   18.60
  -3  -7  -9   -5.60   13.60
  -3  -7  -9   13.80   12.80
  -3  -7  -9   23.50   14.90
   3  -7   9   13.10   17.40
  -3   7  -9    2.00   16.00
  -3   7  -9    9.20   16.30
   3   7   9    5.20   10.50
  -3   7  -9   -5.70   15.00
   3   7   9    3.80   13.10
  -3   7  -9  -17.70   17.50
   3  -8  -9    6.50   16.30
  -3  -8   9   27.50   12.00
  -3  -8   9    8.50   10.50
  -3  -8   9   22.10   13.10
   3  -8  -9   -4.10   16.60
   3  -8  -9    7.30   16.30
  -3  -8   9   15.20    9.00
   3  -8  -9   11.30   15.10
  -3   8   9  -12.10   15.80
  -3   8   9   -8.00   15.60
  -3   8   9   14.40   16.80
  -3   8   9   12.90   17.60
   3   8  -9    2.10    6.60
  -2  -8   9   14.70   10.00
  -2  -8   9   11.10    9.50
   2  -8  -9   -0.50   12.70
   2  -8  -9   16.10   13.30
   2  -8  -9    4.50   10.90
  -2  -8   9   19.30   10.40
  -2  -8   9    8.10    8.70
  -2   8   9    2.60   12.50
  -2   8   9    8.50   12.30
   2   8  -9   14.70    7.90
  -2   8   9   19.50   13.70
  -1  -8   9   20.30    9.50
   1  -8  -9   31.30   11.60
  -1  -8   9   25.50    9.80
   1  -8  -9   40.30   10.80
   1  -8  -9   32.80   10.40
  -1  -8   9   32.60   10.00
   1  -8  -9   30.50   11.20
  -1  -8   9   40.10   11.00
  -1   8   9   18.20   10.20
  -1   8   9   35.60   11.30
   1   8  -9   16.70    9.90
  -1   8   9   34.80   11.50
  -1   8   9   21.20   10.50
   1   8  -9   22.60    8.70
   0  -8   9    9.90   10.00
   0  -8  -9   10.40   10.30
   0  -8  -9    8.30    9.20
   0  -8   9   16.00   10.00
   0  -8   9   14.00    9.60
   0  -8  -9   17.00    9.80
   0  -8  -9    7.10    9.00
   0  -8   9   20.30   11.10
   0   8  -9   18.70    7.50
   0   8   9   17.00    9.40
   0   8   9    1.80    9.70
   0   8   9   22.00   10.80
   0   8  -9   20.40   10.40
   0   8  -9    8.20    9.90
   0   8   9    5.80    8.80
   0   8  -9    6.00    7.60
   1  -8   9  171.28   21.30
   1  -8   9  156.58   17.20
  -1  -8  -9  150.18   16.40
  -1  -8  -9  132.89   14.30
   1  -8   9  157.58   19.60
   1  -8   9  130.09   15.50
  -1  -8  -9  113.39   13.10
   1   8   9  138.39   13.30
   1   8   9  144.19   13.30
  -1   8  -9  139.79   17.60
  -1   8  -9  155.18   18.10
  -1   8  -9  167.88   19.60
  -2  -8  -9    6.30   11.60
  -2  -8  -9   -3.20   11.80
   2  -8   9    7.50   13.80
   2  -8   9   -5.70   14.50
  -2  -8  -9   -5.00   10.40
  -2  -8  -9    0.90   11.60
   2  -8   9   11.50   14.60
   2   8   9  -17.30   10.80
  -2   8  -9  -18.20   12.30
  -2   8  -9   -8.20   13.80
   2   8   9  -20.20    7.80
  -2   8  -9   -7.50   14.60
  -3  -8  -9   -1.70   13.50
  -3  -8  -9   14.50   11.70
   3  -8   9  -28.40   18.10
  -3  -8  -9    6.30   13.60
   3  -8   9    4.50   19.40
   3  -8   9   -7.20   20.60
  -3  -8  -9  -18.10   14.80
   3  -8   9   17.70   19.20
  -3   8  -9  -31.40   17.60
   3   8   9   22.10   10.70
   3   8   9    1.50   12.80
  -3   8  -9    6.20   20.00
  -3   8  -9   11.20   17.70
  -3   8  -9    2.60   18.70
   3  -9  -9   93.09   20.90
   3  -9  -9  101.19   19.90
  -3  -9   9   81.39   14.70
   3  -9  -9   58.99   18.90
  -3  -9   9   56.49   14.30
   3  -9  -9   91.79   20.00
  -3   9   9   57.49   19.60
  -3   9   9   82.89   19.80
  -3   9   9   76.19   19.90
  -3   9   9   78.99   19.70
  -2  -9   9   39.20   11.70
   2  -9  -9   34.00   13.30
   2  -9  -9   32.20   14.70
  -2  -9   9   54.29    9.90
  -2  -9   9   41.90    9.80
   2  -9  -9   52.59   14.30
  -2  -9   9   44.90   11.70
  -2   9   9   49.80   13.90
  -2   9   9   26.90   14.80
  -2   9   9   26.20   14.30
  -2   9   9   62.19   15.10
   1  -9  -9  111.19   14.60
   1  -9  -9  129.39   14.70
  -1  -9   9  104.19   12.50
  -1  -9   9  102.09   13.50
   1  -9  -9  122.49   15.20
   1  -9  -9  104.29   13.00
  -1  -9   9  123.69   12.60
  -1  -9   9  113.29   13.10
  -1   9   9  104.49   14.10
  -1   9   9  116.59   14.30
   1   9  -9  105.89   11.90
  -1   9   9  115.89   14.50
  -1   9   9  115.19   14.70
   0  -9  -9  183.58   16.80
   0  -9   9  162.28   19.30
   0  -9   9  146.39   18.10
   0  -9  -9  160.58   17.30
   0  -9  -9  163.48   17.90
   0  -9   9  191.38   18.20
   0  -9  -9  144.79   18.80
   0  -9   9  150.68   19.70
   0   9   9  167.18   19.00
   0   9  -9  171.38   14.10
   0   9  -9  168.28   18.80
   0   9   9  179.88   18.50
   0   9   9  180.58   17.00
   0   9  -9  159.68   14.90
   0   9   9  170.88   16.80
  -1  -9  -9  146.69   18.40
  -1  -9  -9  146.49   14.70
  -1  -9  -9  151.08   18.50
   1  -9   9  176.78   19.00
   1  -9   9  159.98   17.30
   1  -9   9  161.38   16.30
   1  -9   9  184.88   22.40
  -1   9  -9  160.78   20.10
   1   9   9  145.89   12.40
   1   9   9  157.58   12.60
  -1   9  -9  147.49   19.00
   1   9   9  132.89   14.20
  -1   9  -9  162.98   19.90
  -1   9  -9  166.88   17.80
  -2  -9  -9   47.10   12.20
  -2  -9  -9   77.29   13.10
   2  -9   9   44.80   17.50
   2  -9   9   76.59   16.20
   2  -9   9   45.90   16.30
  -2  -9  -9   65.79   13.70
  -2  -9  -9   54.79   14.40
   2  -9   9   42.90   17.40
  -2   9  -9   51.39   20.50
  -2   9  -9   80.99   16.80
  -2   9  -9   76.79   17.20
  -2   9  -9   67.29   15.60
   2   9   9   68.29   13.20
   2 -10  -9  394.36   30.20
   2 -10  -9  446.36   33.50
  -2 -10   9  404.86   22.30
   2 -10  -9  450.45   32.50
  -2 -10   9  423.46   26.10
  -2 -10   9  405.26   22.00
  -2 -10   9  436.76   27.90
   2 -10  -9  395.96   30.50
  -2  10   9  382.76   30.50
  -2  10   9  436.96   32.50
  -2  10   9  418.26   31.50
   1 -10  -9   -0.40   12.50
  -1 -10   9   -9.40   10.40
  -1 -10   9   -6.90   10.10
   1 -10  -9   15.80   11.70
  -1 -10   9  -10.30    9.00
   1 -10  -9    8.60   10.20
  -1 -10   9   -8.60   11.20
   1 -10  -9   18.20   12.50
  -1  10   9   -2.90   11.90
   1  10  -9    2.40    7.80
  -1  10   9   13.50   11.50
  -1  10   9    6.70   12.00
  -1  10   9    9.50   12.30
   0 -10   9  247.48   21.60
   0 -10  -9  245.68   21.00
   0 -10  -9  275.67   21.20
   0 -10  -9  226.08   21.80
   0 -10   9  257.67   22.60
   0 -10  -9  298.57   24.00
   0 -10   9  231.88   23.50
   0 -10   9  253.07   20.20
   0  10   9  239.08   19.40
   0  10   9  260.17   21.60
   0  10  -9  261.07   21.90
   0  10   9  266.07   19.70
   0  10  -9  251.27   16.20
  -1 -10  -9  143.89   15.80
   1 -10   9  157.98   16.90
  -1 -10  -9  120.69   14.90
   1 -10   9  175.68   19.60
   1 -10   9  133.39   17.40
  -1 -10  -9  133.69   14.70
  -1 -10  -9  147.39   19.20
   1 -10   9  170.98   19.80
  -1  10  -9  126.49   15.90
  -1  10  -9  152.78   18.20
  -1  10  -9  164.28   20.70
  -1  10  -9  171.68   19.80
   2 -10   9   55.49   17.30
  -2 -10  -9   57.09   15.50
  -2 -10  -9   49.70   12.60
  -2 -10  -9   58.89   14.40
   2 -10   9   42.50   18.40
  -2 -10  -9   64.89   12.80
   2 -10   9   79.99   18.60
   2 -10   9   67.39   19.30
  -2  10  -9   71.29   16.80
  -2  10  -9   67.69   17.50
   2  10   9   60.19   13.30
  -2  10  -9   75.09   17.90
  -2  10  -9   35.20   15.70
  -2 -11   9   28.00   12.10
  -2 -11   9   -4.70   14.10
  -2 -11   9    6.50    7.80
   2 -11  -9   17.50   15.50
   2 -11  -9    1.60   14.60
   2 -11  -9   13.20   17.00
   2 -11  -9    2.20   16.50
  -2  11   9  -20.80   16.10
  -2  11   9   -4.00   15.70
  -2  11   9   11.50   15.40
  -1 -11   9  367.96   24.50
  -1 -11   9  352.86   22.20
  -1 -11   9  319.77   26.60
   1 -11  -9  401.96   26.90
   1 -11  -9  342.47   28.30
   1 -11  -9  336.37   28.00
  -1 -11   9  371.06   24.00
   1 -11  -9  372.46   25.90
  -1  11   9  360.66   27.40
  -1  11   9  390.16   28.20
   1  11  -9  336.67   23.40
  -1  11   9  338.17   27.80
  -1  11   9  373.86   25.90
   0 -11  -9  413.36   27.00
   0 -11  -9  399.66   26.40
   0 -11  -9  397.86   28.80
   0 -11   9  375.16   25.00
   0 -11   9  391.26   27.40
   0 -11   9  390.46   29.20
   0 -11  -9  456.55   26.00
   0 -11   9  409.36   26.70
   0  11   9  393.06   23.60
   0  11   9  408.56   26.10
   0  11   9  384.76   23.40
   1 -11   9  449.86   31.20
  -1 -11  -9  357.36   25.30
   1 -11   9  377.86   28.40
   1 -11   9  350.86   31.10
  -1 -11  -9  358.16   28.60
  -1 -11  -9  395.56   26.40
   1 -11   9  374.96   28.60
  -1 -11  -9  418.06   26.10
  -1  11  -9  417.56   27.00
  -1  11  -9  431.36   26.00
   1  11   9  386.56   26.60
  -1  11  -9  404.56   27.90
  -1  11  -9  364.86   29.90
  -2 -11  -9  154.38   15.60
  -2 -11  -9  153.48   16.70
   2 -11   9  184.08   22.40
  -2 -11  -9  182.98   18.90
   2 -11   9  194.58   25.00
   2 -11   9  132.39   23.30
   2 -11   9  199.18   23.90
  -2  11  -9  165.38   23.30
  -2  11  -9  182.48   21.40
  -2  11  -9  161.88   21.10
  -2  11  -9  199.78   21.90
   2  11   9  151.08   16.40
   1 -12  -9  117.49   17.20
  -1 -12   9  139.39   15.50
  -1 -12   9  127.59   17.60
   1 -12  -9  138.29   17.80
   1 -12  -9  131.09   17.90
  -1 -12   9  137.09   13.60
  -1 -12   9  147.39   16.40
   1 -12  -9  139.39   19.60
  -1  12   9  142.79   19.20
  -1  12   9  146.49   18.20
  -1  12   9  145.69   17.30
  -1  12   9  162.48   18.80
   1  12  -9  143.49   14.60
   0 -12   9   77.39   13.70
   0 -12   9   67.29   16.20
   0 -12  -9   97.19   15.70
   0 -12  -9   81.29   14.90
   0 -12   9   92.79   16.10
   0 -12  -9   80.49   15.90
   0 -12   9   70.09   14.60
   0 -12  -9   99.19   14.80
   0  12   9   74.19   11.70
   0  12   9   85.89   15.70
   0  12  -9   86.59   15.30
   1 -12   9  225.68   29.00
  -1 -12  -9  206.18   26.50
  -1 -12  -9  258.07   24.20
  -1 -12  -9  254.67   22.50
   1 -12   9  301.77   27.20
   1 -12   9  273.57   27.50
   1 -12   9  249.97   29.90
  -1 -12  -9  275.67   24.20
  -1  12  -9  245.68   23.30
  -1  12  -9  215.48   28.10
  -1  12  -9  266.27   23.30
   1  12   9  234.68   24.70
   1 -13  -9  249.97   28.10
   1 -13  -9  275.37   29.00
  -1 -13   9  248.38   23.10
   1 -13  -9  289.27   30.90
  -1 -13   9  222.18   20.40
   1 -13  -9  256.27   27.30
  -1 -13   9  217.28   27.80
  -1 -13   9  261.57   25.30
  -1  13   9  236.58   28.00
   1  13  -9  238.28   22.20
  -1  13   9  257.97   25.40
  -1  13   9  243.08   28.00
   0 -13   9   88.99   18.70
   0 -13   9  100.19   16.20
   0 -13  -9   63.19   17.00
   0 -13  -9  106.59   15.60
   0 -13  -9  103.79   16.30
   0 -13   9   83.39   16.60
   0 -13  -9   85.19   16.10
   0 -13   9   89.39   17.20
   0  13  -9   77.19   16.00
   0  13   9   69.69   17.20
   0  13   9   92.29   11.50
   1 -13   9  137.89   19.70
   1 -13   9  112.29   19.00
   1 -13   9  118.49   22.60
  -1 -13  -9  145.09   18.00
  -1 -13  -9  123.29   15.90
   1 -13   9  125.19   21.00
  -1 -13  -9  106.79   17.20
  -1 -13  -9  150.58   19.70
   1  13   9  141.69   17.10
  -1  13  -9  141.19   16.30
  -1  13  -9  107.09   24.50
   3   0 -10  416.96   27.80
  -3   0  10  428.36   28.40
  -3   0  10  488.55   28.60
   3   0 -10  410.96   27.40
  -3   0  10  433.86   28.20
   3   0 -10  436.26   27.30
  -3   0  10  426.76   27.30
   3   0 -10  424.26   24.80
   2   0 -10  629.24   29.70
   2   0 -10  615.04   30.80
  -2   0  10  630.94   31.40
   2   0 -10  590.74   31.10
  -2   0  10  603.44   30.90
   2   0 -10  589.94   30.50
  -2   0  10  613.74   31.30
   1   0 -10 2300.87   89.19
   1   0 -10 2142.99   88.59
  -1   0  10 2244.18   88.79
   1   0 -10 2242.48   88.69
  -1   0  10 2139.89   88.09
  -1   0  10 2332.17   88.79
   1   0 -10 2252.77   88.09
  -1   0  10 2192.58   88.99
   0   0  10   12.20    8.40
   0   0 -10   27.20    8.90
   0   0  10   12.30    8.80
   0   0 -10    5.70    8.50
   0   0  10   13.70    8.70
   0   0  10    9.50    8.40
   0   0 -10   18.40    8.60
   0   0 -10    9.50    8.50
  -1   0 -10 1241.88   52.19
   1   0  10 1177.08   52.39
   1   0  10 1179.98   51.89
   1   0  10 1251.27   52.69
  -1   0 -10 1220.48   52.89
  -1   0 -10 1292.77   52.79
  -1   0 -10 1206.98   52.59
   1   0  10 1217.98   52.49
  -2   0 -10   58.99   11.80
   2   0  10   44.40   11.90
  -2   0 -10   29.90   11.10
   2   0  10   43.20   12.40
   2   0  10   50.79   12.90
  -2   0 -10   19.90   12.10
   2   0  10   28.20   11.20
  -2   0 -10   34.40   11.50
   3   0  10  208.58   23.20
   3   0  10  222.38   25.60
  -3   0 -10  205.08   23.90
   3   0  10  215.38   23.80
   3   0  10  212.68   24.10
  -3   0 -10  248.38   26.10
  -3   0 -10  233.58   21.90
   3  -1 -10   47.70   13.20
   3  -1 -10   55.99   11.80
  -3  -1  10   40.10   12.30
   3  -1 -10   27.90   13.30
  -3  -1  10   43.80   12.50
  -3  -1  10   62.59   13.60
  -3  -1  10   56.59   12.90
   3  -1 -10   42.20   12.10
   3   1 -10   40.80   12.60
   3   1 -10   48.70    9.80
  -3   1  10   76.79   14.30
  -3   1  10   29.80   13.10
  -3   1  10   38.80   13.00
   3   1 -10   32.10   11.90
  -3   1  10   38.30   13.10
   3   1 -10   45.40   12.60
   2  -1 -10  985.20   43.00
  -2  -1  10  959.90   43.40
   2  -1 -10  967.70   43.80
  -2  -1  10 1025.00   44.20
   2  -1 -10  986.30   44.00
  -2  -1  10 1018.80   43.60
   2  -1 -10  956.50   43.50
   2   1 -10  981.80   43.60
  -2   1  10 1039.90   44.40
   2   1 -10  994.70   43.80
  -2   1  10  997.40   44.10
   2   1 -10  940.41   43.20
   2   1 -10  948.71   41.70
  -2   1  10  976.50   44.10
  -2   1  10  941.51   43.20
   1  -1 -10   28.50    9.00
  -1  -1  10   25.50    9.00
  -1  -1  10   14.90    7.80
   1  -1 -10   17.00    9.00
  -1  -1  10   17.50    9.50
   1  -1 -10   35.70    9.80
  -1  -1  10   22.30    9.20
   1  -1 -10   29.60    9.50
   1   1 -10   14.50    8.10
  -1   1  10   10.90    9.60
  -1   1  10   20.20    9.00
   1   1 -10    7.80    8.00
   1   1 -10   27.20    8.20
  -1   1  10   16.70    8.50
  -1   1  10   28.20    9.70
   1   1 -10   18.60    9.60
   0  -1 -10  867.11   38.80
   0  -1  10  863.41   38.60
   0  -1 -10  862.61   38.40
   0  -1  10  859.11   38.70
   0  -1  10  883.11   38.50
   0  -1 -10  806.02   38.40
   0  -1  10  875.71   38.20
   0  -1 -10  837.32   38.60
   0   1 -10  855.21   38.10
   0   1  10  841.72   38.50
   0   1  10  787.52   38.70
   0   1 -10  858.71   39.00
   0   1 -10  884.91   38.70
   0   1  10  869.21   38.00
   0   1 -10  871.91   39.00
   0   1  10  827.22   38.30
   1  -1  10  409.86   24.10
   1  -1  10  386.16   24.20
   1  -1  10  396.36   24.50
   1  -1  10  422.36   24.50
  -1  -1 -10  406.46   23.90
  -1  -1 -10  358.96   24.40
  -1  -1 -10  411.66   24.10
  -1  -1 -10  403.86   24.40
   1   1  10  392.36   24.20
  -1   1 -10  418.26   24.00
   1   1  10  390.56   24.10
  -1   1 -10  433.06   24.60
  -1   1 -10  410.56   24.90
  -1   1 -10  378.96   24.20
   1   1  10  424.96   23.90
   1   1  10  416.36   24.50
   2  -1  10  607.04   32.20
   2  -1  10  606.64   32.30
   2  -1  10  566.84   32.70
   2  -1  10  610.94   32.20
  -2  -1 -10  634.44   33.10
  -2  -1 -10  562.64   32.70
  -2  -1 -10  567.64   31.60
  -2  -1 -10  586.94   31.50
  -2   1 -10  595.24   33.10
   2   1  10  604.74   32.50
  -2   1 -10  642.94   33.20
  -2   1 -10  618.14   32.00
   2   1  10  584.04   31.70
   2   1  10  612.14   31.30
  -2   1 -10  610.34   32.20
   2   1  10  622.14   32.00
   3  -1  10  130.09   17.50
   3  -1  10  148.29   17.80
   3  -1  10  156.78   18.20
   3  -1  10  180.28   19.90
  -3  -1 -10  181.68   23.30
  -3  -1 -10  146.49   18.00
  -3  -1 -10  155.88   19.00
   3   1  10  139.29   17.60
   3   1  10  171.98   21.60
  -3   1 -10  159.78   19.50
   3   1  10  141.79   16.10
  -3   1 -10  215.08   25.50
   3   1  10  194.28   24.80
  -3   1 -10  136.29   17.80
  -3  -2  10  175.18   21.30
  -3  -2  10  181.18   17.20
  -3  -2  10  156.28   16.40
   3  -2 -10  176.78   21.60
   3  -2 -10  172.28   21.80
   3  -2 -10  177.68   18.90
   3  -2 -10  178.38   21.70
  -3  -2  10  169.68   20.90
  -3   2  10  182.58   22.60
   3   2 -10  183.68   17.50
   3   2 -10  159.68   15.00
   3   2 -10  188.68   20.30
  -3   2  10  196.88   19.10
  -3   2  10  175.28   22.70
  -3   2  10  205.38   23.40
   2  -2 -10   11.70    9.60
   2  -2 -10    6.20    9.60
  -2  -2  10    2.40    9.50
  -2  -2  10   25.90   10.10
  -2  -2  10    6.90    9.80
   2  -2 -10   12.50    9.20
   2  -2 -10    6.40    8.50
   2   2 -10    2.00    9.70
  -2   2  10   -3.80   10.30
   2   2 -10   11.20    9.10
   2   2 -10   13.20    9.30
   2   2 -10   16.40    7.60
  -2   2  10    8.40   10.80
  -2   2  10   14.30   10.00
  -2   2  10   14.50    9.40
  -1  -2  10  670.53   31.80
   1  -2 -10  722.83   32.30
   1  -2 -10  700.83   32.60
  -1  -2  10  673.93   32.50
   1  -2 -10  696.63   32.50
   1  -2 -10  680.43   32.50
  -1  -2  10  675.03   32.20
  -1  -2  10  675.53   32.40
   1   2 -10  670.93   31.10
   1   2 -10  675.03   32.80
  -1   2  10  673.23   32.40
   1   2 -10  684.23   32.70
  -1   2  10  636.74   31.80
  -1   2  10  723.83   33.50
   1   2 -10  710.03   32.40
  -1   2  10  661.43   32.70
   0  -2 -10  183.78   16.30
   0  -2  10  185.28   16.90
   0  -2  10  189.28   17.10
   0  -2 -10  156.18   16.30
   0  -2  10  171.38   16.60
   0  -2  10  200.18   16.70
   0  -2 -10  205.88   17.20
   0   2  10  141.39   17.30
   0   2 -10  183.78   16.70
   0   2  10  164.28   16.00
   0   2 -10  215.48   17.70
   0   2  10  176.78   16.70
   0   2 -10  203.58   16.80
   0   2  10  186.18   16.30
   0   2 -10  202.08   18.00
  -1  -2 -10  906.61   41.60
   1  -2  10  964.70   41.70
  -1  -2 -10  879.21   41.10
  -1  -2 -10  897.01   41.50
   1  -2  10  863.21   41.60
  -1  -2 -10  946.51   41.10
   1  -2  10  887.21   41.40
   1  -2  10  909.81   41.50
  -1   2 -10  918.41   42.10
  -1   2 -10  908.21   41.80
   1   2  10  949.40   41.40
   1   2  10  932.51   41.40
  -1   2 -10  910.11   41.20
   1   2  10  883.31   40.40
  -1   2 -10  883.81   41.80
   1   2  10  960.20   41.80
  -2  -2 -10  174.58   18.20
   2  -2  10  162.68   20.30
   2  -2  10  141.29   16.40
  -2  -2 -10  166.78   20.40
   2  -2  10  169.08   21.10
  -2  -2 -10  191.88   21.20
  -2  -2 -10  185.38   19.20
   2  -2  10  187.58   20.30
   2   2  10  159.58   19.00
   2   2  10  164.68   19.90
  -2   2 -10  177.48   20.30
  -2   2 -10  176.78   17.30
  -2   2 -10  225.28   21.00
   2   2  10  205.98   20.00
   2   2  10  155.88   18.00
  -2   2 -10  192.88   21.20
   3  -2  10  121.59   17.70
  -3  -2 -10  139.09   16.90
  -3  -2 -10  146.49   16.40
   3  -2  10  144.59   18.30
  -3  -2 -10  157.78   18.40
  -3  -2 -10  100.79   17.30
   3  -2  10  123.29   18.40
   3   2  10  158.28   20.00
   3   2  10  111.99   17.60
  -3   2 -10  134.19   18.40
   3   2  10  143.59   17.80
  -3   2 -10  147.49   17.80
   3   2  10   99.89   14.10
  -3   2 -10  136.49   18.20
  -3  -3  10  174.58   20.40
   3  -3 -10  191.48   18.20
  -3  -3  10  173.38   20.70
   3  -3 -10  181.68   23.10
   3  -3 -10  164.08   21.60
  -3  -3  10  178.98   21.10
   3  -3 -10  168.08   18.50
  -3  -3  10  179.18   21.10
   3   3 -10  159.18   12.30
  -3   3  10  168.18   18.80
  -3   3  10  209.88   24.20
  -3   3  10  194.98   19.70
  -3   3  10  155.28   18.00
  -2  -3  10   77.99   11.90
   2  -3 -10   97.99   13.20
  -2  -3  10   81.79   11.90
  -2  -3  10   79.39   11.00
   2  -3 -10   94.29   13.30
   2  -3 -10   70.69   12.60
   2  -3 -10   78.79   13.20
  -2  -3  10   98.89   12.80
   2   3 -10   71.79   10.90
   2   3 -10   69.99   11.20
  -2   3  10   79.79   12.20
  -2   3  10   74.59   13.00
  -2   3  10   66.79   11.90
   2   3 -10   71.49   11.30
   2   3 -10   85.19    9.20
  -2   3  10   75.79   13.00
   1  -3 -10    0.70    7.40
  -1  -3  10  -10.40    7.40
  -1  -3  10   -2.10    8.00
  -1  -3  10   -4.20    8.10
  -1  -3  10   -2.60    8.60
   1  -3 -10   -1.80    9.10
   1  -3 -10   -8.20    7.80
   1  -3 -10   -7.30    8.60
  -1   3  10    2.80    8.40
  -1   3  10    5.20    8.50
   1   3 -10   -3.70    8.60
   1   3 -10   -7.20    7.80
   1   3 -10   -6.00    7.00
  -1   3  10  -10.60    9.10
   1   3 -10   -8.90    8.30
  -1   3  10  -13.30    8.70
   0  -3 -10  131.69   15.80
   0  -3  10  141.49   15.80
   0  -3  10  138.69   15.80
   0  -3 -10   93.99   11.20
   0  -3  10  101.59   12.10
   0  -3 -10  122.79   15.00
   0  -3  10  124.49   15.30
   0   3  10  131.19   13.70
   0   3 -10  121.89   13.20
   0   3 -10  128.99   16.20
   0   3 -10  133.99   15.50
   0   3  10  110.39   13.00
   0   3  10  128.99   13.40
   0   3  10  126.29   15.00
   0   3 -10  152.78   15.50
  -1  -3 -10    8.60    9.20
   1  -3  10   -1.10    9.60
   1  -3  10   13.90    8.90
  -1  -3 -10   19.00   10.30
   1  -3  10   23.20   10.20
   1  -3  10   18.50   10.10
  -1  -3 -10   12.30    9.00
  -1  -3 -10   13.60    9.30
   1   3  10   19.60    9.20
   1   3  10    0.80    9.70
  -1   3 -10    4.90   10.60
  -1   3 -10    7.90    9.50
   1   3  10   -1.30    9.60
  -1   3 -10   18.80   10.50
   1   3  10    0.30    8.70
  -1   3 -10   22.80    9.90
  -2  -3 -10   78.59   13.30
   2  -3  10   87.59   14.70
  -2  -3 -10   84.49   12.40
  -2  -3 -10  116.09   15.30
  -2  -3 -10   74.39   12.30
   2  -3  10   92.29   14.30
   2  -3  10   99.59   15.20
   2  -3  10  103.49   14.20
   2   3  10   95.69   12.20
   2   3  10  111.49   13.40
  -2   3 -10  126.09   15.00
   2   3  10   67.59   12.90
   2   3  10   76.79   13.40
  -2   3 -10  110.29   15.00
  -2   3 -10  100.89   15.10
   3  -3  10    3.60   15.10
  -3  -3 -10    6.10   12.80
  -3  -3 -10   -1.20   14.10
  -3  -3 -10  -11.70   12.30
   3  -3  10  -16.60   14.60
  -3  -3 -10    3.20   14.30
   3  -3  10   17.30   15.40
   3  -3  10   16.10   17.60
  -3   3 -10    4.80   16.30
   3   3  10   16.30   11.10
  -3   3 -10  -11.90   13.90
   3   3  10   12.80   11.10
  -3   3 -10   11.30   15.50
   3   3  10   -5.20   14.60
   3   3  10    2.80   10.00
  -3   3 -10   11.70   15.60
  -3  -4  10   29.80   12.50
  -3  -4  10   28.50   12.90
   3  -4 -10   24.60   13.80
  -3  -4  10   22.80   11.50
   3  -4 -10   18.20   14.10
   3  -4 -10   29.00   13.00
  -3  -4  10   18.40   12.20
  -3   4  10   10.30   13.20
   3   4 -10   57.69   13.40
  -3   4  10   36.30   15.00
   3   4 -10    2.30    7.30
  -3   4  10   27.90   14.20
  -3   4  10   35.40   14.20
   2  -4 -10  107.59   13.40
   2  -4 -10  140.29   15.10
  -2  -4  10  111.59   12.80
  -2  -4  10  116.79   13.40
  -2  -4  10  135.79   13.90
   2  -4 -10  106.69   13.80
   2  -4 -10  119.59   14.60
  -2  -4  10  110.19   12.50
   2   4 -10  152.68   13.00
   2   4 -10  126.39   11.40
  -2   4  10  118.59   15.10
  -2   4  10  133.49   15.10
  -2   4  10  102.39   13.50
   1  -4 -10    4.70    8.60
  -1  -4  10    5.20    8.00
   1  -4 -10    6.00    9.50
   1  -4 -10    2.00    9.00
  -1  -4  10   -2.40    8.90
   1  -4 -10   -3.00    8.40
  -1  -4  10  -10.70    8.10
  -1  -4  10    2.10    8.40
  -1   4  10    0.80    9.80
  -1   4  10   -1.40    8.20
   1   4 -10   -2.60    8.90
   1   4 -10    4.50    8.40
   1   4 -10   -0.50    6.80
   1   4 -10   -2.60    7.90
  -1   4  10    6.80    8.80
  -1   4  10    3.60    9.40
   0  -4 -10  103.09   13.00
   0  -4  10   85.59   12.00
   0  -4  10   77.99   11.30
   0  -4 -10   92.79   11.70
   0  -4  10   86.79   11.90
   0  -4 -10   80.49   10.80
   0  -4 -10  111.69   12.70
   0  -4  10   74.89   11.20
   0   4  10  113.49   13.10
   0   4 -10   96.29   11.10
   0   4  10  100.39   11.80
   0   4  10   94.09   12.50
   0   4 -10  106.39   12.90
   0   4 -10   96.49   12.10
   0   4 -10  101.89   13.20
   0   4  10   99.79   11.90
  -1  -4 -10  -11.80   10.10
   1  -4  10    0.20    9.90
   1  -4  10   10.70   10.30
   1  -4  10   -1.30    9.00
  -1  -4 -10    9.40    9.20
  -1  -4 -10    5.00    9.60
  -1  -4 -10    3.30    9.00
   1  -4  10   19.30    9.60
  -1   4 -10    0.80    9.70
   1   4  10  -11.40    8.30
   1   4  10    6.80    9.60
   1   4  10    2.20    9.40
   1   4  10   -7.10   10.00
  -1   4 -10    6.90    8.80
  -1   4 -10    6.00   10.30
  -1   4 -10   15.50   10.10
  -2  -4 -10    1.70    9.90
  -2  -4 -10   -5.40   11.50
   2  -4  10    4.90   11.60
   2  -4  10   -6.10   12.30
  -2  -4 -10    1.90    9.50
  -2  -4 -10   -2.30   10.80
   2  -4  10    8.10   12.50
   2  -4  10  -24.80   11.60
   2   4  10    1.00   10.80
  -2   4 -10    1.80   11.70
   2   4  10   -6.50    9.70
   2   4  10   17.50    9.10
  -2   4 -10   -0.80   11.60
   2   4  10    7.60   11.80
  -2   4 -10    3.30   11.90
   3  -4  10    7.10   17.10
   3  -4  10   16.80   16.20
  -3  -4 -10   12.60   12.10
   3  -4  10   24.80   17.10
  -3  -4 -10   -9.20   11.80
  -3  -4 -10   -3.10   14.20
  -3  -4 -10   18.50   14.20
   3  -4  10   13.80   15.30
   3   4  10   17.50   14.60
   3   4  10    1.00    7.40
   3   4  10   -3.70    9.70
  -3   4 -10    4.60   15.00
  -3   4 -10    9.70   14.30
  -3   4 -10   -1.50   16.10
   3   4  10   -7.40   10.80
  -3   4 -10    1.40   16.20
   3  -5 -10    5.00   14.00
  -3  -5  10  -10.20   11.20
   3  -5 -10   11.50   13.50
  -3  -5  10   -2.80   11.40
   3  -5 -10   -2.10   13.20
  -3  -5  10    0.90   11.00
   3  -5 -10   14.00   14.90
  -3   5  10  -12.50   14.10
   3   5 -10   10.70   12.90
  -3   5  10    2.20   15.20
  -3   5  10  -12.40   14.70
   3   5 -10   -8.20    7.30
  -3   5  10    9.60   14.50
  -2  -5  10  108.29   14.00
  -2  -5  10   87.99   12.30
  -2  -5  10   98.19   12.00
  -2  -5  10   99.49   12.60
   2  -5 -10   96.79   13.30
   2  -5 -10   98.09   13.80
   2  -5 -10  102.59   14.80
   2  -5 -10  117.89   15.40
   2   5 -10   95.69   11.50
  -2   5  10  103.39   14.20
  -2   5  10  108.79   14.60
  -2   5  10  118.29   15.20
  -1  -5  10  155.38   16.40
  -1  -5  10  185.28   17.00
   1  -5 -10  160.08   18.20
   1  -5 -10  156.98   18.80
   1  -5 -10  168.08   17.20
  -1  -5  10  165.58   17.30
   1  -5 -10  143.99   16.80
  -1  -5  10  171.48   17.00
   1   5 -10  162.18   18.70
   1   5 -10  166.48   13.50
  -1   5  10  170.48   17.70
   1   5 -10  163.38   14.30
  -1   5  10  169.38   19.40
  -1   5  10  164.28   17.50
  -1   5  10  168.18   18.00
   1   5 -10  194.58   17.20
   0  -5  10  473.75   25.70
   0  -5 -10  482.75   26.30
   0  -5  10  464.05   26.00
   0  -5 -10  464.45   26.10
   0  -5 -10  461.15   25.30
   0  -5  10  470.45   26.20
   0  -5 -10  370.96   24.20
   0  -5  10  459.65   26.10
   0   5  10  455.35   24.90
   0   5 -10  469.95   25.60
   0   5  10  444.46   25.60
   0   5  10  461.95   25.60
   0   5  10  465.85   26.00
   0   5 -10  452.25   26.60
   0   5 -10  480.75   25.10
   0   5 -10  468.45   25.00
   1  -5  10   11.20    9.90
  -1  -5 -10   -2.90    8.90
  -1  -5 -10    8.20    8.40
   1  -5  10   21.00   10.30
  -1  -5 -10    2.50   10.10
  -1  -5 -10    9.30   10.10
   1  -5  10   17.10   10.30
   1  -5  10    0.80   11.00
   1   5  10    7.50   10.20
   1   5  10   27.00    9.70
   1   5  10   11.50    9.40
   1   5  10   16.10    9.10
  -1   5 -10   10.00   10.10
  -1   5 -10   20.30   10.60
  -1   5 -10   17.90   10.50
  -1   5 -10   27.10   11.20
   2  -5  10   41.10   13.30
  -2  -5 -10   43.20   12.60
  -2  -5 -10   57.19   12.40
  -2  -5 -10   17.50   11.00
   2  -5  10   72.39   14.60
  -2  -5 -10   58.59   12.50
   2  -5  10   42.60   15.00
  -2   5 -10   30.20   14.00
   2   5  10   51.19   10.50
   2   5  10   27.50   12.50
  -2   5 -10   43.20   13.30
   2   5  10   26.50    9.00
   3  -5  10   37.40   17.30
   3  -5  10   15.00   16.80
   3  -5  10   26.60   15.80
  -3  -5 -10   58.39   15.90
  -3  -5 -10   44.10   15.70
   3  -5  10   50.69   17.50
  -3  -5 -10   42.60   14.10
  -3  -5 -10   38.80   13.60
  -3   5 -10   18.10   16.60
  -3   5 -10   45.90   17.40
   3   5  10    5.10   14.70
  -3   5 -10   32.20   17.10
   3   5  10   16.10   11.40
  -3   5 -10   32.00   18.60
   3  -6 -10  319.07   31.20
   3  -6 -10  361.86   29.40
   3  -6 -10  352.06   31.60
  -3  -6  10  339.27   23.10
  -3  -6  10  333.57   25.20
   3  -6 -10  422.56   32.10
  -3  -6  10  306.37   25.50
  -3   6  10  339.67   29.70
  -3   6  10  313.87   30.20
  -3   6  10  310.07   30.30
  -3   6  10  369.66   31.60
   3   6 -10  331.77   27.00
   2  -6 -10  143.29   17.30
  -2  -6  10  118.69   13.20
   2  -6 -10  129.59   15.00
   2  -6 -10  110.89   15.00
  -2  -6  10  132.89   16.90
  -2  -6  10  138.89   13.70
  -2  -6  10  120.39   13.80
  -2   6  10  145.89   16.50
  -2   6  10  138.49   16.60
   2   6 -10  149.99   15.30
  -2   6  10  140.09   16.90
  -1  -6  10  210.08   18.70
  -1  -6  10  200.18   18.50
   1  -6 -10  219.08   19.30
   1  -6 -10  237.38   20.30
  -1  -6  10  206.18   18.20
   1  -6 -10  242.98   21.00
  -1  -6  10  213.78   18.70
   1  -6 -10  216.28   19.30
  -1   6  10  209.18   20.80
   1   6 -10  202.18   19.70
   1   6 -10  224.38   14.30
   1   6 -10  226.78   14.20
  -1   6  10  237.08   19.20
  -1   6  10  249.08   20.00
   1   6 -10  204.38   18.80
  -1   6  10  195.88   19.60
   0  -6 -10   10.30    9.70
   0  -6 -10   41.30   10.20
   0  -6  10   33.40   10.10
   0  -6  10   17.80   10.00
   0  -6  10   30.70   10.60
   0  -6  10   29.30   11.00
   0  -6 -10   16.90    9.00
   0  -6 -10    7.70   10.00
   0   6 -10   28.90   10.90
   0   6  10   14.20   10.00
   0   6 -10   20.80    9.60
   0   6  10   29.50   10.60
   0   6 -10   29.60    9.40
   0   6 -10   24.50    9.40
   0   6  10   15.00   10.10
   0   6  10   25.40    9.70
  -1  -6 -10  712.23   34.60
   1  -6  10  710.03   35.70
   1  -6  10  711.83   36.50
   1  -6  10  755.62   37.20
  -1  -6 -10  713.83   35.60
  -1  -6 -10  717.43   35.00
   1  -6  10  735.03   36.60
  -1  -6 -10  735.83   35.50
  -1   6 -10  699.03   35.50
   1   6  10  705.93   33.10
  -1   6 -10  735.63   35.70
   1   6  10  734.43   34.90
   1   6  10  725.63   35.50
  -1   6 -10  704.23   35.80
   1   6  10  703.63   33.50
  -1   6 -10  710.03   36.50
   2  -6  10  145.59   18.40
  -2  -6 -10  143.39   16.00
   2  -6  10  155.78   19.10
  -2  -6 -10  122.19   15.90
   2  -6  10  150.08   17.70
  -2  -6 -10  158.48   15.90
  -2  -6 -10  137.99   15.70
   2   6  10  134.79   14.50
  -2   6 -10  162.38   18.30
   2   6  10  114.29   14.00
  -2   6 -10  133.19   17.10
   3  -6  10   94.19   22.00
   3  -6  10   42.60   17.30
   3  -6  10   77.99   19.80
  -3  -6 -10   75.49   16.60
  -3  -6 -10   97.09   15.30
   3  -6  10  104.99   19.60
  -3  -6 -10   77.09   15.30
  -3  -6 -10   97.39   17.00
  -3   6 -10   67.69   18.80
  -3   6 -10   78.89   18.40
  -3   6 -10   71.69   18.30
   3   6  10   51.29   15.50
  -3   6 -10   89.09   20.70
  -3  -7  10  181.38   22.30
  -3  -7  10  192.98   21.00
  -3  -7  10  205.28   23.10
   3  -7 -10  241.38   23.20
   3  -7 -10  181.48   22.00
   3  -7 -10  222.48   24.20
  -3  -7  10  210.68   19.40
   3  -7 -10  225.68   23.40
  -3   7  10  175.78   21.40
  -3   7  10  251.97   30.00
   3   7 -10  200.08   24.10
  -3   7  10  170.78   21.10
  -3   7  10  212.08   22.40
   2  -7 -10  403.46   28.90
  -2  -7  10  391.96   23.40
  -2  -7  10  389.86   24.10
  -2  -7  10  392.16   24.30
  -2  -7  10  359.06   24.50
   2  -7 -10  403.66   28.40
   2  -7 -10  343.47   26.60
  -2   7  10  400.76   28.50
  -2   7  10  398.76   27.60
  -2   7  10  393.86   28.80
   2   7 -10  360.26   21.10
   1  -7 -10   77.89   13.60
  -1  -7  10   88.59   12.90
  -1  -7  10  106.89   13.20
   1  -7 -10   70.59   12.10
  -1  -7  10   90.79   12.60
   1  -7 -10   91.79   13.40
  -1  -7  10   92.89   12.60
   1  -7 -10   83.89   12.90
  -1   7  10   97.59   13.60
   1   7 -10   79.19    9.90
  -1   7  10   81.09   12.40
  -1   7  10   97.89   13.70
  -1   7  10   90.69   13.70
   1   7 -10   78.89    9.60
   0  -7 -10 1534.15   64.39
   0  -7  10 1548.95   64.49
   0  -7  10 1495.15   63.39
   0  -7 -10 1538.35   63.79
   0  -7 -10 1626.54   64.49
   0  -7 -10 1485.45   63.19
   0  -7  10 1520.15   64.09
   0  -7  10 1450.95   63.89
   0   7 -10 1482.55   64.19
   0   7 -10 1482.15   61.69
   0   7 -10 1548.65   62.09
   0   7 -10 1456.95   63.69
   0   7  10 1491.25   63.79
   0   7  10 1590.24   63.39
   0   7  10 1667.93   64.39
   0   7  10 1525.85   62.79
  -1  -7 -10   56.09   12.60
  -1  -7 -10   50.79   10.60
  -1  -7 -10   44.90   11.50
   1  -7  10   46.70   12.90
   1  -7  10   44.50   12.50
  -1  -7 -10   43.20   12.30
   1  -7  10   41.10   12.70
   1  -7  10   36.10   14.00
   1   7  10   31.20    9.30
  -1   7 -10   44.80   12.00
  -1   7 -10   35.30   12.20
  -1   7 -10   54.79   12.10
   1   7  10   30.30   11.60
   1   7  10   46.50    9.50
  -1   7 -10   53.49   12.00
   2  -7  10  592.34   36.50
   2  -7  10  598.34   36.60
  -2  -7 -10  578.04   32.60
  -2  -7 -10  616.94   33.20
  -2  -7 -10  599.94   33.40
   2  -7  10  616.44   36.10
  -2  -7 -10  568.14   33.10
  -2   7 -10  673.73   37.00
  -2   7 -10  588.14   35.00
  -2   7 -10  602.84   37.00
  -3  -7 -10   81.39   15.90
   3  -7  10   84.79   21.70
   3  -7  10   66.79   20.10
   3  -7  10   67.09   22.50
  -3  -7 -10   83.29   18.10
  -3  -7 -10   44.80   14.60
  -3  -7 -10   50.89   15.80
   3  -7  10   65.29   16.80
   3   7  10   58.99   15.10
  -3   7 -10   48.90   19.30
  -3   7 -10   54.99   21.30
  -3   7 -10   63.19   18.80
  -3   7 -10   81.99   20.60
  -3  -8  10  378.16   26.90
  -3  -8  10  355.46   24.80
   3  -8 -10  298.67   33.10
   3  -8 -10  371.56   35.70
  -3  -8  10  372.66   26.80
   3  -8 -10  388.36   35.00
  -3  -8  10  383.36   22.90
   3  -8 -10  475.15   33.30
  -3   8  10  372.36   34.50
  -3   8  10  314.77   33.70
   3   8 -10  338.57   25.40
  -3   8  10  325.07   31.60
  -3   8  10  374.76   33.30
  -2  -8  10   28.50   10.60
   2  -8 -10   55.59   14.70
  -2  -8  10   24.30   11.20
   2  -8 -10   26.00   13.50
   2  -8 -10   25.00   12.40
  -2  -8  10   18.20   11.10
  -2  -8  10   49.40   12.00
  -2   8  10   34.40   13.80
   2   8 -10   17.70   11.80
  -2   8  10   24.00   13.80
   2   8 -10    2.10    6.50
  -2   8  10   40.60   13.70
  -1  -8  10  622.34   30.50
   1  -8 -10  594.54   33.00
   1  -8 -10  583.84   33.10
   1  -8 -10  577.74   31.50
  -1  -8  10  573.74   31.50
   1  -8 -10  600.34   31.80
  -1  -8  10  570.14   30.30
  -1  -8  10  580.94   31.00
  -1   8  10  596.54   32.60
   1   8 -10  593.44   30.00
  -1   8  10  569.74   32.30
  -1   8  10  614.04   31.70
  -1   8  10  582.74   32.00
   0  -8  10   12.00   11.00
   0  -8 -10   -2.90   11.00
   0  -8  10   -0.10   10.00
   0  -8  10    5.90   10.90
   0  -8 -10    8.40   10.40
   0  -8  10  -13.80   11.10
   0  -8 -10  -14.60   10.50
   0  -8 -10   15.60   10.00
   0   8 -10    3.60   10.40
   0   8  10   13.90   10.90
   0   8  10   -2.90    9.00
   0   8 -10    1.00   10.70
   0   8  10    2.00    9.90
   0   8  10   10.60   10.60
   0   8 -10   -2.50    8.10
   0   8 -10    3.50    8.80
  -1  -8 -10  362.06   25.40
  -1  -8 -10  330.97   23.70
   1  -8  10  381.86   27.40
  -1  -8 -10  369.76   24.20
   1  -8  10  396.66   28.90
   1  -8  10  376.46   27.40
   1  -8  10  348.37   26.40
  -1   8 -10  417.16   26.20
  -1   8 -10  373.76   25.10
   1   8  10  361.76   20.90
  -1   8 -10  347.67   25.10
   1   8  10  357.86   20.70
   1   8  10  380.26   25.50
  -2  -8 -10  190.88   22.40
  -2  -8 -10  218.28   23.30
   2  -8  10  249.78   28.00
  -2  -8 -10  164.78   21.00
   2  -8  10  225.78   28.60
   2  -8  10  190.28   22.30
   2  -8  10  237.38   27.10
  -2  -8 -10  185.98   23.20
  -2   8 -10  241.98   27.70
  -2   8 -10  212.48   23.00
  -2   8 -10  225.28   22.10
  -2   8 -10  207.48   21.50
   2   8  10  179.28   22.00
   2  -9 -10  364.26   30.70
   2  -9 -10  334.87   28.40
  -2  -9  10  361.66   22.60
  -2  -9  10  386.66   23.20
   2  -9 -10  335.77   30.30
   2  -9 -10  319.97   28.30
  -2  -9  10  356.46   25.00
  -2  -9  10  348.87   25.80
  -2   9  10  384.56   30.20
  -2   9  10  365.66   28.80
   2   9 -10  348.37   23.20
  -2   9  10  392.86   31.30
   1  -9 -10   -1.00   10.70
  -1  -9  10   -0.40   10.50
  -1  -9  10   -9.80   10.00
  -1  -9  10   -9.20   11.40
   1  -9 -10   20.60   12.30
   1  -9 -10    5.60   10.70
   1  -9 -10    7.60   12.40
  -1  -9  10   -6.00   10.60
  -1   9  10    1.90   11.90
  -1   9  10    1.20   11.50
  -1   9  10    7.50   11.50
   1   9 -10   -2.10    9.10
  -1   9  10    0.20   11.40
   0  -9  10  646.14   35.60
   0  -9 -10  657.03   33.90
   0  -9  10  666.03   34.30
   0  -9  10  666.43   34.30
   0  -9 -10  691.93   35.60
   0  -9 -10  627.34   33.60
   0  -9 -10  678.83   34.80
   0  -9  10  688.13   35.20
   0   9 -10  663.33   31.20
   0   9  10  675.33   32.80
   0   9  10  667.63   35.00
   0   9 -10  646.94   30.50
   0   9  10  685.13   34.50
   0   9  10  685.63   33.00
   0   9 -10  686.63   34.80
  -1  -9 -10  166.78   19.20
   1  -9  10  197.28   23.60
  -1  -9 -10  169.08   20.80
   1  -9  10  179.58   20.10
  -1  -9 -10  192.78   18.30
   1  -9  10  185.68   22.50
  -1  -9 -10  177.98   20.20
   1  -9  10  142.99   18.10
  -1   9 -10  173.68   16.40
  -1   9 -10  216.78   21.20
  -1   9 -10  164.18   21.30
   1   9  10  169.48   14.80
   1   9  10  154.78   14.70
  -2  -9 -10  396.16   28.60
  -2  -9 -10  405.56   29.70
   2  -9  10  458.75   33.30
  -2  -9 -10  418.26   27.70
   2  -9  10  434.16   34.70
   2  -9  10  393.96   33.70
   2  -9  10  444.86   36.20
  -2  -9 -10  441.06   30.00
   2   9  10  403.76   28.40
  -2   9 -10  481.45   34.40
  -2   9 -10  535.15   34.20
  -2   9 -10  438.66   34.80
  -2   9 -10  471.55   32.30
   2 -10 -10   -9.60   15.70
   2 -10 -10   40.60   17.60
  -2 -10  10   44.80   13.80
  -2 -10  10   25.90   10.30
   2 -10 -10   42.50   16.70
  -2 -10  10   49.10   14.70
  -2 -10  10   22.40   10.60
   2 -10 -10   17.70   15.40
   2  10 -10   27.20   10.30
  -2  10  10   41.80   17.10
  -2  10  10   22.00   16.60
  -2  10  10   21.20   14.30
   2  10 -10    5.10    7.50
  -1 -10  10  317.07   25.50
   1 -10 -10  262.27   25.10
  -1 -10  10  316.77   22.80
   1 -10 -10  276.87   27.00
  -1 -10  10  325.67   23.50
  -1 -10  10  288.17   22.20
   1 -10 -10  286.37   24.60
   1 -10 -10  322.17   26.70
  -1  10  10  293.87   25.30
  -1  10  10  292.87   26.10
  -1  10  10  367.36   26.40
   1  10 -10  266.47   22.10
  -1  10  10  290.67   25.00
   0 -10 -10   24.90   13.40
   0 -10  10    9.70   11.20
   0 -10 -10   23.70   11.90
   0 -10 -10   22.30   11.70
   0 -10 -10   -4.30   12.40
   0 -10  10    7.50   12.40
   0 -10  10    0.40   13.40
   0 -10  10   13.10   13.00
   0  10 -10    3.90    8.10
   0  10  10   35.80   13.20
   0  10 -10   26.10   12.60
   0  10  10   16.70   12.50
   0  10  10   13.30   10.20
   0  10  10   27.10   11.10
  -1 -10 -10   59.29   13.70
  -1 -10 -10   67.39   14.10
   1 -10  10   71.89   15.70
  -1 -10 -10   55.89   13.70
   1 -10  10   54.19   15.20
  -1 -10 -10   66.49   14.40
   1 -10  10   71.49   17.40
   1 -10  10   45.60   17.20
   1  10  10   63.19    8.10
  -1  10 -10   73.49   13.80
  -1  10 -10   61.69   13.40
  -1  10 -10   42.30   16.30
  -1  10 -10   35.30   13.70
  -2 -10 -10    5.40   15.80
   2 -10  10   41.20   21.60
  -2 -10 -10   35.00   13.50
   2 -10  10   30.70   19.70
  -2 -10 -10   20.30   14.90
   2 -10  10   40.20   20.20
  -2 -10 -10   33.00   14.20
   2 -10  10   53.79   17.60
   2  10  10    6.30   10.50
   2  10  10   11.60   14.50
  -2  10 -10   33.70   18.00
  -2  10 -10   15.30   16.40
  -2  10 -10   62.59   18.50
  -2  10 -10   65.69   17.60
  -2 -11  10   -6.40   15.80
   2 -11 -10   30.60   17.50
  -2 -11  10   30.40   13.80
   2 -11 -10   25.30   17.90
  -2 -11  10    8.90   10.00
   2 -11 -10   -4.10   15.50
  -2 -11  10   17.10   10.80
   2 -11 -10   52.29   18.80
  -2  11  10   -4.50   17.80
   2  11 -10   10.50    7.60
  -2  11  10   27.20   17.00
  -2  11  10   14.10   17.80
   1 -11 -10   50.39   14.90
   1 -11 -10   56.29   16.50
   1 -11 -10   54.69   15.80
  -1 -11  10   49.10   13.30
   1 -11 -10   42.30   14.70
  -1 -11  10   19.90   14.70
  -1 -11  10   45.00   12.30
  -1 -11  10   40.20   12.70
  -1  11  10   32.60   13.20
  -1  11  10   34.10   15.40
   1  11 -10   12.20    8.40
  -1  11  10   45.30   15.00
  -1  11  10   42.20   15.20
   0 -11  10   35.70   15.60
   0 -11 -10   41.00   13.70
   0 -11 -10   42.90   14.40
   0 -11 -10   56.19   15.40
   0 -11 -10   75.59   14.10
   0 -11  10   47.30   15.70
   0 -11  10   39.70   12.60
   0 -11  10   60.09   14.50
   0  11  10   65.09   12.50
   0  11  10   36.50   14.80
   0  11 -10   47.20   15.40
   0  11  10   46.60   12.40
  -1 -11 -10   21.50   15.30
  -1 -11 -10   41.20   13.70
  -1 -11 -10   40.00   14.00
   1 -11  10   28.10   15.10
  -1 -11 -10   43.90   14.30
   1 -11  10   11.30   17.30
   1 -11  10   45.00   16.80
   1 -11  10   52.79   16.10
  -1  11 -10   42.80   13.60
  -1  11 -10   26.60   13.90
  -1  11 -10   42.80   13.50
   1  11  10   33.70   14.10
  -1  11 -10   32.40   17.20
  -2  11 -10  -24.80   17.60
   1 -12 -10   36.80   15.50
  -1 -12  10   37.00   16.30
   1 -12 -10   30.80   16.40
  -1 -12  10   30.90   13.90
  -1 -12  10   23.60   13.10
   1 -12 -10   23.00   16.10
   1 -12 -10   34.30   15.60
  -1 -12  10   30.70   12.00
  -1  12  10   33.00   16.30
  -1  12  10   14.60   15.40
  -1  12  10   -1.70   14.20
  -1  12  10    3.00   15.60
   1  12 -10   16.40    9.60
   1  12 -10   30.90   13.70
   0 -12 -10   14.50   15.40
   0 -12  10   11.60   14.30
   0 -12 -10   -3.40   14.00
   0 -12  10  -11.00   15.40
   0 -12  10  -16.30   15.70
   0 -12 -10   -3.30   13.50
   0 -12  10   19.80   12.70
   0 -12 -10  -17.60   12.60
   0  12  10    6.90    8.70
   0  12  10   -7.00   10.60
   0  12  10   -2.60   11.00
   0  12 -10    9.60   15.60
   0  12  10  -22.90   14.90
   1 -12  10    2.90   17.60
  -1 -12 -10  -14.20   15.90
  -1 -12 -10   -8.80   14.50
  -1 -12 -10    5.70   13.50
   1 -12  10   -7.30   18.70
  -1 -12 -10   -2.60   13.50
   1 -12  10   11.20   16.20
   1 -12  10    3.10   16.00
  -1  12 -10   -0.10   12.10
   1  12  10   13.70   10.00
  -1  12 -10   12.60   13.30
  -1  12 -10    1.40   17.60
  -1  12 -10   16.00   12.10
   1  12  10  -20.50   14.30
   0 -13 -10   94.69   17.30
   0 -13 -10   98.59   16.00
   0 -13 -10  106.09   18.20
   0 -13  10   89.49   20.20
   0 -13  10   86.89   18.50
   0 -13  10  118.79   18.80
   0 -13  10  113.89   17.10
   0 -13 -10   99.09   19.40
   0  13  10   82.29   13.30
   3   0 -11    8.50   12.30
  -3   0  11   15.30   13.50
  -3   0  11    9.00   12.70
   3   0 -11   18.90   12.60
   3   0 -11   -0.30   11.90
   3   0 -11  -22.20   10.00
  -3   0  11   -4.70   12.50
  -3   0  11   -9.80   12.80
   2   0 -11   13.00    9.30
  -2   0  11   -8.60   10.30
   2   0 -11   11.50   10.50
  -2   0  11  -11.10   10.50
   2   0 -11   -2.80    9.00
   2   0 -11   -8.20    9.00
  -2   0  11    1.40   10.20
   1   0 -11  -15.70    9.20
   1   0 -11   -9.70    8.60
  -1   0  11    1.10    8.50
  -1   0  11   -6.70    9.70
  -1   0  11   -1.80    9.70
   1   0 -11   -2.90    8.60
   1   0 -11   -0.80    8.60
  -1   0  11   -1.80    8.40
   0   0 -11  -10.00    9.30
   0   0  11   10.40   10.20
   0   0  11  -12.20    9.40
   0   0 -11    0.70    9.20
   0   0 -11  -10.70    9.30
   0   0 -11   -4.20    8.50
   0   0  11   -6.60    8.50
   0   0  11    0.00    8.60
  -1   0 -11   -2.40    9.60
   1   0  11  -13.80    9.30
  -1   0 -11    8.00   10.80
   1   0  11   -5.40    9.00
   1   0  11    7.10   10.40
  -1   0 -11    2.80   10.60
   1   0  11    7.00    9.90
  -1   0 -11    2.50    9.10
  -2   0 -11    8.30   11.20
  -2   0 -11    7.10   11.10
   2   0  11   -0.80   12.10
  -2   0 -11  -27.40   12.10
   2   0  11   -0.50   12.40
   2   0  11   -6.20   10.60
   2   0  11  -10.90   11.70
  -2   0 -11    0.10   12.50
   3   0  11   21.00   15.20
   3   0  11  -18.60   12.50
  -3   0 -11   20.20   15.80
  -3   0 -11    2.90   14.80
   3   0  11   41.10   15.30
   3   0  11  -38.20   14.60
  -3   0 -11  -29.90   15.80
  -3  -1  11   91.09   15.10
   3  -1 -11   58.59   12.90
  -3  -1  11   60.09   14.90
   3  -1 -11   50.39   13.80
  -3  -1  11   47.60   13.80
  -3  -1  11   59.69   15.00
   3  -1 -11   38.30   14.20
   3  -1 -11   92.69   15.30
  -3   1  11   77.79   15.20
   3   1 -11   68.29   11.50
   3   1 -11   42.60   14.40
   3   1 -11   76.59   14.60
  -3   1  11   60.19   14.90
   3   1 -11   80.59   14.40
  -3   1  11   74.69   15.60
  -3   1  11   74.89   15.20
   2  -1 -11    8.40   10.50
   2  -1 -11    3.80   10.60
  -2  -1  11   22.30   11.50
  -2  -1  11    2.50   10.70
   2  -1 -11   -3.60   10.00
   2  -1 -11   16.10   10.30
  -2  -1  11   18.40   10.40
  -2  -1  11   18.60   10.30
  -2   1  11    7.00   10.30
   2   1 -11   10.80   10.70
   2   1 -11   12.10   10.30
  -2   1  11    3.00   11.30
   2   1 -11    3.10    9.60
   2   1 -11   15.60    9.00
  -2   1  11    5.20   10.90
  -1  -1  11  333.67   23.00
   1  -1 -11  447.46   24.00
  -1  -1  11  417.96   24.00
   1  -1 -11  412.86   24.20
  -1  -1  11  388.46   24.70
   1  -1 -11  415.86   24.60
  -1  -1  11  401.76   24.10
   1  -1 -11  389.46   23.70
   1   1 -11  396.46   23.80
   1   1 -11  413.56   25.00
   1   1 -11  405.66   24.30
  -1   1  11  385.46   24.30
  -1   1  11  381.26   25.30
   1   1 -11  404.36   23.10
  -1   1  11  411.06   23.60
  -1   1  11  403.26   24.30
   0  -1  11    1.00    8.40
   0  -1 -11   -3.20    9.00
   0  -1 -11    6.50    8.30
   0  -1 -11   -1.00    9.20
   0  -1  11    0.70    8.50
   0  -1  11   -4.10    8.90
   0  -1  11    2.20    9.10
   0   1 -11   -6.40    9.30
   0   1  11   11.90   10.20
   0   1  11    0.70   10.00
   0   1 -11    2.70    8.50
   0   1  11   -1.10    8.40
   0   1  11    3.00    9.10
   0   1 -11   15.10    9.50
   0   1 -11   -3.30    9.70
  -1  -1 -11  142.89   15.70
  -1  -1 -11  141.29   15.20
   1  -1  11  146.49   16.10
  -1  -1 -11  152.78   15.20
  -1  -1 -11  139.09   15.50
   1  -1  11  154.88   15.90
   1  -1  11  136.89   15.40
   1  -1  11  132.99   14.90
  -1   1 -11  133.79   15.70
   1   1  11  108.09   13.10
   1   1  11  132.69   14.80
  -1   1 -11  121.89   14.70
   1   1  11  127.99   14.30
  -1   1 -11  118.49   14.30
   1   1  11  128.29   13.70
  -1   1 -11  123.29   13.90
  -2  -1 -11  133.89   16.10
   2  -1  11  131.39   16.30
  -2  -1 -11  135.99   15.70
   2  -1  11  105.49   15.10
  -2  -1 -11  130.39   15.20
   2  -1  11  100.89   15.40
  -2  -1 -11  110.79   16.10
   2  -1  11  112.99   15.30
  -2   1 -11  102.59   15.80
  -2   1 -11   73.89   15.50
   2   1  11  113.59   14.80
   2   1  11  123.29   15.60
   2   1  11  178.48   20.60
  -2   1 -11  121.79   15.20
  -2   1 -11  109.69   15.80
   2   1  11  124.09   15.90
  -3  -1 -11  109.39   16.90
   3  -1  11   98.19   19.10
  -3  -1 -11  104.09   18.50
   3  -1  11  131.99   19.00
   3  -1  11  116.59   17.50
  -3  -1 -11   97.99   17.00
  -3  -1 -11  116.79   18.40
   3   1  11   86.99   19.10
  -3   1 -11  132.19   18.50
   3   1  11  115.99   17.10
   3   1  11  116.59   16.50
  -3   1 -11  124.49   19.70
  -3   1 -11   54.59   17.90
   3   1  11   76.39   15.30
  -3  -2  11  255.57   24.30
   3  -2 -11  275.47   23.80
  -3  -2  11  218.98   24.10
   3  -2 -11  199.78   24.20
   3  -2 -11  233.58   25.90
  -3  -2  11  241.78   22.90
  -3  -2  11  232.58   23.70
   3  -2 -11  274.97   24.80
   3   2 -11  202.28   23.70
  -3   2  11  226.98   24.70
  -3   2  11  236.58   24.80
  -3   2  11  264.17   26.70
  -3   2  11  247.78   26.50
   3   2 -11  234.48   18.10
  -2  -2  11  121.09   13.80
   2  -2 -11  132.49   15.40
  -2  -2  11  136.59   14.60
   2  -2 -11  124.79   14.50
  -2  -2  11  117.59   14.20
   2  -2 -11  132.29   14.90
  -2  -2  11  119.89   14.20
   2  -2 -11  141.69   15.70
  -2   2  11  115.59   14.90
   2   2 -11  122.39   14.90
   2   2 -11  145.39   15.10
   2   2 -11  126.19   14.20
  -2   2  11  149.19   15.80
  -2   2  11  123.89   15.80
   2   2 -11  121.39   14.70
  -1  -2  11  350.76   22.30
  -1  -2  11  338.07   22.10
  -1  -2  11  337.47   22.60
   1  -2 -11  335.97   22.40
   1  -2 -11  339.87   22.50
   1  -2 -11  356.86   22.70
   1  -2 -11  336.07   22.20
  -1  -2  11  327.47   21.30
  -1   2  11  328.97   22.80
  -1   2  11  341.67   21.90
   1   2 -11  326.97   22.80
   1   2 -11  282.77   22.00
   1   2 -11  343.37   20.70
   1   2 -11  356.96   22.00
  -1   2  11  345.37   22.60
  -1   2  11  340.47   23.90
   0  -2  11  972.60   44.30
   0  -2 -11  972.60   44.40
   0  -2 -11  866.41   43.50
   0  -2 -11  989.20   44.20
   0  -2  11 1021.10   44.50
   0  -2  11 1023.60   44.60
   0  -2  11 1000.80   43.90
   0   2  11  989.80   44.10
   0   2  11  967.40   44.70
   0   2 -11 1040.20   43.90
   0   2  11  994.60   43.60
   0   2  11  988.70   44.30
   0   2 -11  978.60   44.10
   0   2 -11 1001.40   44.90
   0   2 -11  985.20   44.70
   1  -2  11   10.50   11.20
  -1  -2 -11    1.00   10.10
   1  -2  11   -6.00    9.90
  -1  -2 -11   -5.80    9.40
   1  -2  11  -16.00   10.20
  -1  -2 -11   -0.30   11.10
  -1  -2 -11  -21.30    9.10
   1  -2  11   -4.60   10.50
   1   2  11   10.00   10.50
   1   2  11   -9.10    9.50
  -1   2 -11   -6.30   10.10
  -1   2 -11    1.40   10.40
   1   2  11   -0.80   10.20
  -1   2 -11    3.30   10.80
  -1   2 -11    0.70   10.10
   1   2  11    3.30   10.80
  -2  -2 -11  323.07   26.30
  -2  -2 -11  346.27   26.10
  -2  -2 -11  369.16   24.60
   2  -2  11  320.97   25.20
  -2  -2 -11  309.77   24.20
   2  -2  11  331.07   27.00
   2  -2  11  328.27   26.90
   2  -2  11  346.37   26.40
   2   2  11  369.26   25.40
   2   2  11  332.37   24.40
   2   2  11  285.27   23.40
  -2   2 -11  378.36   26.80
   2   2  11  324.37   25.40
  -2   2 -11  319.67   25.30
  -2   2 -11  341.97   25.80
  -3  -2 -11  -38.50   14.50
  -3  -2 -11   -8.80   14.80
   3  -2  11   -7.80   15.90
   3  -2  11  -35.10   15.90
   3  -2  11  -18.50   14.50
  -3  -2 -11   16.60   13.60
  -3  -2 -11   10.30   13.50
   3  -2  11   16.50   14.70
  -3   2 -11    0.60   16.80
  -3   2 -11  -22.60   15.40
   3   2  11   16.20   13.20
   3   2  11  -12.60   16.40
  -3   2 -11  -19.50   15.10
   3   2  11   18.10   13.20
   3   2  11    4.30   13.20
  -3  -3  11  173.28   17.80
   3  -3 -11  170.38   18.00
  -3  -3  11  174.98   22.00
  -3  -3  11  141.39   16.20
   3  -3 -11  126.49   17.80
   3  -3 -11  120.39   17.10
  -3   3  11  104.29   17.30
   3   3 -11  144.59   17.50
   3   3 -11  121.59   13.40
  -3   3  11  150.88   18.50
  -3   3  11  121.89   17.80
  -3   3  11  107.49   18.20
   2  -3 -11  404.46   26.80
   2  -3 -11  403.26   27.10
  -2  -3  11  415.36   26.30
  -2  -3  11  421.06   25.70
  -2  -3  11  443.86   25.50
   2  -3 -11  399.36   26.60
  -2  -3  11  418.86   25.30
   2  -3 -11  414.56   26.40
  -2   3  11  467.55   28.60
   2   3 -11  416.96   22.10
  -2   3  11  426.46   28.50
  -2   3  11  469.55   27.60
   2   3 -11  415.36   24.60
   2   3 -11  463.05   25.70
   1  -3 -11  545.65   29.40
   1  -3 -11  553.84   29.50
   1  -3 -11  540.75   28.80
   1  -3 -11  518.05   28.50
  -1  -3  11  509.15   28.00
  -1  -3  11  551.84   28.80
  -1  -3  11  523.55   28.50
  -1  -3  11  562.84   28.70
  -1   3  11  533.65   29.10
  -1   3  11  540.25   28.70
   1   3 -11  544.05   26.60
  -1   3  11  507.15   30.00
   1   3 -11  582.04   29.70
   1   3 -11  566.14   28.70
   1   3 -11  529.25   28.60
  -1   3  11  520.85   29.50
   0  -3  11   76.39   12.40
   0  -3 -11   86.79   12.80
   0  -3 -11   88.89   12.40
   0  -3 -11   87.39   12.70
   0  -3  11   74.89   12.40
   0  -3  11   78.99   13.00
   0  -3  11   67.09   11.30
   0   3 -11   53.69   10.70
   0   3  11   83.59   12.20
   0   3 -11   88.29   13.20
   0   3  11   45.60    9.80
   0   3 -11   87.39   12.00
   0   3  11   69.69   12.60
   0   3 -11   83.19   13.20
   0   3  11   66.79   11.00
  -1  -3 -11  696.53   34.00
  -1  -3 -11  698.23   34.50
   1  -3  11  684.33   34.80
  -1  -3 -11  696.13   34.80
   1  -3  11  688.63   34.70
   1  -3  11  708.03   35.60
  -1  -3 -11  672.13   34.00
   1  -3  11  674.83   34.80
   1   3  11  689.53   34.50
  -1   3 -11  657.43   34.10
  -1   3 -11  659.33   34.90
   1   3  11  684.53   34.20
   1   3  11  698.83   34.50
  -1   3 -11  600.84   35.10
   1   3  11  689.43   33.40
  -1   3 -11  642.74   34.90
  -2  -3 -11   51.39   12.50
   2  -3  11   71.39   14.90
  -2  -3 -11   59.09   13.60
   2  -3  11   51.59   13.40
   2  -3  11   27.70   12.80
  -2  -3 -11   43.70   13.80
  -2  -3 -11   59.59   13.30
   2  -3  11   68.09   15.30
   2   3  11   69.29   14.10
  -2   3 -11   53.29   13.70
   2   3  11   55.29   12.20
  -2   3 -11   78.09   14.30
   2   3  11   54.89   12.60
   2   3  11   36.20   13.80
  -2   3 -11   61.69   13.90
  -3  -3 -11  283.47   26.30
   3  -3  11  311.77   29.60
   3  -3  11  269.07   30.90
   3  -3  11  350.76   30.70
  -3  -3 -11  280.77   27.70
  -3  -3 -11  262.07   28.60
  -3  -3 -11  337.67   28.80
   3  -3  11  256.67   30.80
   3   3  11  312.97   24.00
   3   3  11  287.17   29.40
  -3   3 -11  286.17   31.20
  -3   3 -11  311.27   32.00
  -3   3 -11  272.17   31.30
  -3   3 -11  347.27   30.80
   3  -4 -11  480.05   32.60
   3  -4 -11  419.86   33.40
  -3  -4  11  498.85   29.90
  -3  -4  11  490.25   31.30
  -3  -4  11  490.65   30.40
   3  -4 -11  459.05   31.90
   3  -4 -11  463.05   32.20
  -3   4  11  482.55   33.70
  -3   4  11  458.45   32.80
  -3   4  11  459.95   32.40
   3   4 -11  496.55   31.60
  -3   4  11  451.35   33.10
   2  -4 -11  508.05   29.30
  -2  -4  11  480.85   27.70
  -2  -4  11  446.76   26.70
  -2  -4  11  509.25   27.70
  -2  -4  11  481.35   27.50
   2  -4 -11  457.05   29.80
   2  -4 -11  478.45   28.50
   2  -4 -11  476.05   28.90
  -2   4  11  507.05   29.80
   2   4 -11  479.45   23.00
   2   4 -11  438.26   24.40
  -2   4  11  465.95   30.50
   2   4 -11  483.25   27.10
  -2   4  11  484.15   29.10
   1  -4 -11   93.59   12.40
  -1  -4  11  100.19   13.20
   1  -4 -11   97.99   13.40
  -1  -4  11  124.39   13.40
   1  -4 -11  126.49   14.00
   1  -4 -11   98.49   12.40
  -1  -4  11  127.39   13.60
  -1  -4  11  120.79   12.80
  -1   4  11  112.49   14.30
   1   4 -11  110.99   12.50
   1   4 -11  113.89   11.40
   1   4 -11  110.19   12.80
  -1   4  11   98.29   13.90
   1   4 -11  133.09   15.20
  -1   4  11  129.89   14.30
  -1   4  11  127.39   14.00
   0  -4 -11 1383.46   60.89
   0  -4 -11 1397.06   60.09
   0  -4  11 1413.86   60.49
   0  -4 -11 1427.86   60.29
   0  -4  11 1456.25   60.49
   0  -4  11 1450.25   60.79
   0  -4  11 1450.85   60.69
   0  -4 -11 1465.45   60.59
   0   4  11 1394.56   60.49
   0   4 -11 1410.56   60.29
   0   4 -11 1470.15   59.69
   0   4  11 1381.96   60.29
   0   4  11 1439.86   60.79
   0   4 -11 1453.85   61.59
   0   4  11 1462.05   59.89
   0   4 -11 1444.36   60.49
  -1  -4 -11   67.99   14.20
   1  -4  11   64.59   13.10
  -1  -4 -11   80.79   13.30
   1  -4  11   66.79   12.00
   1  -4  11   62.59   12.50
  -1  -4 -11   89.39   13.30
  -1  -4 -11   63.99   12.50
   1  -4  11   88.99   13.40
  -1   4 -11   61.89   13.20
  -1   4 -11   73.79   12.90
   1   4  11   66.09   12.80
  -1   4 -11   63.39   12.40
  -1   4 -11   75.49   14.10
   1   4  11   73.29   13.20
   1   4  11   58.49   11.90
   1   4  11   70.69   12.60
  -2  -4 -11  929.41   43.70
   2  -4  11  905.11   45.20
   2  -4  11  920.91   45.60
  -2  -4 -11  963.70   44.70
   2  -4  11  944.61   46.40
  -2  -4 -11  999.70   44.80
  -2  -4 -11  871.41   43.20
  -2   4 -11  889.71   45.20
   2   4  11 1008.50   44.90
   2   4  11  925.71   41.40
  -2   4 -11  890.21   45.20
   2   4  11  905.91   42.30
  -2   4 -11  891.61   44.60
   2   4  11  903.91   44.10
   3  -4  11  -26.80   15.40
  -3  -4 -11   21.50   16.10
   3  -4  11    4.00   16.80
   3  -4  11   30.20   19.00
   3  -4  11   12.20   17.00
  -3  -4 -11  -10.20   12.30
  -3  -4 -11   40.60   16.20
  -3  -4 -11    3.70   14.50
   3   4  11  -10.80   16.10
  -3   4 -11   16.10   16.60
  -3   4 -11   22.30   17.70
  -3   4 -11   22.30   17.30
  -3   4 -11   10.90   18.00
   3   4  11   18.90   13.10
   3   4  11   -1.00   11.10
   3   4  11  -14.00    8.50
   3  -5 -11  123.59   18.90
  -3  -5  11  121.09   15.40
  -3  -5  11  121.79   17.00
  -3  -5  11  143.79   17.10
   3  -5 -11  102.29   18.10
   3  -5 -11   82.29   15.80
   3  -5 -11  135.39   19.00
  -3   5  11  102.89   17.70
   3   5 -11  108.59   17.60
  -3   5  11  129.09   19.50
  -3   5  11  118.19   19.80
  -3   5  11  100.29   18.30
   2  -5 -11  633.74   34.70
  -2  -5  11  578.94   32.00
   2  -5 -11  663.93   34.50
  -2  -5  11  646.74   33.50
  -2  -5  11  664.33   33.30
   2  -5 -11  679.33   35.90
  -2  -5  11  669.03   32.90
  -2   5  11  629.94   36.00
  -2   5  11  602.14   34.80
  -2   5  11  659.33   36.10
   2   5 -11  632.54   27.40
   2   5 -11  617.84   26.90
  -1  -5  11  176.38   18.80
   1  -5 -11  234.98   21.40
  -1  -5  11  203.78   18.90
  -1  -5  11  157.78   18.40
   1  -5 -11  243.88   21.20
   1  -5 -11  207.48   19.00
  -1  -5  11  192.18   19.60
  -1   5  11  177.68   19.50
   1   5 -11  191.48   15.50
   1   5 -11  193.48   18.60
  -1   5  11  218.28   20.20
   1   5 -11  220.38   17.30
   1   5 -11  201.48   21.00
  -1   5  11  159.28   16.90
  -1   5  11  203.38   20.60
   0  -5 -11   20.30   10.50
   0  -5 -11   38.80   10.70
   0  -5 -11   30.20   10.60
   0  -5  11   37.70   11.30
   0  -5  11   30.40   11.90
   0  -5 -11   45.50   11.30
   0  -5  11   33.90   11.70
   0  -5  11   43.50   10.90
   0   5 -11   42.90   11.10
   0   5  11   46.20   12.00
   0   5  11   40.80   11.30
   0   5  11   46.00   11.10
   0   5 -11   30.60   10.20
   0   5  11   30.80   11.80
   0   5 -11   43.90   12.70
   0   5 -11   32.00   10.80
   1  -5  11 1090.09   49.80
  -1  -5 -11 1087.09   48.60
   1  -5  11 1157.28   50.09
  -1  -5 -11 1132.69   49.00
   1  -5  11 1056.19   49.80
   1  -5  11 1065.59   49.00
  -1  -5 -11 1108.19   49.40
  -1  -5 -11 1089.89   48.60
  -1   5 -11 1125.29   48.80
   1   5  11 1104.19   49.20
   1   5  11 1090.69   47.10
  -1   5 -11 1052.19   49.60
   1   5  11 1035.20   47.60
   1   5  11  992.10   48.10
  -1   5 -11 1044.20   49.40
  -1   5 -11 1126.09   49.40
  -2  -5 -11   -6.30   12.30
   2  -5  11   14.40   15.20
  -2  -5 -11  -10.90   11.20
   2  -5  11    9.20   12.20
   2  -5  11    7.70   15.20
  -2  -5 -11   19.00   13.30
  -2  -5 -11   -2.20   12.50
  -2   5 -11    9.60   12.90
  -2   5 -11   -3.20   12.20
   2   5  11    7.00   13.10
   2   5  11    9.70    9.50
  -2   5 -11   28.00   13.70
   2   5  11   13.30   10.90
   3  -5  11  191.48   23.20
  -3  -5 -11  205.18   24.50
  -3  -5 -11  277.47   27.10
   3  -5  11  193.98   24.70
  -3  -5 -11  271.77   26.40
   3  -5  11  278.67   31.30
  -3  -5 -11  231.38   28.40
   3  -5  11  242.98   30.90
  -3   5 -11  287.67   33.20
   3   5  11  221.28   27.40
  -3   5 -11  262.57   30.60
  -3   5 -11  229.98   26.50
  -3   5 -11  283.67   32.60
   3   5  11  181.38   17.70
   3  -6 -11  142.69   20.20
  -3  -6  11  170.98   17.90
   3  -6 -11  146.39   19.70
  -3  -6  11  144.09   17.50
   3  -6 -11  132.49   17.70
   3  -6 -11  174.48   21.20
  -3  -6  11  154.08   17.80
  -3  -6  11  149.88   15.80
   3   6 -11  121.29   19.10
  -3   6  11  132.99   20.10
  -3   6  11  168.38   21.10
  -3   6  11  121.99   20.60
  -3   6  11  100.69   20.30
   2  -6 -11  382.06   27.40
   2  -6 -11  323.47   33.60
   2  -6 -11  332.17   25.90
   2  -6 -11  366.26   27.50
  -2  -6  11  357.76   24.60
  -2  -6  11  387.86   25.10
  -2  -6  11  349.07   24.00
  -2  -6  11  391.46   24.00
  -2   6  11  323.47   26.80
  -2   6  11  346.87   28.20
  -2   6  11  344.47   28.00
   2   6 -11  306.17   21.00
  -1  -6  11   16.00   11.20
  -1  -6  11   19.30   10.70
  -1  -6  11   26.60   11.20
   1  -6 -11   23.20   12.50
  -1  -6  11    2.00   10.20
   1  -6 -11    9.50   11.50
   1  -6 -11   23.10   11.60
   1   6 -11   19.00   10.40
  -1   6  11   13.30   11.30
  -1   6  11   10.80    9.90
   1   6 -11   14.60    7.80
  -1   6  11    9.10   11.60
   1   6 -11    8.20    7.80
  -1   6  11   13.00   12.00
   0  -6 -11  328.57   23.20
   0  -6  11  350.06   24.10
   0  -6  11  330.27   24.40
   0  -6 -11  362.66   23.60
   0  -6 -11  319.67   24.60
   0  -6 -11  347.87   24.90
   0  -6  11  391.56   25.50
   0  -6  11  373.66   25.20
   0   6 -11  388.86   24.50
   0   6  11  381.46   25.10
   0   6  11  326.97   23.00
   0   6  11  371.66   24.70
   0   6 -11  388.16   22.90
   0   6  11  348.87   24.70
   0   6 -11  347.47   25.60
   0   6 -11  376.76   22.90
  -1  -6 -11   -6.30    9.70
  -1  -6 -11    3.40   11.30
  -1  -6 -11   23.10   11.00
   1  -6  11    6.40   12.50
   1  -6  11    7.20   11.30
   1  -6  11    6.90   10.60
  -1  -6 -11    5.00   12.20
   1  -6  11   22.50   13.80
   1   6  11    1.70   11.10
  -1   6 -11   11.70   11.70
  -1   6 -11    3.40   11.80
  -1   6 -11   -0.20   11.50
   1   6  11    3.80    9.80
  -1   6 -11    9.30   11.60
   1   6  11   12.60   10.20
   1   6  11   -0.80   11.60
  -2  -6 -11  220.98   22.20
  -2  -6 -11  224.58   23.90
   2  -6  11  268.77   26.70
  -2  -6 -11  249.68   23.90
  -2  -6 -11  242.78   23.90
   2  -6  11  195.78   25.50
   2  -6  11  190.48   21.60
   2   6  11  192.28   23.40
  -2   6 -11  254.67   25.70
   2   6  11  230.98   17.80
  -2   6 -11  213.58   27.20
  -2   6 -11  193.98   24.90
   2   6  11  184.68   17.70
   3  -6  11   27.20   19.50
  -3  -6 -11   22.30   15.80
  -3  -6 -11   52.19   16.40
  -3  -6 -11   40.10   16.40
   3  -6  11   70.69   20.40
   3  -6  11   68.09   20.00
   3  -6  11   53.69   20.10
  -3  -6 -11   66.29   17.40
  -3   6 -11   58.69   18.70
   3   6  11   12.70   12.10
  -3   6 -11   -1.60   19.40
  -3   6 -11   45.20   21.30
   3   6  11   16.50   15.70
  -3   6 -11   63.49   18.80
  -3  -7  11   -3.40   13.80
  -3  -7  11  -25.50   13.80
  -3  -7  11   -2.30   11.60
   3  -7 -11   15.00   18.10
  -3  -7  11   13.40   13.40
   3  -7 -11   39.30   17.70
   3  -7 -11   -2.50   15.10
   3  -7 -11    7.30   18.10
  -3   7  11    7.90   20.30
   3   7 -11    1.30   15.70
  -3   7  11   29.50   17.70
  -3   7  11   14.90   17.20
  -3   7  11    2.00   18.20
   3   7 -11    4.40    8.80
  -2  -7  11   64.19   13.80
   2  -7 -11   51.79   14.50
  -2  -7  11   55.99   12.30
  -2  -7  11   45.70   12.50
  -2  -7  11   71.39   13.40
   2  -7 -11   44.60   13.90
   2  -7 -11   72.49   22.20
   2  -7 -11   52.99   15.50
  -2   7  11   59.29   15.70
   2   7 -11   43.50   14.10
  -2   7  11   82.79   15.40
  -2   7  11   79.19   16.90
   1  -7 -11    6.80   12.10
  -1  -7  11   15.30   11.40
  -1  -7  11   14.80   11.10
   1  -7 -11    4.60   11.40
   1  -7 -11   35.10   13.10
  -1  -7  11   20.40   11.10
   1  -7 -11   15.80   10.90
  -1  -7  11    5.20   11.20
  -1   7  11   27.30   12.90
   1   7 -11   22.10    7.20
  -1   7  11   14.90   11.20
   1   7 -11   10.70   14.00
  -1   7  11    0.50   11.80
   1   7 -11   15.10    7.30
  -1   7  11    8.60   11.70
   0  -7 -11   19.10   11.90
   0  -7 -11   22.90   11.20
   0  -7  11   25.80   12.50
   0  -7  11    7.20   10.50
   0  -7 -11   28.00   12.50
   0  -7 -11   12.40   10.30
   0  -7  11   19.60   13.00
   0  -7  11   -2.00   11.50
   0   7  11   25.00   10.30
   0   7 -11   29.40   10.30
   0   7 -11   25.70   12.40
   0   7 -11   41.90   10.30
   0   7  11   23.70   11.70
   0   7  11   20.70   11.50
   0   7  11   22.20   12.10
   0   7 -11   16.40   11.30
   1  -7  11  124.39   17.40
   1  -7  11  154.88   18.80
  -1  -7 -11  120.09   16.00
   1  -7  11  144.29   18.00
  -1  -7 -11  132.19   15.30
  -1  -7 -11  138.69   17.20
  -1  -7 -11  105.69   15.00
   1  -7  11  130.49   16.50
  -1   7 -11  125.89   15.90
  -1   7 -11  126.59   15.90
  -1   7 -11  112.99   15.10
   1   7  11  105.79   14.70
  -1   7 -11  107.99   16.20
   1   7  11  130.19   13.70
   1   7  11  136.69   16.90
   1   7  11  148.89   16.80
  -2  -7 -11   16.40   13.50
   2  -7  11   33.80   14.90
   2  -7  11   11.90   14.80
   2  -7  11    4.50   15.30
  -2  -7 -11   27.80   14.30
  -2  -7 -11   21.00   12.60
  -2  -7 -11   -2.40   12.60
  -2   7 -11    7.90   14.00
  -2   7 -11   14.40   14.80
   2   7  11   11.60    6.60
  -2   7 -11   -9.60   15.50
   2   7  11    4.60    8.40
   2  -8 -11    3.60   15.20
   2  -8 -11    2.90   15.40
  -2  -8  11   17.50   12.60
   2  -8 -11   24.30   14.50
  -2  -8  11   29.60   12.70
  -2  -8  11    8.10   11.30
   2  -8 -11   21.40   14.30
  -2  -8  11    3.70   11.50
   2   8 -11   16.30   13.90
  -2   8  11  -10.00   15.20
  -2   8  11   11.20   15.10
   2   8 -11    1.00    7.70
  -2   8  11    3.80   14.30
  -1  -8  11   40.60   12.70
   1  -8 -11   28.80   14.20
  -1  -8  11   57.99   12.80
  -1  -8  11   55.09   13.60
   1  -8 -11   49.40   14.10
   1  -8 -11   30.80   12.30
   1  -8 -11   21.40   12.00
  -1  -8  11   43.40   13.10
  -1   8  11   51.09   13.40
   1   8 -11   40.40    6.50
   1   8 -11   37.90    6.50
  -1   8  11   37.60   13.10
   1   8 -11   11.50   13.80
  -1   8  11   38.60   13.50
  -1   8  11   43.80   14.90
   0  -8  11   12.30   12.30
   0  -8  11    1.90   11.20
   0  -8 -11   13.60   11.20
   0  -8  11    0.50   12.40
   0  -8 -11    3.00   12.00
   0  -8  11    5.70   11.60
   0  -8 -11   17.20   12.50
   0  -8 -11    1.20   11.20
   0   8  11    8.30   11.30
   0   8  11   -1.80   12.10
   0   8  11    7.80   10.20
   0   8 -11  -11.80    9.30
   0   8  11    1.60   11.70
   0   8 -11   11.60   10.00
   0   8 -11   -2.90   11.00
   0   8 -11   -6.80   12.20
   1  -8  11  -31.30   14.20
   1  -8  11   20.60   13.50
  -1  -8 -11    3.60   11.60
  -1  -8 -11   -2.00   10.90
   1  -8  11    2.00   14.00
   1  -8  11   -5.40   14.50
  -1  -8 -11    1.60   12.80
   1   8  11    5.40    9.70
  -1   8 -11   16.00   12.50
  -1   8 -11   29.60   13.10
  -1   8 -11    7.70   12.10
   1   8  11   -4.60    9.60
   1   8  11    2.80   13.00
  -1   8 -11    9.10   13.60
   2  -8  11   53.79   17.20
   2  -8  11   53.59   18.10
  -2  -8 -11   52.59   15.20
   2  -8  11   70.89   16.30
  -2  -8 -11   79.19   15.80
  -2  -8 -11   64.19   15.00
  -2  -8 -11   44.20   15.30
   2  -8  11   59.69   19.70
  -2   8 -11   74.79   17.00
  -2   8 -11   67.79   18.10
  -2   8 -11   75.49   19.00
   2   8  11   66.19   15.50
  -2   8 -11   61.49   18.70
   2  -9 -11   12.80   15.00
  -2  -9  11   30.80   14.60
  -2  -9  11   27.50   12.60
   2  -9 -11   42.90   16.40
  -2  -9  11   21.20   13.40
  -2  -9  11   11.00   11.80
   2  -9 -11   40.40   14.00
   2  -9 -11   25.30   16.30
  -2   9  11   25.20   15.80
  -2   9  11    4.00   16.70
   2   9 -11   42.90   13.70
   2   9 -11    4.00    8.10
  -2   9  11   21.30   17.40
  -2   9  11   26.30   15.50
   1  -9 -11  129.49   16.70
  -1  -9  11  146.19   17.30
  -1  -9  11  134.69   16.30
   1  -9 -11  152.28   18.50
   1  -9 -11  157.68   18.60
  -1  -9  11  160.48   16.80
   1  -9 -11  157.58   18.60
  -1  -9  11  135.49   16.30
   1   9 -11  136.59   21.50
  -1   9  11  149.19   17.70
  -1   9  11  130.99   17.70
  -1   9  11  117.69   17.00
   0  -9  11    4.80   12.90
   0  -9  11   15.00   12.10
   0  -9  11   11.20   13.10
   0  -9 -11   16.50   11.40
   0  -9 -11    3.20   13.00
   0  -9  11   -4.70   11.90
   0  -9 -11    8.70   12.70
   0  -9 -11    8.80   11.60
   0   9  11   -8.10   10.70
   0   9  11   -5.20   12.00
   0   9  11    9.30   12.10
   0   9 -11    1.40   12.70
   0   9 -11    2.80    9.00
   0   9  11    7.80   11.60
   0   9 -11    2.00   11.70
   1  -9  11  212.38   24.90
   1  -9  11  228.58   26.60
  -1  -9 -11  204.58   22.80
  -1  -9 -11  182.98   19.20
   1  -9  11  215.18   22.20
  -1  -9 -11  197.38   19.80
  -1  -9 -11  178.78   21.40
   1  -9  11  217.78   22.60
  -1   9 -11  244.88   23.40
  -1   9 -11  198.88   23.70
  -1   9 -11  199.38   23.60
   1   9  11  186.38   17.30
  -2  -9 -11   -9.00   14.80
   2  -9  11   47.60   19.20
  -2  -9 -11   15.70   15.80
  -2  -9 -11   -5.50   13.20
   2  -9  11   19.80   20.50
   2  -9  11    8.50   18.50
  -2  -9 -11   -9.40   13.90
   2  -9  11    1.00   17.60
  -2   9 -11    4.70   18.70
   2   9  11   -6.20   15.20
  -2   9 -11   10.10   18.00
  -2   9 -11   -3.30   16.50
   2   9  11   -0.10   10.90
  -2   9 -11   29.00   17.30
   2 -10 -11  193.48   23.00
  -2 -10  11  236.08   26.80
  -2 -10  11  185.18   21.00
   2 -10 -11  251.47   27.00
  -2 -10  11  243.58   24.60
   2 -10 -11  203.38   24.30
   2 -10 -11  228.58   26.90
  -2 -10  11  176.18   20.60
  -2  10  11  170.18   22.60
  -2  10  11  221.88   23.70
   2  10 -11  167.68   21.20
  -2  10  11  205.88   21.70
  -2  10  11  193.18   23.50
  -1 -10  11  118.69   15.30
  -1 -10  11  164.78   21.00
   1 -10 -11  153.78   19.90
   1 -10 -11  132.89   17.80
   1 -10 -11   99.89   16.70
   1 -10 -11   98.49   17.50
  -1 -10  11  163.38   18.20
  -1 -10  11  126.49   16.50
  -1  10  11  119.39   17.30
  -1  10  11  125.99   18.00
  -1  10  11  131.99   17.90
   1  10 -11  135.59   16.40
   0 -10  11  175.28   18.10
   0 -10 -11  151.68   16.80
   0 -10  11  128.59   18.70
   0 -10 -11  152.28   18.50
   0 -10  11  156.08   18.00
   0 -10 -11  162.58   19.30
   0 -10  11  190.98   23.80
   0 -10 -11  174.18   18.00
   0  10  11  159.88   18.10
   0  10  11  140.19   16.10
   0  10  11  149.69   18.40
   0  10  11  142.89   15.50
   1 -10  11  -24.60   15.80
  -1 -10 -11   -3.80   12.20
   1 -10  11    3.40   15.20
  -1 -10 -11    7.50   14.00
  -1 -10 -11   -9.90   13.00
   1 -10  11   -7.10   15.50
   1 -10  11   -0.40   15.30
  -1 -10 -11   11.00   14.00
   1  10  11    8.90    6.90
   1  10  11   14.60    8.90
  -1  10 -11   14.80   14.00
  -1  10 -11    7.90   16.70
  -1  10 -11    1.80   14.00
   1  10  11   -7.60   13.40
  -1  10 -11    4.00   13.30
  -2 -10 -11  188.28   24.50
  -2 -10 -11  195.18   25.40
   2 -10  11  221.28   24.20
   2 -10  11  178.18   24.40
  -2 -10 -11  181.68   21.80
   2 -10  11  169.08   23.10
  -2 -10 -11  188.78   23.00
   2  10  11  222.18   28.50
  -2  10 -11  231.38   26.80
  -2  10 -11  205.08   23.30
  -2  10 -11  193.08   24.70
  -2  10 -11  194.38   23.90
  -1 -11  11  320.97   25.20
   1 -11 -11  253.77   30.80
   1 -11 -11  258.97   28.80
  -1 -11  11  302.67   24.90
  -1 -11  11  241.68   29.00
   1 -11 -11  278.17   28.30
   1 -11 -11  286.07   30.50
  -1 -11  11  329.87   26.60
  -1  11  11  273.07   29.00
  -1  11  11  234.98   29.00
  -1  11  11  338.57   29.30
   0 -11  11   65.59   16.90
   0 -11  11   71.19   15.30
   0 -11  11   92.49   17.10
   0 -11 -11   81.99   17.00
   0 -11 -11   77.49   17.90
   0 -11  11   87.89   18.30
   0 -11 -11   61.19   15.10
   0 -11 -11   81.69   16.00
   0  11  11   82.59   14.30
   0  11  11   73.79   17.80
   0  11  11   70.89   13.20
  -1 -11 -11  328.37   31.20
   1 -11  11  284.07   31.00
  -1 -11 -11  322.67   27.00
   1 -11  11  337.17   32.20
  -1 -11 -11  323.87   27.60
  -1 -11 -11  336.87   28.30
   1 -11  11  325.37   31.10
   1 -11  11  313.07   34.50
  -1  11 -11  312.57   27.60
   1  11  11  322.37   28.30
  -1  11 -11  336.87   27.30
  -1  11 -11  334.07   28.40
  -1  11 -11  326.67   36.10
   1 -12 -11   33.30   18.30
  -1 -12  11   69.39   15.10
   1 -12 -11   41.10   17.80
  -1 -12  11   83.49   16.80
   1 -12 -11   29.30   16.60
  -1 -12  11   49.20   18.00
  -1 -12  11   42.50   14.10
   1 -12 -11   45.90   16.70
  -1  12  11   45.20   18.00
  -1  12  11   48.80   17.80
   1  12 -11   34.20   11.80
   1  12 -11   54.19   16.40
  -1  12  11   -4.90   14.80
  -1  12  11   69.19   29.80
   0 -12  11  385.76   31.60
   0 -12 -11  436.76   31.50
   0 -12  11  370.56   28.40
   0 -12 -11  383.96   33.60
   0 -12  11  426.56   32.20
   0 -12  11  412.26   35.50
   0 -12 -11  448.06   31.70
   0 -12 -11  384.46   30.20
   0  12  11  448.46   33.10
   0  12  11  406.86   27.60
   0  12 -11  381.26   33.30
   3   0 -12   24.60   14.60
  -3   0  12  -37.30   13.90
   3   0 -12  -14.70   13.50
  -3   0  12  -19.70   13.60
   3   0 -12   -1.50   11.60
  -3   0  12  -10.80   14.60
   3   0 -12    8.20   15.10
   2   0 -12  550.44   31.20
  -2   0  12  519.15   30.80
   2   0 -12  526.85   31.10
  -2   0  12  533.05   31.10
  -2   0  12  525.05   31.10
   2   0 -12  523.75   28.70
   2   0 -12  539.05   30.30
  -2   0  12  546.85   30.60
   1   0 -12   51.79   11.50
  -1   0  12   56.49   13.00
   1   0 -12   37.70   10.50
  -1   0  12   50.09   11.70
  -1   0  12   38.70   11.80
   1   0 -12   62.19   11.70
   1   0 -12   57.59   11.90
  -1   0  12   55.99   12.50
   0   0 -12 1009.80   47.00
   0   0  12 1029.00   47.10
   0   0  12  993.70   46.70
   0   0 -12 1106.79   47.50
   0   0  12 1046.90   46.60
   0   0 -12  987.80   47.00
   0   0  12 1072.69   47.00
   1   0  12  477.35   29.80
   1   0  12  490.15   29.50
   1   0  12  510.05   29.80
  -1   0 -12  489.45   30.90
   1   0  12  482.15   29.10
  -1   0 -12  516.95   29.90
  -1   0 -12  510.95   29.70
  -1   0 -12  490.65   29.70
   2   0  12   43.10   14.10
  -2   0 -12   64.39   15.20
  -2   0 -12   25.80   12.60
   2   0  12   48.60   13.90
  -2   0 -12   23.10   15.10
   2   0  12   31.10   14.40
  -2   0 -12   23.00   13.10
   2   0  12   39.30   14.40
  -3   0 -12  227.08   24.20
  -3   0 -12  269.97   31.80
  -3   0 -12  311.57   30.40
   3   0  12  247.68   28.40
   3   0  12  275.07   33.00
  -3   0 -12  273.37   28.80
   3   0  12  285.77   27.60
  -3  -1  12  736.13   38.60
   3  -1 -12  640.24   37.50
   3  -1 -12  626.14   38.00
   3  -1 -12  701.63   37.80
  -3  -1  12  670.63   38.20
  -3  -1  12  637.44   37.90
   3  -1 -12  702.63   35.90
  -3   1  12  683.13   38.70
   3   1 -12  699.43   33.30
   3   1 -12  576.84   35.80
   3   1 -12  690.93   38.10
  -3   1  12  645.64   38.00
  -3   1  12  675.43   38.90
  -3   1  12  642.94   38.70
   2  -1 -12  140.99   15.10
  -2  -1  12  138.79   15.50
  -2  -1  12  129.09   15.80
  -2  -1  12  156.18   16.80
  -2  -1  12  141.69   16.10
   2  -1 -12  133.39   14.70
   2  -1 -12  135.59   15.20
   2  -1 -12  126.19   16.10
  -2   1  12  159.58   17.30
  -2   1  12  153.88   16.00
  -2   1  12  150.68   16.80
   2   1 -12  170.88   20.40
  -2   1  12  145.19   17.10
   2   1 -12  141.09   17.20
   2   1 -12  120.79   15.60
   2   1 -12  135.99   15.20
   1  -1 -12  645.04   32.20
   1  -1 -12  605.54   31.50
   1  -1 -12  625.04   31.40
  -1  -1  12  578.84   31.60
  -1  -1  12  594.54   31.60
  -1  -1  12  587.84   31.00
  -1  -1  12  641.64   32.40
   1  -1 -12  611.34   31.80
   1   1 -12  616.34   31.90
  -1   1  12  562.04   30.80
  -1   1  12  610.74   32.20
   1   1 -12  610.74   30.70
  -1   1  12  611.24   31.90
   1   1 -12  597.24   31.50
   1   1 -12  519.55   31.50
  -1   1  12  501.75   32.20
   0  -1  12  594.24   30.60
   0  -1  12  564.84   31.00
   0  -1 -12  548.95   31.10
   0  -1  12  603.84   31.10
   0  -1 -12  540.55   31.20
   0  -1 -12  563.54   31.00
   0  -1  12  609.04   31.00
   0   1 -12  571.24   31.60
   0   1  12  533.45   30.60
   0   1  12  539.75   31.60
   0   1  12  584.14   30.80
   0   1  12  547.45   31.00
   0   1 -12  594.94   31.40
   0   1 -12  576.64   31.50
   0   1 -12  597.54   31.00
   1  -1  12  120.09   15.50
  -1  -1 -12  120.89   14.80
   1  -1  12  139.69   16.70
   1  -1  12  112.79   14.90
   1  -1  12  134.49   16.10
  -1  -1 -12  145.99   16.70
  -1  -1 -12  168.68   20.30
  -1  -1 -12  157.78   16.60
  -1   1 -12  123.19   16.20
   1   1  12  126.29   16.60
   1   1  12  136.09   15.90
   1   1  12  124.99   14.80
  -1   1 -12  149.59   18.00
  -1   1 -12  152.58   16.10
  -1   1 -12  122.09   15.60
   1   1  12  167.48   19.60
   2  -1  12  646.44   36.20
  -2  -1 -12  626.84   35.20
   2  -1  12  638.94   35.70
  -2  -1 -12  713.93   37.00
   2  -1  12  595.24   36.60
  -2  -1 -12  637.84   35.10
  -2  -1 -12  641.94   37.20
  -2   1 -12  665.73   37.80
  -2   1 -12  586.44   38.10
  -2   1 -12  593.94   36.20
   2   1  12  635.44   36.40
   2   1  12  707.03   36.30
   2   1  12  674.33   35.20
   2   1  12  687.23   35.60
  -2   1 -12  603.04   35.00
   3  -1  12   25.40   15.50
   3  -1  12   13.10   16.40
  -3  -1 -12    4.20   17.10
  -3  -1 -12   16.70   16.00
   3  -1  12   35.40   16.30
   3  -1  12   -4.40   18.20
  -3  -1 -12   65.69   18.80
  -3  -1 -12    2.40   14.90
   3   1  12   16.70   19.20
   3   1  12   10.90   14.40
  -3   1 -12   17.80   15.50
   3   1  12    9.40   15.50
   3   1  12  -15.50   12.60
  -3   1 -12  -21.50   17.40
  -3   1 -12   47.60   17.90
   3  -2 -12   20.90   13.90
   3  -2 -12    2.00   13.50
  -3  -2  12   -5.30   13.20
  -3  -2  12   13.20   15.20
  -3  -2  12   24.50   14.60
   3  -2 -12   20.60   13.70
  -3   2  12   19.30   16.10
   3   2 -12   20.30   14.40
  -3   2  12   31.10   14.90
   3   2 -12   19.90   10.20
  -3   2  12   24.60   16.80
  -3   2  12   23.30   15.70
   3   2 -12   -3.80   10.20
   3   2 -12   14.70   10.20
  -2  -2  12  297.27   24.30
   2  -2 -12  279.87   24.50
   2  -2 -12  295.77   24.20
  -2  -2  12  283.97   23.10
  -2  -2  12  300.07   23.60
   2  -2 -12  350.46   24.30
   2  -2 -12  280.47   23.40
  -2  -2  12  292.97   23.30
   2   2 -12  281.27   23.70
   2   2 -12  300.07   23.10
  -2   2  12  270.77   24.90
   2   2 -12  269.37   19.90
  -2   2  12  275.57   24.00
   2   2 -12  313.47   22.90
  -2   2  12  279.87   24.40
  -2   2  12  277.07   25.20
   1  -2 -12  362.96   25.10
  -1  -2  12  367.46   24.60
   1  -2 -12  364.86   24.30
  -1  -2  12  384.76   24.20
  -1  -2  12  347.87   24.30
   1  -2 -12  400.36   25.30
  -1  -2  12  361.16   25.10
   1  -2 -12  342.67   24.90
   1   2 -12  373.26   25.40
   1   2 -12  375.16   25.00
   1   2 -12  406.86   23.60
  -1   2  12  351.46   24.70
  -1   2  12  387.36   25.80
   1   2 -12  400.36   24.60
  -1   2  12  354.46   26.50
  -1   2  12  354.06   24.60
   0  -2  12  180.68   19.80
   0  -2 -12  176.28   19.60
   0  -2  12  184.88   20.00
   0  -2  12  184.28   19.70
   0  -2 -12  180.98   19.50
   0  -2  12  178.48   19.70
   0  -2 -12  170.18   20.00
   0   2 -12  182.88   19.90
   0   2 -12  154.18   20.20
   0   2  12  192.98   19.30
   0   2 -12  174.48   19.20
   0   2  12  150.68   18.80
   0   2  12  179.28   19.80
   0   2  12  152.38   16.40
   0   2 -12  198.08   20.70
  -1  -2 -12  437.86   28.90
   1  -2  12  492.05   28.90
  -1  -2 -12  423.16   28.00
  -1  -2 -12  449.06   28.90
   1  -2  12  518.05   29.40
   1  -2  12  469.35   28.70
  -1  -2 -12  458.55   29.10
   1  -2  12  404.76   28.60
   1   2  12  447.46   27.50
  -1   2 -12  512.45   28.80
  -1   2 -12  452.75   30.00
  -1   2 -12  453.75   29.30
   1   2  12  454.75   28.10
  -1   2 -12  448.26   28.80
   1   2  12  487.35   28.70
   1   2  12  478.45   28.70
   2  -2  12   48.40   14.80
  -2  -2 -12   24.70   14.20
   2  -2  12   31.70   16.20
  -2  -2 -12   21.60   12.40
  -2  -2 -12   41.00   13.40
  -2  -2 -12   34.60   15.00
   2  -2  12   29.50   14.40
   2   2  12   26.10   13.20
  -2   2 -12   38.40   13.80
   2   2  12   37.00   13.00
   2   2  12   33.00   14.20
  -2   2 -12   40.00   13.10
   2   2  12   27.40   14.30
  -2   2 -12   53.09   15.40
   3  -2  12  294.87   30.10
   3  -2  12  309.57   31.40
   3  -2  12  270.07   31.90
  -3  -2 -12  216.98   22.80
  -3  -2 -12  302.17   29.80
  -3  -2 -12  278.97   28.60
   3  -2  12  317.17   29.80
  -3  -2 -12  211.48   23.70
  -3   2 -12  263.97   32.60
   3   2  12  252.67   25.30
  -3   2 -12  253.67   30.40
  -3   2 -12  211.38   24.90
   3   2  12  257.77   25.60
   3   2  12  211.68   24.00
  -3  -3  12  135.39   17.40
  -3  -3  12   69.19   16.00
   3  -3 -12   95.59   17.90
   3  -3 -12  101.89   16.90
  -3  -3  12   87.69   16.60
   3  -3 -12  104.79   18.90
   3  -3 -12  139.59   17.90
  -3   3  12   91.89   19.80
  -3   3  12  105.79   18.90
  -3   3  12  100.69   18.60
   3   3 -12   70.99   17.10
  -3   3  12   92.89   18.60
   3   3 -12  101.39   10.50
   2  -3 -12   19.20   10.90
   2  -3 -12   22.60   12.60
   2  -3 -12   28.00   12.00
  -2  -3  12   14.10   11.40
  -2  -3  12   15.20   12.20
  -2  -3  12   34.40   12.90
   2  -3 -12   20.90   12.80
  -2  -3  12   35.60   11.90
  -2   3  12   39.90   14.10
   2   3 -12   18.30   11.30
   2   3 -12   16.90   11.80
  -2   3  12   29.50   13.70
   2   3 -12   22.50    9.40
   2   3 -12   33.80   12.30
  -2   3  12   44.80   13.40
   1  -3 -12   57.89   12.30
  -1  -3  12   66.99   11.30
   1  -3 -12   51.59   11.10
   1  -3 -12   66.89   12.70
  -1  -3  12   69.69   12.90
  -1  -3  12   61.79   13.20
  -1  -3  12   62.39   11.80
   1  -3 -12   66.79   12.40
   1   3 -12   62.99   13.20
  -1   3  12   60.89   13.10
  -1   3  12   59.89   13.40
   1   3 -12   71.29   13.30
  -1   3  12   64.99   12.20
   1   3 -12   76.79   12.30
   1   3 -12   75.89   11.50
  -1   3  12   48.30   16.60
   0  -3 -12    4.50   10.20
   0  -3  12   17.10   11.60
   0  -3  12   19.40   11.70
   0  -3 -12    0.50   10.20
   0  -3 -12   -0.30   10.80
   0  -3  12   20.40   11.00
   0  -3  12    8.00   10.90
   0  -3 -12   14.40   10.80
   0   3 -12   21.20   11.10
   0   3 -12    4.60   10.90
   0   3 -12    8.10   12.10
   0   3  12   -2.30   10.60
   0   3  12   12.20   10.50
   0   3 -12    0.30    9.20
   0   3  12   25.40   12.40
   0   3  12   -3.30    9.40
  -1  -3 -12    7.10   11.20
   1  -3  12   16.90   13.00
  -1  -3 -12   20.00   11.40
  -1  -3 -12   27.10   13.00
   1  -3  12    4.60   12.30
   1  -3  12   24.80   12.30
  -1  -3 -12   12.70   12.00
  -1   3 -12    2.30   12.30
   1   3  12    3.50   11.00
   1   3  12   20.80   12.50
  -1   3 -12   -3.40   11.30
   1   3  12    4.90   11.70
  -1   3 -12   10.50   11.50
   1   3  12    6.60   12.00
  -1   3 -12   15.30   12.20
  -2  -3 -12  150.78   18.50
  -2  -3 -12  127.69   16.80
   2  -3  12  187.18   19.60
   2  -3  12  180.08   23.10
   2  -3  12  119.69   17.50
  -2  -3 -12  134.79   16.80
  -2  -3 -12  157.88   18.10
  -2   3 -12  162.78   19.10
  -2   3 -12  172.18   18.70
   2   3  12  142.39   18.50
   2   3  12  147.59   16.30
   2   3  12  148.49   16.10
   2   3  12  175.48   19.20
  -2   3 -12  122.09   17.20
   3  -3  12   28.10   17.70
  -3  -3 -12   14.80   16.40
  -3  -3 -12   24.60   15.60
  -3  -3 -12    2.90   17.10
  -3  -3 -12    3.10   14.70
   3  -3  12   -5.00   18.80
   3  -3  12   -4.50   17.30
   3  -3  12  -13.70   18.00
  -3   3 -12    6.60   17.10
   3   3  12    1.20   17.50
   3   3  12    3.70   11.50
   3   3  12    2.50   14.00
   3   3  12   29.80   13.90
  -3   3 -12    4.90   19.00
  -3   3 -12   31.70   18.40
  -3  -4  12    2.70   14.20
   3  -4 -12   33.20   16.50
  -3  -4  12   35.60   15.00
  -3  -4  12    9.80   14.30
   3  -4 -12   52.49   16.10
   3  -4 -12    0.60   15.20
   3  -4 -12   22.90   14.60
  -3  -4  12   -1.00   14.90
  -3   4  12   32.00   15.60
  -3   4  12    1.50   15.50
  -3   4  12   24.90   17.30
  -3   4  12   67.49   16.60
   3   4 -12   -5.90   15.50
  -2  -4  12   28.80   11.50
   2  -4 -12   -0.30   12.80
   2  -4 -12   17.60   10.90
  -2  -4  12   18.60   11.00
  -2  -4  12   14.90   12.40
   2  -4 -12   30.20   12.40
  -2  -4  12   28.00   13.30
   2   4 -12   19.60    8.20
  -2   4  12    4.80   13.50
   2   4 -12   27.80   10.30
  -2   4  12   12.10   13.50
   2   4 -12   30.20   11.80
  -2   4  12   19.00   13.30
   1  -4 -12   31.00   12.00
   1  -4 -12   25.10   12.00
   1  -4 -12   45.10   12.60
  -1  -4  12   34.30   11.00
  -1  -4  12   42.10   11.80
  -1  -4  12   23.10   10.80
  -1  -4  12   19.40   10.40
  -1   4  12   33.10   12.60
   1   4 -12    6.00   11.80
  -1   4  12   33.70   12.40
  -1   4  12   72.19   13.40
  -1   4  12   27.60   12.20
   1   4 -12   40.50    9.80
   1   4 -12   45.20   11.80
   1   4 -12   22.50   10.70
   0  -4 -12   11.60   10.80
   0  -4 -12   22.80   10.90
   0  -4  12   18.60   12.10
   0  -4  12   26.80   11.90
   0  -4 -12   23.70   12.30
   0  -4  12    6.30   10.90
   0  -4 -12   -2.40    9.70
   0  -4  12   33.50   12.40
   0   4  12   29.60   12.70
   0   4  12   23.90   10.90
   0   4 -12    0.30   11.40
   0   4  12   11.90   10.90
   0   4 -12   26.60   11.80
   0   4  12   16.20   12.30
   0   4 -12   17.90   11.10
   0   4 -12   36.50   11.70
  -1  -4 -12  113.29   15.30
  -1  -4 -12  103.29   15.20
  -1  -4 -12  113.09   15.80
   1  -4  12   93.69   15.60
   1  -4  12  119.99   16.30
  -1  -4 -12  105.59   14.70
   1  -4  12  106.29   14.80
   1   4  12   91.89   14.60
   1   4  12  104.19   14.80
   1   4  12   99.29   14.70
  -1   4 -12   88.29   16.00
  -1   4 -12  110.39   16.10
  -1   4 -12  101.09   15.80
   1   4  12  126.49   14.60
  -1   4 -12  103.49   15.00
   2  -4  12    8.70   15.40
   2  -4  12  -20.80   14.80
  -2  -4 -12    2.20   14.10
  -2  -4 -12   -3.60   13.50
   2  -4  12  -10.40   13.80
   2  -4  12    6.20   14.10
  -2  -4 -12  -11.50   11.70
  -2  -4 -12   11.30   13.20
   2   4  12   -0.30   13.50
   2   4  12  -24.90   10.80
  -2   4 -12   -7.40   13.70
   2   4  12   21.50   13.30
  -2   4 -12   13.70   13.90
  -2   4 -12    4.70   13.70
   2   4  12   19.70   12.70
  -3  -4 -12   -0.80   15.70
  -3  -4 -12   10.00   15.10
  -3  -4 -12   -0.30   17.10
   3  -4  12  -46.90   18.20
  -3  -4 -12  -17.40   14.50
   3  -4  12   37.20   18.50
   3  -4  12  -20.40   19.60
   3  -4  12  -17.90   19.20
   3   4  12   -2.40   17.50
   3   4  12   11.30   13.60
   3   4  12   -4.10   10.10
   3   4  12   -4.60   12.40
  -3   4 -12  -14.90   19.60
  -3   4 -12    3.40   17.90
  -3   4 -12  -19.60   17.40
  -3   4 -12    8.00   17.80
   3  -5 -12  152.08   19.90
   3  -5 -12  159.28   22.80
  -3  -5  12  119.69   17.70
   3  -5 -12  171.98   20.70
   3  -5 -12  140.09   21.50
  -3  -5  12  125.99   18.10
  -3  -5  12  141.69   18.70
  -3  -5  12  134.59   17.20
  -3   5  12  180.58   22.40
  -3   5  12  118.49   21.00
   3   5 -12  104.09   19.20
  -3   5  12  126.19   20.10
  -3   5  12  105.69   19.20
  -2  -5  12  130.89   15.40
   2  -5 -12  162.88   20.80
   2  -5 -12  142.99   18.80
  -2  -5  12  156.58   16.60
   2  -5 -12  183.98   18.90
   2  -5 -12  104.19   15.70
  -2  -5  12  171.18   20.40
  -2  -5  12  158.08   16.50
  -2   5  12  125.39   17.40
  -2   5  12  178.78   19.60
   2   5 -12  156.68   13.70
  -2   5  12  150.88   18.50
  -1  -5  12  284.67   22.70
  -1  -5  12  258.27   22.30
   1  -5 -12  277.77   24.80
  -1  -5  12  278.57   22.70
   1  -5 -12  238.98   22.30
   1  -5 -12  279.37   24.20
  -1  -5  12  263.27   22.30
  -1   5  12  276.67   25.20
   1   5 -12  282.07   21.10
   1   5 -12  301.47   25.50
  -1   5  12  281.87   23.00
  -1   5  12  262.47   23.90
  -1   5  12  279.07   23.20
   1   5 -12  243.38   18.80
   1   5 -12  249.97   22.00
   0  -5 -12  117.29   14.70
   0  -5  12   61.69   12.90
   0  -5 -12  110.59   15.20
   0  -5  12  103.79   15.00
   0  -5  12   99.19   14.80
   0  -5 -12   61.09   11.90
   0  -5 -12  126.89   15.30
   0  -5  12   98.99   14.70
   0   5  12   95.59   14.30
   0   5  12   88.19   13.60
   0   5 -12  104.69   14.70
   0   5 -12   84.49   13.90
   0   5 -12   85.89   14.90
   0   5  12  121.59   15.60
   0   5  12   95.49   15.10
   0   5 -12  105.09   13.70
  -1  -5 -12   17.60   12.70
   1  -5  12   10.60   11.90
   1  -5  12   13.30   12.90
  -1  -5 -12   -1.30   12.70
  -1  -5 -12    9.90   11.60
   1  -5  12   33.30   13.20
  -1  -5 -12    4.80   11.80
  -1   5 -12   19.30   12.50
   1   5  12   -0.70   10.70
   1   5  12   23.30   12.30
  -1   5 -12   31.70   13.00
   1   5  12   15.20   13.20
  -1   5 -12    3.20   12.50
  -1   5 -12   30.00   14.10
   1   5  12   18.20   12.30
  -2  -5 -12   51.99   15.80
   2  -5  12   74.49   15.90
   2  -5  12   55.99   17.40
   2  -5  12   77.69   19.30
  -2  -5 -12   72.89   15.20
  -2  -5 -12   73.49   15.20
  -2  -5 -12   60.49   15.80
   2  -5  12   41.80   17.90
   2   5  12   42.10   14.90
  -2   5 -12   77.29   16.50
   2   5  12   51.49   13.30
  -2   5 -12   54.79   17.10
  -2   5 -12   53.49   16.00
  -2   5 -12   69.59   16.80
   2   5  12   58.69   15.10
   2   5  12   46.00   12.00
  -3  -5 -12   35.50   18.90
   3  -5  12   30.00   20.20
  -3  -5 -12   13.80   16.70
   3  -5  12   30.10   21.90
   3  -5  12  -11.10   20.40
  -3  -5 -12    8.90   16.10
   3   5  12    4.20   11.40
   3   5  12   -6.00    9.20
  -3   5 -12   19.80   19.50
  -3   5 -12   -4.20   20.60
  -3   5 -12  -26.90   18.70
   3  -6 -12   11.90   18.20
   3  -6 -12   10.50   17.40
   3  -6 -12   19.30   18.00
  -3  -6  12    4.00   15.10
  -3  -6  12   -3.80   15.10
  -3  -6  12   15.20   13.60
   3  -6 -12   19.20   18.20
  -3  -6  12  -18.20   14.90
   3   6 -12   -6.90    9.40
   3   6 -12   21.50   17.70
  -3   6  12   13.70   19.20
  -3   6  12  -29.00   17.50
  -3   6  12    3.80   16.70
  -2  -6  12  418.56   27.60
  -2  -6  12  463.25   27.80
   2  -6 -12  448.86   31.60
   2  -6 -12  408.76   29.40
  -2  -6  12  405.66   28.40
  -2  -6  12  435.46   28.10
   2  -6 -12  426.06   30.30
   2  -6 -12  401.16   31.40
  -2   6  12  469.65   33.50
  -2   6  12  393.76   31.00
  -2   6  12  404.96   31.90
  -2   6  12  413.06   30.10
  -1  -6  12   22.10   12.10
   1  -6 -12    7.50   12.70
   1  -6 -12   22.70   13.00
  -1  -6  12   19.20   12.60
   1  -6 -12   21.10   10.50
  -1  -6  12   19.70   12.70
  -1  -6  12   37.50   12.40
  -1   6  12   33.90   12.60
   1   6 -12   17.00    8.60
  -1   6  12    9.30   13.60
   1   6 -12   16.80    9.40
  -1   6  12   13.80   13.10
  -1   6  12   17.90   13.00
   1   6 -12   15.90   11.40
   0  -6 -12   -8.50   11.20
   0  -6  12    8.40   12.20
   0  -6  12   -4.80   11.70
   0  -6 -12   13.50   12.00
   0  -6 -12    6.70   11.70
   0  -6 -12   -3.60    9.90
   0  -6  12    4.10   11.30
   0  -6  12    5.80   12.10
   0   6  12    6.50   12.40
   0   6  12   -6.60   10.50
   0   6 -12    0.70   10.30
   0   6  12   -7.30   10.90
   0   6 -12   -1.20   12.30
   0   6 -12  -14.20   10.70
   0   6 -12    9.50   10.70
   0   6  12    4.00   12.60
  -1  -6 -12  665.53   35.30
   1  -6  12  565.94   34.10
   1  -6  12  662.43   36.00
  -1  -6 -12  577.04   34.80
   1  -6  12  603.34   36.30
  -1  -6 -12  669.43   34.10
   1  -6  12  571.34   35.60
  -1  -6 -12  657.83   34.10
   1   6  12  563.34   31.80
  -1   6 -12  626.94   35.30
   1   6  12  593.14   31.50
  -1   6 -12  576.24   34.50
   1   6  12  632.34   34.10
   1   6  12  593.44   33.90
  -1   6 -12  570.44   34.90
  -1   6 -12  584.74   34.80
   2  -6  12  126.49   20.40
  -2  -6 -12  104.09   17.10
   2  -6  12  110.49   18.20
   2  -6  12  119.69   20.60
  -2  -6 -12  102.19   17.50
  -2  -6 -12  110.49   17.20
   2  -6  12   69.69   19.30
  -2  -6 -12   90.69   15.60
   2   6  12  105.29   13.20
  -2   6 -12  124.89   18.30
  -2   6 -12  115.89   20.90
   2   6  12   98.19   17.60
  -2   6 -12  135.49   19.10
   2  -7 -12   45.00   16.00
  -2  -7  12   31.20   14.00
   2  -7 -12   15.20   15.20
   2  -7 -12   36.90   13.50
   2  -7 -12   17.00   15.30
  -2  -7  12   23.70   14.10
  -2  -7  12   23.40   12.40
  -2  -7  12   32.20   13.30
  -2   7  12   13.20   16.00
   2   7 -12   28.70   15.50
  -2   7  12   31.20   15.40
  -2   7  12   16.20   14.20
  -2   7  12   13.50   16.90
   2   7 -12   -5.80    7.90
  -1  -7  12  654.53   35.70
  -1  -7  12  721.33   36.00
  -1  -7  12  654.13   35.70
  -1  -7  12  680.23   36.10
   1  -7 -12  641.94   36.20
   1  -7 -12  718.03   37.80
   1  -7 -12  687.73   37.80
  -1   7  12  700.83   37.90
   1   7 -12  666.73   31.00
  -1   7  12  702.53   38.40
   1   7 -12  686.23   30.70
  -1   7  12  712.03   37.20
   1   7 -12  679.73   35.80
   0  -7  12  233.08   24.20
   0  -7 -12  208.48   23.80
   0  -7 -12  211.28   22.40
   0  -7  12  228.38   23.80
   0  -7  12  249.97   22.80
   0  -7  12  205.08   23.40
   0  -7 -12  222.98   21.60
   0  -7 -12  267.17   24.30
   0   7 -12  235.88   21.00
   0   7  12  257.07   24.10
   0   7  12  240.68   23.40
   0   7 -12  199.58   22.20
   0   7 -12  212.58   21.10
   0   7  12  226.78   21.70
   0   7 -12  229.78   20.90
   0   7  12  214.18   23.20
  -1  -7 -12  124.29   16.00
   1  -7  12  205.78   23.00
   1  -7  12  137.69   17.40
   1  -7  12  142.29   19.20
   1  -7  12  156.48   19.50
  -1  -7 -12  174.78   18.50
  -1  -7 -12  172.58   18.50
   1   7  12  139.59   17.70
   1   7  12  166.28   19.90
  -1   7 -12  184.18   19.20
   1   7  12  149.49   19.00
  -1   7 -12  140.19   18.60
  -1   7 -12  174.38   18.10
   1   7  12  149.69   16.90
  -1   7 -12  176.18   19.00
  -2  -7 -12  276.07   25.90
  -2  -7 -12  345.47   28.40
   2  -7  12  257.47   26.80
   2  -7  12  305.77   32.30
   2  -7  12  249.18   30.20
  -2  -7 -12  317.27   28.00
  -2  -7 -12  330.87   28.60
   2  -7  12  281.47   30.50
   2   7  12  274.37   20.50
  -2   7 -12  307.77   32.10
  -2   7 -12  283.57   30.50
   2   7  12  273.07   27.80
  -2   7 -12  350.66   30.80
   2  -8 -12  418.56   33.70
  -2  -8  12  455.75   29.90
   2  -8 -12  493.05   34.80
  -2  -8  12  464.55   29.40
   2  -8 -12  451.45   33.30
  -2  -8  12  426.36   30.10
   2  -8 -12  451.75   32.00
  -2  -8  12  389.56   27.90
  -2   8  12  422.56   34.10
   2   8 -12  413.46   31.60
  -2   8  12  455.55   33.80
  -2   8  12  472.05   33.30
  -2   8  12  465.65   35.00
   1  -8 -12  233.48   21.90
  -1  -8  12  218.78   23.40
   1  -8 -12  228.78   24.60
   1  -8 -12  219.18   26.40
  -1  -8  12  203.18   25.10
  -1  -8  12  238.38   23.50
   1  -8 -12  263.27   24.40
  -1  -8  12  208.98   23.00
   1   8 -12  241.88   15.40
  -1   8  12  279.77   26.90
  -1   8  12  265.67   25.40
  -1   8  12  275.87   25.80
   0  -8 -12  126.79   16.90
   0  -8  12  106.99   16.90
   0  -8 -12  100.29   15.20
   0  -8  12  116.89   17.50
   0  -8 -12  108.29   16.50
   0  -8  12  130.59   17.50
   0  -8  12   82.19   15.50
   0  -8 -12  102.89   16.50
   0   8  12   89.19   15.40
   0   8  12  113.39   16.90
   0   8 -12   98.69   13.70
   0   8  12  115.49   17.30
   0   8 -12   84.19   16.80
   0   8 -12   77.79   14.50
   0   8  12  121.99   14.70
  -1  -8 -12  417.76   30.00
   1  -8  12  386.36   33.20
  -1  -8 -12  429.36   28.90
   1  -8  12  366.66   31.90
   1  -8  12  371.16   29.60
  -1  -8 -12  413.06   27.30
   1  -8  12  407.76   30.70
  -1   8 -12  426.96   29.40
   1   8  12  394.86   24.60
  -1   8 -12  390.36   31.30
   1   8  12  384.96   29.70
  -1   8 -12  343.37   28.90
   1   8  12  409.16   25.00
   1   8  12  432.96   28.60
  -1   8 -12  293.47   27.80
  -2  -8 -12    5.50   15.80
   2  -8  12   31.90   21.10
  -2  -8 -12  -34.60   15.40
   2  -8  12   -2.80   18.80
   2  -8  12   -0.60   18.40
  -2  -8 -12   -6.10   13.40
   2  -8  12   14.20   18.40
  -2  -8 -12    7.60   15.50
  -2   8 -12   17.30   19.00
  -2   8 -12  -34.40   18.90
   2   8  12  -16.70    6.70
   2   8  12   32.50   16.70
  -2   8 -12    9.40   17.00
  -2   8 -12   -8.00   16.90
   2   8  12    0.30    7.10
   2  -9 -12   83.89   19.70
  -2  -9  12   58.89   15.50
  -2  -9  12   34.00   14.80
  -2  -9  12   48.80   15.90
   2  -9 -12   18.50   16.50
   2  -9 -12   54.59   17.40
  -2  -9  12   12.20   13.20
   2  -9 -12   31.70   19.40
  -2   9  12   37.50   15.60
  -2   9  12   26.30   18.00
  -2   9  12   10.60   18.70
  -2   9  12   38.80   20.00
   2   9 -12   11.60   15.40
   2   9 -12   10.10    9.10
   1  -9 -12  118.39   17.00
   1  -9 -12  131.79   17.60
  -1  -9  12  177.18   22.50
  -1  -9  12  150.88   18.20
   1  -9 -12  144.19   19.30
  -1  -9  12  166.28   18.70
   1  -9 -12  175.28   20.50
  -1  -9  12  132.19   17.60
  -1   9  12  184.18   20.60
   1   9 -12  150.78   18.80
  -1   9  12  128.59   19.20
  -1   9  12  203.88   25.90
   0  -9  12  349.07   29.90
   0  -9  12  339.87   28.20
   0  -9 -12  335.57   26.80
   0  -9 -12  309.67   26.60
   0  -9 -12  352.56   28.30
   0  -9  12  322.57   26.30
   0  -9 -12  329.97   28.30
   0  -9  12  271.17   27.20
   0   9 -12  346.87   26.90
   0   9  12  306.17   25.10
   0   9  12  380.26   27.60
   0   9 -12  310.47   28.50
   0   9 -12  312.17   22.60
   0   9  12  302.67   26.00
   0   9  12  365.96   28.70
  -1  -9 -12  202.98   21.20
   1  -9  12  229.48   29.50
  -1  -9 -12  167.78   19.70
  -1  -9 -12  225.98   22.80
  -1  -9 -12  209.68   25.10
   1  -9  12  193.98   20.60
   1  -9  12  219.48   27.50
   1  -9  12  242.38   30.60
  -1   9 -12  207.38   21.40
   1   9  12  171.78   19.40
  -1   9 -12  191.28   24.80
   1   9  12  189.58   24.80
   2  -9  12  186.88   23.10
  -2  -9 -12  158.08   20.90
   2  -9  12  178.78   23.10
  -2  -9 -12  165.28   20.60
  -2  -9 -12  174.98   21.70
  -2  -9 -12  179.68   20.50
   2  -9  12  153.18   24.60
   2   9  12  137.29   22.50
  -2   9 -12  121.69   23.00
  -2   9 -12  212.38   27.40
  -2   9 -12  178.38   21.60
  -2   9 -12  166.38   22.10
  -1 -10  12   46.00   15.40
   1 -10 -12   37.80   16.40
   1 -10 -12   56.89   17.40
  -1 -10  12   72.39   16.80
  -1 -10  12   46.50   16.20
   1 -10 -12   51.99   17.40
   1 -10 -12   76.89   17.70
  -1 -10  12   33.20   15.30
  -1  10  12   65.49   17.40
  -1  10  12   67.79   17.20
  -1  10  12   57.69   16.80
  -1  10  12   40.00   15.40
   1  10 -12   42.10   16.60
   0 -10 -12  158.58   20.30
   0 -10  12  149.09   20.70
   0 -10 -12  155.08   19.60
   0 -10  12  168.98   18.40
   0 -10  12  174.58   21.20
   0 -10 -12  129.69   17.20
   0 -10 -12  116.29   17.70
   0 -10  12  169.38   19.10
   0  10 -12  134.29   19.60
   0  10  12  133.79   18.20
   0  10  12  125.69   16.40
   0  10  12  136.39   16.10
   0  10  12  134.29   19.10
  -1 -10 -12  180.08   20.80
   1 -10  12  178.58   23.40
   1 -10  12  164.78   23.50
  -1 -10 -12  131.69   17.90
   1 -10  12  180.38   21.90
  -1 -10 -12  181.48   20.20
   1 -10  12  142.89   20.70
  -1 -10 -12  215.98   26.20
   1  10  12  204.08   26.00
  -1  10 -12  169.28   19.10
  -1  10 -12  173.78   21.10
   1  10  12  167.68   18.30
   1 -11 -12   29.20   18.90
   1 -11 -12   -2.90   17.20
  -1 -11  12   32.00   15.00
  -1 -11  12   22.80   16.10
   1 -11 -12   46.10   17.60
  -1 -11  12   67.99   16.30
  -1 -11  12   42.70   18.10
   1 -11 -12   35.20   18.70
  -1  11  12   34.40   18.30
  -1  11  12   59.89   19.10
  -1  11  12   52.89   17.70
  -1  11  12   52.79   16.60
   1  11 -12   10.70   11.20
   0 -11 -12    7.20   16.80
   0 -11  12    5.40   14.50
   0 -11  12   24.50   18.70
   0 -11 -12   -2.50   14.70
   0 -11 -12   -1.50   15.30
   0 -11  12    8.20   15.80
   0 -11  12    4.90   16.50
   0 -11 -12   22.10   16.70
   0  11 -12  -23.60   12.20
   0  11  12    3.20   13.60
   0  11  12   -5.00   11.30
   0  11 -12   -8.60    8.10
   0  11  12  -14.40   16.90
   0  11  12   -4.10   12.40
   0  11 -12    6.40   10.00
  -1 -11 -12   22.90   13.80
   1 -11  12   21.70   19.70
   1 -11  12   57.39   21.50
   1 -11  12    9.30   19.10
  -1 -11 -12   22.80   16.60
  -1 -11 -12   11.00   16.30
  -1 -11 -12  -17.90   17.40
   1 -11  12  -27.00   17.90
  -1  11 -12   18.30   15.30
  -1  11 -12   -0.80   20.00
  -1  11 -12   48.00   15.70
   3   0 -13   -1.90   16.10
   3   0 -13   12.80   13.00
  -3   0  13    6.10   15.70
   3   0 -13    8.40   15.30
  -3   0  13  -26.50   15.20
  -3   0  13   -8.00   16.20
   3   0 -13   -3.90   12.20
   2   0 -13   -8.50   11.10
  -2   0  13   -9.80   13.40
   2   0 -13    5.70   11.40
   2   0 -13  -23.20   12.90
  -2   0  13  -10.60   12.00
   2   0 -13   -3.30   12.70
  -2   0  13    6.70   13.60
  -2   0  13   12.50   12.90
  -1   0  13   10.20   11.90
   1   0 -13  -14.70   11.60
   1   0 -13   -0.90   10.70
   1   0 -13   10.00   11.70
   1   0 -13    5.00   11.10
  -1   0  13    6.40   11.40
  -1   0  13   10.50   12.80
  -1   0  13    2.30   11.40
   0   0  13   -7.70   11.90
   0   0 -13   10.90   12.70
   0   0  13   -8.90   12.30
   0   0  13    2.90   11.60
   0   0 -13   13.80   12.20
   0   0 -13   -8.50   11.70
   1   0  13    9.10   13.10
  -1   0 -13   14.20   13.30
  -1   0 -13    7.20   12.70
   1   0  13   -3.70   11.70
   1   0  13   -4.60   12.40
   1   0  13   -5.50   12.30
  -1   0 -13    2.50   12.30
   2   0  13    7.50   14.10
   2   0  13   24.40   12.80
   2   0  13   33.50   14.60
  -2   0 -13   -4.00   15.30
  -2   0 -13    6.20   13.80
  -2   0 -13   -3.30   13.60
  -2   0 -13   -5.60   15.30
  -3   0 -13   -4.40   17.40
   3   0  13   -5.10   17.90
   3   0  13  -12.40   21.00
  -3   0 -13   18.00   19.70
   3   0  13   14.60   16.60
  -3   0 -13  -35.10   18.90
   3   0  13    9.50   17.20
  -3   0 -13  -10.40   17.80
  -3  -1  13  -18.20   15.30
   3  -1 -13   17.20   13.90
   3  -1 -13    0.80   14.90
   3  -1 -13   16.70   15.10
  -3  -1  13  -15.10   16.60
  -3  -1  13   24.70   16.40
  -3   1  13    4.60   15.60
  -3   1  13  -10.00   15.90
   3   1 -13   -2.00   16.60
   3   1 -13   17.10   11.40
   3   1 -13   23.00   13.80
  -3   1  13   20.30   16.80
   3   1 -13   -7.30   11.80
  -2  -1  13  230.88   23.80
   2  -1 -13  224.88   24.40
   2  -1 -13  223.48   23.30
   2  -1 -13  230.48   24.20
  -2  -1  13  182.58   22.80
  -2  -1  13  205.08   24.40
   2  -1 -13  217.38   23.00
  -2  -1  13  202.08   23.00
  -2   1  13  213.58   23.70
  -2   1  13  199.68   25.50
   2   1 -13  233.48   24.30
  -2   1  13  186.38   23.10
  -2   1  13  201.58   20.20
   2   1 -13  208.28   23.00
   2   1 -13  213.68   20.70
   2   1 -13  184.78   22.50
  -1  -1  13  149.29   17.10
  -1  -1  13  150.88   16.30
   1  -1 -13   98.99   15.00
  -1  -1  13  103.69   14.00
   1  -1 -13  153.48   16.40
   1  -1 -13  177.38   20.70
  -1  -1  13  176.38   17.10
   1  -1 -13  116.39   16.00
   1   1 -13  106.49   15.00
   1   1 -13  128.59   15.80
   1   1 -13  152.28   15.80
   1   1 -13  178.58   17.70
  -1   1  13  145.09   16.70
  -1   1  13  105.59   14.30
  -1   1  13  147.19   17.30
   0  -1  13  205.88   21.30
   0  -1 -13  210.18   22.40
   0  -1  13  207.78   22.20
   0  -1 -13  217.68   22.30
   0  -1  13  233.38   22.00
   0  -1 -13  195.08   21.70
   0   1  13  226.08   23.20
   0   1  13  205.98   21.60
   0   1  13  187.78   21.20
   0   1 -13  187.78   22.20
   0   1  13  221.68   21.90
   0   1 -13  219.08   22.80
   0   1 -13  231.08   22.70
   1  -1  13  144.19   17.20
   1  -1  13  173.28   21.80
   1  -1  13  137.79   16.70
  -1  -1 -13  173.58   18.50
  -1  -1 -13  140.29   17.70
   1  -1  13  130.19   17.50
  -1  -1 -13  183.68   22.50
   1   1  13  159.78   17.80
  -1   1 -13  155.08   17.40
   1   1  13  125.89   16.20
  -1   1 -13  177.98   19.00
   1   1  13  132.39   17.00
   1   1  13  176.38   22.30
  -1   1 -13  167.28   19.00
  -2  -1 -13   46.20   14.90
  -2  -1 -13   70.49   16.70
   2  -1  13   66.09   14.90
  -2  -1 -13   78.89   16.30
  -2  -1 -13   60.69   16.80
   2  -1  13   97.59   17.10
   2  -1  13   87.39   18.20
  -2   1 -13   87.59   17.20
   2   1  13   64.89   15.30
   2   1  13   85.79   15.90
  -2   1 -13   67.19   15.60
  -2   1 -13   55.69   19.00
  -2   1 -13   79.89   16.30
   2   1  13   78.99   16.20
  -3  -1 -13   66.09   18.00
  -3  -1 -13   81.89   20.40
  -3  -1 -13  105.59   22.30
   3  -1  13   91.49   20.50
  -3  -1 -13   76.39   20.30
   3  -1  13   54.49   18.60
   3  -1  13  115.69   19.50
   3  -1  13   56.29   22.70
  -3   1 -13   53.69   21.60
   3   1  13   52.49   20.80
  -3   1 -13   80.99   19.30
   3   1  13   66.69   16.60
  -3   1 -13  103.19   21.20
   3   1  13   69.49   18.80
   3   1  13   89.69   23.30
  -3   1 -13   70.09   20.90
  -3  -2  13  442.56   32.90
   3  -2 -13  422.36   34.10
  -3  -2  13  480.35   34.30
   3  -2 -13  484.15   34.40
   3  -2 -13  498.95   33.20
  -3  -2  13  497.35   33.30
  -3  -2  13  461.85   33.70
   3  -2 -13  481.05   35.00
   3   2 -13  436.76   27.00
  -3   2  13  477.55   35.60
   3   2 -13  419.16   33.60
  -3   2  13  495.35   35.80
  -3   2  13  490.55   35.40
  -2  -2  13   29.90   13.30
  -2  -2  13   22.70   13.70
  -2  -2  13   35.20   14.00
  -2  -2  13   30.60   12.40
   2  -2 -13   26.00   13.20
   2  -2 -13   58.69   15.20
   2  -2 -13   30.90   13.50
   2   2 -13   19.60   13.20
   2   2 -13   40.90   13.50
   2   2 -13   29.30   11.00
  -2   2  13   26.40   13.80
  -2   2  13   27.80   13.80
   2   2 -13   13.60   12.80
  -2   2  13   27.30   14.40
  -2   2  13   27.20   14.30
   1  -2 -13   93.19   14.70
   1  -2 -13  116.19   16.20
   1  -2 -13  152.88   16.40
  -1  -2  13  125.49   15.50
  -1  -2  13  127.19   15.30
   1  -2 -13   92.19   15.50
  -1  -2  13   90.99   14.00
  -1  -2  13   95.29   13.30
   1   2 -13   86.29   14.90
   1   2 -13  106.09   14.50
  -1   2  13   73.99   15.50
  -1   2  13  115.89   15.70
   1   2 -13  109.99   15.10
  -1   2  13  124.49   16.50
   1   2 -13  111.69   13.70
   0  -2 -13   31.60   12.70
   0  -2  13   40.90   13.30
   0  -2 -13   34.10   12.70
   0  -2  13   52.69   13.10
   0  -2  13   28.00   12.50
   0  -2  13   16.90   13.20
   0   2  13   44.90   12.30
   0   2 -13   38.50   13.20
   0   2 -13   28.80   13.30
   0   2 -13   41.30   13.80
   0   2  13   30.40   12.80
   0   2  13   21.40   13.60
   0   2 -13   53.39   12.90
   0   2  13   28.50   12.80
  -1  -2 -13  364.86   28.30
   1  -2  13  398.06   27.40
  -1  -2 -13  316.07   27.30
  -1  -2 -13  383.46   27.50
   1  -2  13  348.57   28.30
   1  -2  13  330.17   27.40
  -1  -2 -13  349.57   26.90
  -1   2 -13  371.36   28.60
   1   2  13  388.86   28.10
  -1   2 -13  407.66   28.20
   1   2  13  384.96   27.90
   1   2  13  388.76   26.70
  -1   2 -13  403.66   27.90
   1   2  13  363.86   26.80
  -2  -2 -13   86.09   16.90
  -2  -2 -13   93.79   17.30
  -2  -2 -13  114.09   18.00
  -2  -2 -13   92.29   16.50
   2  -2  13   96.59   18.80
   2  -2  13   83.79   18.20
   2  -2  13   64.29   16.80
   2  -2  13  101.19   18.70
   2   2  13  107.19   17.60
  -2   2 -13  102.89   18.20
   2   2  13  112.89   16.40
   2   2  13  121.29   17.50
  -2   2 -13   93.99   17.00
   2   2  13   96.99   15.50
  -2   2 -13   98.09   18.50
  -3  -2 -13  -36.40   15.90
  -3  -2 -13   29.60   17.60
  -3  -2 -13   -5.90   19.50
   3  -2  13   -9.40   18.80
   3  -2  13   22.10   20.10
   3  -2  13   -9.90   21.00
   3  -2  13    8.10   18.50
  -3  -2 -13   21.00   18.50
   3   2  13   38.40   14.60
  -3   2 -13   -3.70   17.30
  -3   2 -13   18.00   19.50
   3   2  13   -5.10   21.60
   3   2  13   13.10   15.60
   3  -3 -13   93.89   19.10
   3  -3 -13   46.20   16.50
  -3  -3  13   54.29   15.60
   3  -3 -13   73.69   17.70
  -3  -3  13   97.99   17.60
  -3  -3  13   40.50   16.60
  -3  -3  13   67.99   17.90
   3  -3 -13  113.69   20.40
  -3   3  13   44.50   19.70
   3   3 -13   66.69   17.60
  -3   3  13   94.79   18.90
  -3   3  13   27.10   18.10
   3   3 -13   84.19   11.40
   2  -3 -13  720.13   38.00
  -2  -3  13  692.03   36.90
   2  -3 -13  736.03   38.60
  -2  -3  13  732.23   37.70
  -2  -3  13  696.13   37.60
   2  -3 -13  713.73   38.20
  -2  -3  13  703.13   37.00
  -2   3  13  724.03   39.50
  -2   3  13  593.44   44.20
   2   3 -13  765.12   37.30
  -2   3  13  686.83   39.90
   2   3 -13  695.83   33.40
  -2   3  13  718.33   39.00
   2   3 -13  692.93   38.30
   2   3 -13  672.63   36.00
   1  -3 -13    1.70   11.30
   1  -3 -13    5.00   10.60
  -1  -3  13   13.60   11.50
  -1  -3  13    1.40   12.00
   1  -3 -13    9.00   13.00
  -1  -3  13    4.60   12.20
   1  -3 -13    7.40   11.90
  -1  -3  13    0.50   12.20
  -1   3  13    9.70   12.10
  -1   3  13   -2.50   13.20
   1   3 -13   16.70   10.80
   1   3 -13    6.50   12.40
   1   3 -13    9.20   10.90
   1   3 -13   16.00   13.10
  -1   3  13   -6.80   13.10
   0  -3  13  654.33   34.80
   0  -3  13  659.53   35.60
   0  -3 -13  592.14   33.80
   0  -3  13  624.44   34.60
   0  -3 -13  658.23   34.60
   0  -3 -13  639.64   35.50
   0  -3  13  713.53   35.00
   0   3  13  625.14   35.50
   0   3 -13  658.63   35.90
   0   3 -13  640.04   35.80
   0   3  13  608.54   33.90
   0   3  13  654.13   35.00
   0   3 -13  633.34   34.50
   0   3 -13  645.64   34.40
   0   3  13  587.44   34.30
   1  -3  13  259.87   25.70
  -1  -3 -13  289.97   24.90
  -1  -3 -13  260.47   25.50
  -1  -3 -13  262.47   25.00
  -1  -3 -13  248.08   25.00
   1  -3  13  290.57   25.60
   1  -3  13  280.77   25.80
  -1   3 -13  310.57   25.90
  -1   3 -13  213.08   24.80
   1   3  13  267.97   23.90
   1   3  13  216.78   25.30
  -1   3 -13  261.87   25.40
   1   3  13  300.07   25.30
   1   3  13  286.97   25.20
   2  -3  13  242.18   26.90
   2  -3  13  194.08   21.50
  -2  -3 -13  193.98   24.80
  -2  -3 -13  243.58   26.80
  -2  -3 -13  268.47   27.00
   2  -3  13  244.78   27.30
  -2  -3 -13  228.18   26.70
   2  -3  13  249.58   30.30
  -2   3 -13  229.18   26.90
  -2   3 -13  166.68   20.40
   2   3  13  219.38   27.00
   2   3  13  294.17   26.40
  -2   3 -13  239.68   28.80
   2   3  13  210.38   20.10
   2   3  13  222.88   25.00
  -3  -4  13  496.45   32.60
  -3  -4  13  535.75   34.70
   3  -4 -13  568.84   37.90
   3  -4 -13  518.95   37.40
  -3  -4  13  502.15   34.20
   3  -4 -13  463.15   38.70
  -3  -4  13  519.65   34.10
   3  -4 -13  458.95   36.90
  -3   4  13  502.35   38.80
  -3   4  13  538.95   38.20
  -3   4  13  478.85   37.90
   3   4 -13  467.55   44.70
  -2  -4  13   31.00   14.30
   2  -4 -13   39.20   15.00
   2  -4 -13   45.30   14.30
   2  -4 -13   29.10   14.50
   2  -4 -13   25.60   14.40
  -2  -4  13   26.90   13.50
  -2  -4  13   16.30   12.20
  -2  -4  13   17.90   14.30
   2   4 -13   28.40   12.60
  -2   4  13    6.70   14.50
   2   4 -13   22.70    9.60
   2   4 -13   37.30   15.20
  -2   4  13   26.90   15.80
  -2   4  13   34.80   15.60
   2   4 -13   28.30   12.20
  -1  -4  13 1206.28   52.29
   1  -4 -13 1169.08   53.29
  -1  -4  13 1167.78   51.89
   1  -4 -13 1200.28   52.89
  -1  -4  13 1132.69   52.09
   1  -4 -13 1140.79   53.49
  -1  -4  13 1147.99   52.09
  -1   4  13 1176.88   53.69
  -1   4  13 1171.48   53.29
  -1   4  13 1092.89   52.69
   1   4 -13 1198.58   54.19
   1   4 -13 1087.39   51.49
   1   4 -13 1184.78   52.09
   1   4 -13 1148.49   49.90
   0  -4  13    2.50   12.40
   0  -4 -13    4.40   11.50
   0  -4 -13    4.00   12.50
   0  -4 -13   24.10   12.30
   0  -4  13   20.20   13.10
   0  -4  13   31.90   13.10
   0  -4  13   14.40   12.30
   0   4 -13   14.20   10.70
   0   4 -13    5.40   13.30
   0   4  13   27.10   13.90
   0   4  13   20.50   12.60
   0   4 -13   12.80   12.80
   0   4 -13   12.30   12.20
   0   4  13    2.00   13.10
   0   4  13   17.30   11.00
   1  -4  13  231.08   24.60
  -1  -4 -13  185.08   24.20
  -1  -4 -13  208.18   23.40
   1  -4  13  232.98   24.20
  -1  -4 -13  212.58   24.00
  -1  -4 -13  222.38   23.90
   1  -4  13  212.38   24.80
   1   4  13  181.28   22.10
   1   4  13  214.08   23.50
   1   4  13  227.48   23.20
  -1   4 -13  210.38   25.30
  -1   4 -13  240.18   24.80
   1   4  13  202.18   23.70
  -1   4 -13  193.18   24.30
   2  -4  13  281.37   32.50
  -2  -4 -13  271.37   27.60
  -2  -4 -13  315.47   28.90
   2  -4  13  254.87   30.80
  -2  -4 -13  311.07   29.30
   2  -4  13  345.97   30.50
   2  -4  13  315.47   29.50
  -2  -4 -13  314.97   28.10
   2   4  13  292.17   27.40
   2   4  13  294.07   25.60
   2   4  13  329.97   29.00
  -2   4 -13  303.37   30.60
  -2   4 -13  312.77   29.70
  -2   4 -13  227.98   24.40
  -2   4 -13  320.37   29.80
   2   4  13  300.07   25.60
   2  -5 -13  460.85   32.60
  -2  -5  13  476.95   30.10
   2  -5 -13  397.56   30.90
  -2  -5  13  491.25   30.40
  -2  -5  13  460.15   30.80
   2  -5 -13  493.65   33.00
  -2  -5  13  507.55   31.10
   2  -5 -13  499.65   33.90
   2   5 -13  482.15   37.70
  -2   5  13  437.56   32.60
  -2   5  13  508.15   33.50
  -2   5  13  466.35   34.80
  -2   5  13  467.15   33.80
   2   5 -13  450.65   23.70
   1  -5 -13   -9.90   13.20
  -1  -5  13    2.30   12.30
   1  -5 -13   17.80   12.90
  -1  -5  13    6.00   12.20
  -1  -5  13   -3.30   11.60
   1  -5 -13   18.00   13.30
  -1  -5  13   -2.70   12.10
   1   5 -13    0.30   13.30
  -1   5  13    2.30   12.40
   1   5 -13  -11.60   10.90
   1   5 -13    2.50   11.70
   1   5 -13    4.50    9.90
  -1   5  13    4.50   13.80
  -1   5  13  -18.20   14.30
   0  -5 -13  296.97   25.20
   0  -5 -13  326.87   26.60
   0  -5  13  309.87   26.10
   0  -5  13  308.57   26.70
   0  -5  13  329.07   26.80
   0  -5 -13  297.47   25.40
   0  -5 -13  361.06   27.60
   0  -5  13  295.17   25.90
   0   5 -13  322.87   24.40
   0   5 -13  334.97   27.60
   0   5 -13  291.57   24.20
   0   5  13  338.47   27.10
   0   5  13  347.97   25.80
   0   5 -13  285.67   26.00
   0   5  13  334.97   26.60
   0   5  13  320.57   24.90
  -1  -5 -13  343.57   28.40
  -1  -5 -13  338.37   27.50
  -1  -5 -13  339.57   27.20
   1  -5  13  382.76   29.30
  -1  -5 -13  366.46   28.40
   1  -5  13  298.17   27.90
   1  -5  13  324.37   29.70
   1   5  13  341.67   27.70
   1   5  13  417.36   28.00
  -1   5 -13  366.36   28.80
  -1   5 -13  375.76   29.80
   1   5  13  339.27   26.90
  -1   5 -13  369.16   28.60
   1   5  13  346.87   25.70
  -2  -5 -13  198.98   20.90
  -2  -5 -13  144.89   20.40
   2  -5  13  215.58   24.70
   2  -5  13  212.18   24.80
  -2  -5 -13  198.78   21.00
   2  -5  13  161.78   20.10
  -2  -5 -13  220.68   22.00
   2  -5  13  248.48   28.80
   2   5  13  219.48   27.00
   2   5  13  153.88   17.90
  -2   5 -13  219.98   23.20
   2   5  13  176.38   17.70
  -2   5 -13  213.98   27.70
  -2   5 -13  156.18   22.80
  -2   5 -13  171.78   21.40
   2  -6 -13  -16.10   13.30
   2  -6 -13  -23.10   14.70
  -2  -6  13   11.30   13.80
   2  -6 -13   10.10   15.30
  -2  -6  13    5.90   13.90
  -2  -6  13    1.70   13.10
  -2  -6  13   18.80   13.80
   2  -6 -13   38.70   15.90
  -2   6  13   30.40   16.70
   2   6 -13   -3.30   15.60
  -2   6  13   12.00   16.10
  -2   6  13   13.50   16.80
  -2   6  13  -13.60   15.80
  -1  -6  13  648.84   36.60
   1  -6 -13  687.93   37.00
  -1  -6  13  691.93   36.20
  -1  -6  13  673.83   36.20
   1  -6 -13  668.23   38.80
   1  -6 -13  679.03   38.00
  -1  -6  13  665.03   36.00
  -1   6  13  693.33   39.00
   1   6 -13  696.93   35.80
   1   6 -13  673.63   33.20
  -1   6  13  675.13   37.70
   1   6 -13  606.94   38.60
  -1   6  13  708.93   38.40
   1   6 -13  673.83   32.20
   0  -6  13   19.90   13.40
   0  -6 -13   29.50   14.90
   0  -6 -13    4.70   13.10
   0  -6 -13   25.70   13.50
   0  -6  13   22.80   13.70
   0  -6  13   23.10   14.20
   0  -6  13   17.80   13.00
   0  -6 -13   10.00   12.10
   0   6 -13   23.60   13.30
   0   6  13    5.20   13.70
   0   6 -13    0.90   12.60
   0   6  13   31.70   14.20
   0   6 -13   10.30   15.10
   0   6  13    7.30   12.90
   0   6  13   12.50   14.30
   1  -6  13   64.99   17.50
   1  -6  13   36.20   16.20
   1  -6  13   65.29   16.20
  -1  -6 -13   71.69   14.70
  -1  -6 -13   76.09   17.20
   1  -6  13   76.59   17.80
  -1  -6 -13   44.80   14.90
  -1  -6 -13   69.69   16.60
   1   6  13   47.20   15.40
   1   6  13   40.80   13.40
  -1   6 -13   64.29   15.40
  -1   6 -13   49.10   16.00
   1   6  13   67.79   15.10
   1   6  13   38.00   13.80
  -1   6 -13   37.10   15.40
  -2  -6 -13  140.59   20.10
  -2  -6 -13  127.39   19.70
   2  -6  13  121.29   19.00
  -2  -6 -13  139.79   19.00
  -2  -6 -13   99.79   17.20
   2  -6  13   91.59   21.20
   2  -6  13   88.39   21.00
   2  -6  13  133.09   20.60
  -2   6 -13  138.79   23.90
   2   6  13  102.59   14.90
  -2   6 -13  143.19   21.20
  -2   6 -13  154.58   20.80
  -2   6 -13   99.89   20.80
   2   6  13  120.99   20.00
  -2  -7  13   37.00   16.80
   2  -7 -13   31.30   16.70
  -2  -7  13   40.40   14.50
   2  -7 -13   23.10   16.80
   2  -7 -13   36.10   17.40
   2  -7 -13   20.20   15.20
  -2  -7  13   40.10   14.90
  -2  -7  13   44.40   15.00
  -2   7  13   16.00   17.20
  -2   7  13   21.60   16.60
  -2   7  13   52.89   17.60
   2   7 -13    0.40   17.10
   2   7 -13    4.40    9.30
  -2   7  13   26.40   17.00
  -1  -7  13   -7.50   13.40
   1  -7 -13   -1.40   14.30
   1  -7 -13    1.20   12.40
   1  -7 -13   -2.70   14.60
  -1  -7  13   16.20   13.20
  -1  -7  13   -3.00   13.30
  -1  -7  13    7.90   13.40
   1  -7 -13   24.00   15.00
  -1   7  13    3.70   14.20
   1   7 -13    9.80    9.20
  -1   7  13   10.30   15.80
  -1   7  13  -13.10   14.10
   1   7 -13  -16.90   16.60
   1   7 -13    9.90   10.20
   1   7 -13   14.00   12.50
  -1   7  13   -0.20   15.30
   0  -7 -13    4.00   15.10
   0  -7  13   -4.10   14.50
   0  -7 -13    0.50   12.80
   0  -7  13  -15.90   13.80
   0  -7  13   13.60   14.20
   0  -7 -13   16.80   14.20
   0  -7 -13    5.20   13.20
   0  -7  13    4.10   14.30
   0   7  13   -8.80   13.70
   0   7  13    0.00   13.40
   0   7 -13    6.00   15.00
   0   7 -13   -1.70   12.60
   0   7 -13   31.40   13.10
   0   7  13   12.80   12.80
   0   7  13    2.40   12.90
   1  -7  13   52.79   18.30
  -1  -7 -13   42.70   16.50
   1  -7  13   19.20   14.50
   1  -7  13   18.20   16.10
   1  -7  13   41.70   17.30
  -1  -7 -13   19.80   14.40
  -1  -7 -13   38.60   15.00
  -1   7 -13    7.80   15.90
   1   7  13   18.00   13.20
   1   7  13   25.80   14.90
  -1   7 -13   51.99   15.20
   1   7  13   34.90   12.60
  -1   7 -13   46.40   16.10
   1   7  13    9.70   15.30
   2  -7  13   45.50   21.60
   2  -7  13  129.59   21.80
  -2  -7 -13   89.59   17.70
   2  -7  13  115.29   21.80
  -2  -7 -13   90.69   19.50
   2  -7  13   86.39   19.60
  -2  -7 -13   84.99   17.10
  -2  -7 -13   99.29   19.20
  -2   7 -13   40.70   20.00
  -2   7 -13   68.99   19.50
   2   7  13   85.19   18.80
  -2   7 -13  104.59   20.70
   2   7  13   84.39   13.40
  -2  -8  13  -12.60   14.90
  -2  -8  13  -15.30   13.50
  -2  -8  13   -0.30   14.90
   2  -8 -13    6.20   16.60
   2  -8 -13    3.40   16.50
   2  -8 -13    2.10   17.60
  -2  -8  13   -2.80   14.60
   2  -8 -13    4.40   18.30
   2   8 -13    1.80    9.70
   2   8 -13  -28.70   16.70
  -2   8  13  -36.00   18.10
  -2   8  13  -10.30   18.20
  -2   8  13  -11.60   18.10
  -2   8  13   11.30   17.20
  -1  -8  13  -12.80   13.90
  -1  -8  13   19.10   14.20
   1  -8 -13   27.40   15.40
  -1  -8  13   28.80   15.30
   1  -8 -13   22.50   13.60
  -1  -8  13   22.60   14.60
   1  -8 -13   -7.10   15.00
   1  -8 -13   -2.30   16.00
  -1   8  13   10.00   15.30
   1   8 -13   11.70   16.00
  -1   8  13   15.10   16.00
  -1   8  13  -10.10   16.10
   1   8 -13   16.70    8.60
  -1   8  13   15.60   15.90
   1   8 -13   -6.50   10.30
   0  -8 -13    3.20   13.30
   0  -8  13   -5.80   14.80
   0  -8 -13    0.70   14.60
   0  -8  13   31.20   16.20
   0  -8  13    2.70   14.70
   0  -8 -13    0.00   15.30
   0  -8 -13    8.10   12.70
   0  -8  13   27.30   13.60
   0   8 -13   20.10   16.50
   0   8  13    1.90   13.80
   0   8  13   11.10   14.30
   0   8  13   16.10   15.30
   0   8  13   11.20   13.20
   0   8 -13   13.60   13.80
   0   8 -13   15.90   12.50
   1  -8  13   47.70   18.40
  -1  -8 -13   46.40   15.70
   1  -8  13   11.30   18.20
   1  -8  13    7.00   17.30
  -1  -8 -13   32.80   15.00
   1  -8  13   51.09   16.40
  -1  -8 -13   26.80   16.30
   1   8  13  -22.90   12.30
  -1   8 -13   20.60   16.30
   1   8  13   27.40   16.20
  -1   8 -13   37.70   18.00
   1   8  13   41.40   13.50
   1   8  13   18.40   12.60
  -1   8 -13   19.70   14.40
  -2  -8 -13   29.00   19.20
  -2  -8 -13   31.30   17.30
   2  -8  13    8.10   20.00
  -2  -8 -13   11.10   17.90
  -2  -8 -13   18.30   15.10
   2  -8  13   -0.70   17.90
   2  -8  13   33.40   19.70
   2   8  13    6.90   14.80
  -2   8 -13   52.89   19.20
   2   8  13    7.10    9.10
  -2   8 -13   23.00   21.80
  -2   8 -13    0.70   18.20
   2   8  13   19.80   10.00
   1  -9 -13   22.10   17.70
  -1  -9  13    8.00   15.20
  -1  -9  13   -5.40   15.60
   1  -9 -13   22.00   15.00
   1  -9 -13   22.00   16.70
  -1  -9  13   32.10   15.40
   1  -9 -13   11.10   15.50
  -1  -9  13    1.50   14.00
   1   9 -13   -5.80   17.00
  -1   9  13   36.70   17.90
  -1   9  13   26.90   16.20
  -1   9  13   -9.90   15.90
  -1   9  13   29.10   17.00
   0  -9 -13  144.49   19.70
   0  -9  13   98.59   19.10
   0  -9  13  146.09   19.50
   0  -9 -13  122.09   19.30
   0  -9 -13  135.69   17.80
   0  -9  13  150.48   18.30
   0  -9  13  130.19   20.50
   0  -9 -13  160.18   19.70
   0   9 -13  106.89   19.90
   0   9  13  169.78   18.50
   0   9  13  159.98   19.50
   0   9  13  119.39   16.30
   0   9 -13  126.29   15.30
   0   9  13  140.79   20.20
  -1  -9 -13   55.29   16.90
   1  -9  13   30.00   20.00
  -1  -9 -13   21.50   16.30
   1  -9  13   64.79   21.00
  -1  -9 -13   20.80   18.50
   1  -9  13   41.20   21.40
  -1  -9 -13   49.70   15.90
   1  -9  13   69.29   17.30
   1   9  13    5.40   13.10
   1   9  13   39.70   13.20
  -1   9 -13   32.60   16.70
   1   9  13   42.80   16.40
   1   9  13   10.80   10.50
  -1   9 -13   31.90   15.30
  -1 -10  13  182.48   21.90
  -1 -10  13  232.68   26.10
   1 -10 -13  148.89   21.20
   1 -10 -13  188.68   23.50
  -1 -10  13  233.68   30.00
   1 -10 -13  230.98   29.60
  -1 -10  13  160.68   20.60
   1 -10 -13  227.88   23.40
  -1  10  13  200.08   22.20
  -1  10  13  190.08   24.60
   1  10 -13  118.39   19.90
  -1  10  13  167.48   20.30
  -1  10  13  167.48   22.80
   0 -10  13   23.30   16.60
   0 -10 -13   23.10   15.50
   0 -10 -13   65.99   17.20
   0 -10  13   23.20   18.70
   0 -10  13   23.60   15.60
   0 -10 -13   37.80   18.40
   0 -10 -13   12.00   17.20
   0 -10  13   53.09   18.30
   0  10 -13    7.00   10.50
   0  10 -13   24.00   13.70
   0  10 -13   33.20   18.50
   0  10  13   38.00   18.00
   0  10  13  -11.60   13.20
   0  10  13    6.90   14.20
   0  10  13   42.20   14.50
   1 -10  13   63.59   22.80
  -1 -10 -13   95.19   20.10
  -1 -10 -13   94.19   19.50
  -1 -10 -13   72.49   19.40
  -1 -10 -13   93.69   16.40
   1 -10  13   92.59   22.00
   1 -10  13   71.09   20.70
   1 -10  13  103.49   18.70
  -1  10 -13   68.49   23.40
  -1  10 -13   95.29   17.60
   1  10  13   39.00   24.20
   1  10  13   82.09   13.90
  -1  10 -13   46.80   19.00
   3   0 -14  346.47   28.80
  -3   0  14  338.97   33.90
  -3   0  14  316.57   33.50
  -3   0  14  371.96   34.50
   3   0 -14  325.27   35.40
  -3   0  14  287.97   32.70
   2   0 -14  587.44   33.00
  -2   0  14  567.44   34.70
   2   0 -14  592.54   35.20
   2   0 -14  606.54   35.10
  -2   0  14  512.05   34.70
   2   0 -14  549.05   34.80
  -2   0  14  592.34   35.60
  -2   0  14  567.84   35.90
   1   0 -14  141.09   16.60
  -1   0  14   96.29   14.90
  -1   0  14  161.58   18.90
  -1   0  14  111.39   18.00
   1   0 -14  160.28   19.30
  -1   0  14  120.09   17.90
   1   0 -14  122.29   17.00
   1   0 -14  166.48   18.80
   0   0  14  256.57   23.90
   0   0 -14  226.98   23.90
   0   0  14  215.18   24.40
   0   0 -14  254.57   24.70
   0   0 -14  183.58   22.70
   0   0  14  255.17   23.80
  -1   0 -14    1.50   14.00
   1   0  14   12.60   13.70
  -1   0 -14    7.60   14.00
   1   0  14   16.60   13.90
   1   0  14    6.30   14.60
  -1   0 -14    0.50   14.00
  -2   0 -14  284.47   31.70
   2   0  14  320.17   29.80
   2   0  14  368.76   31.20
  -2   0 -14  310.97   31.30
   2   0  14  316.67   30.90
  -2   0 -14  390.06   30.90
   2   0  14  294.47   29.60
  -2   0 -14  330.67   31.30
   3  -1 -14  236.08   24.40
  -3  -1  14  163.28   22.90
  -3  -1  14  159.58   21.80
   3  -1 -14  203.18   20.20
  -3  -1  14  196.28   23.20
   3  -1 -14  111.69   20.00
   3  -1 -14  120.49   20.70
  -3  -1  14  151.28   22.40
  -3   1  14  147.29   22.00
  -3   1  14  201.08   23.70
  -3   1  14  221.08   23.70
  -3   1  14  183.68   24.50
   3   1 -14  202.18   23.40
  -2  -1  14  254.57   26.60
  -2  -1  14  237.68   27.50
   2  -1 -14  227.38   24.80
   2  -1 -14  252.07   26.20
  -2  -1  14  211.68   25.10
   2  -1 -14  203.48   26.00
  -2  -1  14  235.88   25.30
  -2   1  14  210.78   22.10
   2   1 -14  224.68   23.50
   2   1 -14  238.08   25.30
   2   1 -14  227.48   26.40
  -2   1  14  231.88   27.70
  -2   1  14  269.67   28.40
  -2   1  14  202.98   26.40
   2   1 -14  240.98   26.50
   1  -1 -14  701.43   36.40
  -1  -1  14  653.43   36.70
  -1  -1  14  588.34   35.50
  -1  -1  14  606.94   35.40
  -1  -1  14  653.83   36.30
   1  -1 -14  648.54   36.70
   1  -1 -14  695.83   36.00
   1   1 -14  670.33   36.90
  -1   1  14  671.83   37.40
  -1   1  14  684.83   36.40
   1   1 -14  646.84   36.90
  -1   1  14  611.14   36.40
   1   1 -14  633.04   35.90
   1   1 -14  666.13   35.20
   0  -1  14  -12.00   12.60
   0  -1 -14    4.00   12.90
   0  -1  14   -4.70   12.50
   0  -1  14   -4.60   12.30
   0  -1 -14  -22.70   12.00
   0   1  14  -13.90   11.20
   0   1  14    2.30   13.10
   0   1 -14   -1.60   12.80
   0   1 -14   21.30   13.00
   0   1 -14    2.70   12.10
   0   1  14  -26.60   11.80
   1  -1  14  685.53   37.00
  -1  -1 -14  680.83   37.30
   1  -1  14  628.94   36.70
   1  -1  14  647.94   37.60
  -1  -1 -14  574.44   36.40
  -1  -1 -14  628.64   37.30
   1   1  14  602.74   37.00
   1   1  14  631.14   36.40
  -1   1 -14  653.83   37.00
  -1   1 -14  662.33   36.60
   1   1  14  704.83   36.90
  -1   1 -14  598.94   37.10
  -2  -1 -14   78.39   17.40
   2  -1  14   95.09   17.70
   2  -1  14   64.19   17.60
   2  -1  14  107.89   18.10
  -2  -1 -14   82.89   18.50
  -2  -1 -14   65.89   17.60
  -2  -1 -14   81.89   18.00
   2  -1  14   36.80   18.00
   2   1  14   93.89   18.90
  -2   1 -14   60.09   16.50
  -2   1 -14   64.99   19.70
  -2   1 -14   87.29   18.10
   2   1  14   76.49   18.00
  -2   1 -14   86.49   18.70
   2   1  14   64.79   17.00
  -2  -2  14  363.86   29.30
   2  -2 -14  446.66   30.00
  -2  -2  14  391.96   29.80
   2  -2 -14  377.16   30.00
  -2  -2  14  405.26   29.20
  -2  -2  14  405.06   30.10
   2  -2 -14  362.66   30.10
  -2   2  14  361.36   30.70
  -2   2  14  369.26   30.80
   2   2 -14  381.66   30.10
   2   2 -14  400.26   26.00
  -2   2  14  399.76   31.60
  -2   2  14  392.96   31.50
   2   2 -14  383.16   28.80
   2   2 -14  389.96   28.50
   1  -2 -14   21.00   14.00
  -1  -2  14   33.00   14.20
  -1  -2  14   26.90   14.60
   1  -2 -14   23.40   13.60
  -1  -2  14   31.00   13.50
   1  -2 -14   24.20   12.10
  -1  -2  14   36.30   14.50
   1   2 -14   44.30   12.70
   1   2 -14   38.70   14.40
  -1   2  14   31.10   12.30
  -1   2  14   10.70   15.30
  -1   2  14    1.10   14.50
   1   2 -14   41.80   13.00
   1   2 -14   19.20   13.90
   0  -2  14  622.64   35.60
   0  -2  14  583.44   36.10
   0  -2  14  642.14   35.70
   0  -2 -14  646.54   35.60
   0  -2 -14  648.14   36.00
   0  -2 -14  626.94   36.00
   0   2  14  596.74   35.20
   0   2  14  627.74   35.80
   0   2 -14  603.54   36.10
   0   2 -14  681.53   36.90
   0   2  14  647.44   37.20
   0   2 -14  618.24   36.90
  -1  -2 -14   -7.10   13.30
  -1  -2 -14    3.80   14.50
   1  -2  14   12.90   14.50
  -1  -2 -14  -14.80   12.70
  -1  -2 -14  -11.70   13.90
   1  -2  14   21.80   13.80
   1  -2  14    4.10   15.00
   1   2  14   25.10   14.70
  -1   2 -14   13.10   14.60
   1   2  14   17.30   14.60
  -1   2 -14  -31.10   13.80
   1   2  14  -14.00   13.70
   1   2  14   -5.80   12.70
  -1   2 -14    2.50   13.10
   2  -2  14  107.09   20.70
  -2  -2 -14  103.99   18.20
  -2  -2 -14   92.49   19.60
   2  -2  14  119.79   20.90
  -2  -2 -14   72.69   17.00
   2  -2  14   97.19   17.90
   2  -2  14   79.59   19.10
  -2  -2 -14   77.29   18.60
  -2   2 -14  120.69   19.80
   2   2  14   88.29   19.20
   2   2  14   78.19   17.90
  -2   2 -14   94.49   20.50
  -2   2 -14   89.19   18.70
  -2   2 -14  100.99   18.00
   2   2  14   98.69   17.70
   2  -3 -14   10.70   15.70
  -2  -3  14   27.80   14.90
   2  -3 -14   25.40   15.80
   2  -3 -14   28.60   16.10
  -2  -3  14   21.40   15.60
  -2  -3  14   45.70   14.50
  -2  -3  14   20.60   15.20
   2  -3 -14   33.50   15.40
  -2   3  14    8.40   17.00
  -2   3  14    9.90   15.20
   2   3 -14   39.70   16.40
   2   3 -14    9.80   13.90
  -2   3  14   20.00   15.70
   2   3 -14   24.50   11.30
   2   3 -14   22.10   13.20
  -2   3  14   35.00   16.20
  -1  -3  14   16.90   12.80
   1  -3 -14   12.90   13.30
   1  -3 -14  -20.50   12.00
  -1  -3  14   -6.10   11.80
   1  -3 -14   -4.30   14.00
  -1  -3  14   26.80   13.70
  -1  -3  14   19.30   13.40
   1   3 -14   25.90   11.70
  -1   3  14  -10.80   13.30
   1   3 -14   10.50   13.70
   1   3 -14   -2.10   11.50
   1   3 -14   -5.30   14.20
  -1   3  14   -2.10   14.50
  -1   3  14   10.00   15.00
   0  -3 -14   -1.30   12.00
   0  -3  14   -3.40   13.40
   0  -3  14   -9.70   12.80
   0  -3 -14    5.90   12.70
   0  -3  14  -14.00   12.40
   0  -3 -14  -15.90   12.20
   0  -3  14   -8.80   12.90
   0   3  14  -13.90   14.00
   0   3  14   19.80   14.20
   0   3 -14    3.40   14.30
   0   3 -14   10.30   13.40
   0   3 -14   -8.40   12.60
   0   3  14    1.80   13.10
  -1  -3 -14   63.69   17.20
   1  -3  14   72.49   16.50
  -1  -3 -14   64.49   15.20
   1  -3  14   39.30   15.30
  -1  -3 -14   44.80   15.60
   1  -3  14   59.59   17.40
  -1  -3 -14   64.49   15.90
   1   3  14   57.49   16.20
  -1   3 -14   72.09   15.90
  -1   3 -14   89.09   17.10
   1   3  14   73.89   16.00
   1   3  14   75.49   16.70
  -1   3 -14   38.00   15.00
   1   3  14   28.00   13.10
   2  -3  14   32.10   16.60
   2  -3  14   42.70   19.80
  -2  -3 -14   13.30   15.80
  -2  -3 -14   30.40   15.70
   2  -3  14    2.50   19.20
  -2  -3 -14   26.50   17.10
  -2  -3 -14   18.50   17.80
   2  -3  14   18.00   17.20
   2   3  14    7.50   14.80
  -2   3 -14    2.20   17.70
  -2   3 -14   10.90   16.10
   2   3  14   47.30   15.80
  -2   3 -14   37.70   16.90
   2   3  14   37.40   16.40
   2   3  14   19.60   17.30
  -2   3 -14   23.40   18.40
  -2  -4  14   43.20   15.90
  -2  -4  14   21.60   16.00
   2  -4 -14    3.20   14.60
   2  -4 -14   23.00   15.90
  -2  -4  14   32.00   15.10
   2  -4 -14   50.09   17.20
   2  -4 -14   36.00   16.70
  -2  -4  14   46.70   14.60
   2   4 -14   -2.90   10.60
   2   4 -14   30.20   10.90
  -2   4  14   23.80   17.60
  -2   4  14   22.50   16.70
  -2   4  14   -7.20   16.60
   2   4 -14   30.40   16.50
  -2   4  14   47.10   17.30
   2   4 -14   -4.80   11.60
   1  -4 -14   75.49   16.20
   1  -4 -14   51.89   18.40
  -1  -4  14   63.49   15.90
   1  -4 -14   65.09   15.50
  -1  -4  14   55.09   15.00
  -1  -4  14   60.59   14.60
  -1  -4  14   51.29   14.60
   1  -4 -14   66.49   17.50
  -1   4  14   47.20   15.60
   1   4 -14   42.30   14.60
   1   4 -14   70.29   14.40
   1   4 -14   59.99   12.80
  -1   4  14   68.59   16.70
  -1   4  14   80.59   16.80
   1   4 -14   40.20   16.00
  -1   4  14   76.79   17.10
   0  -4  14    1.10   13.60
   0  -4  14   15.70   13.30
   0  -4 -14   22.00   13.20
   0  -4  14   28.00   14.40
   0  -4 -14   26.80   13.40
   0  -4 -14   14.70   14.90
   0  -4  14   24.40   14.80
   0   4 -14   13.70   14.60
   0   4  14   18.50   15.60
   0   4 -14   25.50   15.20
   0   4  14   11.10   14.60
   0   4  14   -4.40   12.90
   0   4 -14   29.60   13.20
   1  -4  14   29.20   15.60
  -1  -4 -14   43.20   15.70
   1  -4  14   34.00   16.70
   1  -4  14   62.39   15.90
  -1  -4 -14   48.40   15.70
  -1  -4 -14   50.29   16.10
  -1  -4 -14   48.60   15.50
  -1   4 -14   31.50   15.10
   1   4  14   27.80   14.30
  -1   4 -14   59.49   16.40
  -1   4 -14   48.20   15.50
  -1   4 -14   29.40   19.50
   1   4  14   73.09   16.80
   1   4  14   53.29   15.60
   1   4  14   39.70   15.10
  -2  -4 -14   68.29   19.10
  -2  -4 -14   68.19   18.30
   2  -4  14   68.59   19.30
  -2  -4 -14   78.49   19.70
   2  -4  14   59.79   17.30
  -2  -4 -14   57.39   17.20
   2  -4  14   77.89   22.40
   2  -4  14   61.39   19.30
   2   4  14   56.39   18.10
   2   4  14   77.29   16.30
  -2   4 -14   98.29   19.10
  -2   4 -14   67.29   21.80
  -2   4 -14   57.59   18.00
   2   4  14  101.39   16.40
   2   4  14   57.59   18.90
  -2   4 -14   79.49   19.70
  -2  -5  14   39.40   16.60
   2  -5 -14   19.70   16.00
  -2  -5  14   22.40   15.60
   2  -5 -14   27.60   13.70
   2  -5 -14   61.99   18.40
  -2  -5  14   58.89   15.80
   2  -5 -14   37.60   18.00
  -2  -5  14   42.80   15.30
   2   5 -14   32.90   10.30
  -2   5  14   24.30   18.00
  -2   5  14   38.00   16.00
  -2   5  14   22.50   17.00
   2   5 -14    5.00   11.20
   2   5 -14   41.50   18.00
  -2   5  14   34.50   19.00
   1  -5 -14  225.28   27.30
   1  -5 -14  212.38   25.00
   1  -5 -14  218.48   23.30
  -1  -5  14  217.98   26.10
  -1  -5  14  203.28   24.70
  -1  -5  14  240.78   21.90
  -1  -5  14  247.28   24.90
   1   5 -14  193.78   19.40
  -1   5  14  237.38   26.10
  -1   5  14  243.78   29.30
  -1   5  14  235.68   28.00
  -1   5  14  222.08   26.00
   1   5 -14  231.88   26.90
   1   5 -14  224.08   21.30
   1   5 -14  233.78   24.10
   0  -5  14   74.19   15.30
   0  -5 -14   60.29   15.00
   0  -5  14   67.29   15.70
   0  -5 -14   54.29   14.40
   0  -5 -14   69.39   16.20
   0  -5  14   57.19   16.50
   0  -5 -14   69.59   15.80
   0  -5  14   70.19   15.40
   0   5  14   43.80   16.00
   0   5 -14   41.70   16.60
   0   5 -14   63.29   15.90
   0   5  14   54.59   16.70
   0   5 -14   57.99   15.50
   0   5  14   60.79   16.80
  -1  -5 -14    7.60   13.90
   1  -5  14   -8.40   14.80
   1  -5  14   18.90   16.90
   1  -5  14   17.90   17.00
   1  -5  14    7.20   15.10
  -1  -5 -14   11.10   15.10
  -1  -5 -14  -23.40   13.80
  -1  -5 -14   -7.80   14.80
  -1   5 -14   -1.20   14.70
  -1   5 -14    7.20   15.00
  -1   5 -14   -0.80   17.70
   1   5  14   10.50   14.60
  -1   5 -14  -11.20   14.40
   1   5  14   -0.10   14.20
   1   5  14    3.90   13.80
   1   5  14   16.60   14.80
   2  -5  14  132.49   22.60
   2  -5  14   85.29   23.10
   2  -5  14   73.19   22.60
  -2  -5 -14  104.29   20.60
  -2  -5 -14   94.99   19.60
  -2  -5 -14  110.49   18.90
  -2  -5 -14  106.29   19.00
   2  -5  14   71.69   19.10
  -2   5 -14   69.69   20.00
   2   5  14   87.59   19.90
  -2   5 -14   79.99   24.10
   2   5  14  107.79   17.30
   2   5  14   98.39   16.50
  -2   5 -14  110.79   20.90
  -2   5 -14   73.39   19.50
   2  -6 -14  279.37   30.40
   2  -6 -14  237.38   25.20
  -2  -6  14  267.97   27.60
  -2  -6  14  258.67   26.40
  -2  -6  14  235.68   27.90
   2  -6 -14  243.48   29.10
  -2  -6  14  243.38   27.40
   2  -6 -14  281.97   31.00
  -2   6  14  275.37   25.90
  -2   6  14  288.97   34.50
   2   6 -14  254.37   32.90
  -2   6  14  246.38   32.10
  -2   6  14  233.88   25.30
   2   6 -14  234.68   16.60
   1  -6 -14    6.00   24.70
  -1  -6  14    5.00   14.40
   1  -6 -14   18.50   14.50
   1  -6 -14   30.70   15.80
  -1  -6  14   13.60   14.00
  -1  -6  14   48.50   15.10
  -1  -6  14    5.40   14.20
   1  -6 -14   32.80   16.30
  -1   6  14   11.80   16.50
  -1   6  14    3.10   15.40
   1   6 -14   19.20   13.00
   1   6 -14   -0.60   16.40
   1   6 -14   12.30   11.00
   1   6 -14   12.90   13.40
  -1   6  14   43.50   16.20
  -1   6  14    4.30   16.10
   0  -6  14  494.45   33.20
   0  -6 -14  513.45   33.60
   0  -6 -14  551.54   34.40
   0  -6  14  512.25   34.00
   0  -6  14  471.45   34.60
   0  -6  14  541.95   34.70
   0  -6 -14  477.15   32.70
   0  -6 -14  469.45   34.50
   0   6  14  512.35   35.00
   0   6 -14  505.95   32.20
   0   6 -14  506.25   35.50
   0   6 -14  542.45   33.30
   0   6  14  516.85   33.40
   0   6  14  498.75   34.80
   1  -6  14   44.60   17.50
   1  -6  14    6.50   15.90
  -1  -6 -14    6.80   14.90
  -1  -6 -14    8.20   15.20
   1  -6  14    1.20   15.10
   1  -6  14   16.50   17.90
  -1  -6 -14  -26.80   15.00
   1   6  14   -4.20   13.90
  -1   6 -14    7.80   16.10
  -1   6 -14   16.80   15.00
  -1   6 -14    2.70   17.70
   1   6  14    1.70   16.20
  -1   6 -14   -3.60   15.60
   1   6  14    9.40   14.00
   1   6  14   17.20   15.90
   2  -6  14  151.68   23.40
  -2  -6 -14  101.49   21.20
  -2  -6 -14  177.18   21.70
   2  -6  14  176.38   25.30
   2  -6  14  163.08   23.30
   2  -6  14  131.59   25.30
  -2  -6 -14  131.29   20.60
  -2  -6 -14  141.19   21.10
  -2   6 -14  125.79   22.20
  -2   6 -14  135.79   21.80
  -2   6 -14  131.09   23.60
  -2   6 -14  191.18   24.70
   2   6  14  133.59   20.80
   2   6  14  152.48   17.40
  -2  -7  14  167.38   20.10
   2  -7 -14  187.48   23.60
  -2  -7  14  176.58   20.60
   2  -7 -14  159.48   21.90
   2  -7 -14  159.28   22.30
   2  -7 -14  165.88   22.40
  -2  -7  14  184.68   20.00
  -2  -7  14  175.78   20.20
  -2   7  14  130.69   22.50
  -2   7  14  172.38   22.80
  -2   7  14  169.78   22.90
  -2   7  14  144.19   22.40
   2   7 -14  115.09   21.30
   1  -7 -14  281.67   30.60
   1  -7 -14  304.37   28.90
  -1  -7  14  363.76   28.50
  -1  -7  14  328.77   28.30
   1  -7 -14  277.67   29.30
  -1  -7  14  290.87   27.10
  -1  -7  14  330.57   30.00
   1  -7 -14  367.26   31.70
  -1   7  14  306.17   29.70
  -1   7  14  271.27   32.40
   1   7 -14  285.37   31.20
  -1   7  14  299.27   30.50
   1   7 -14  313.87   21.50
  -1   7  14  298.37   30.50
   0  -7 -14   89.69   17.00
   0  -7 -14   72.19   17.10
   0  -7  14   49.40   17.40
   0  -7  14   66.19   16.70
   0  -7 -14   66.09   16.00
   0  -7  14   52.59   15.10
   0  -7 -14   98.69   20.00
   0  -7  14   70.99   16.80
   0   7  14   61.19   17.30
   0   7  14   59.59   17.50
   0   7 -14   91.29   16.30
   0   7 -14  100.79   17.60
   0   7 -14   45.60   18.50
   0   7  14   84.29   17.80
   1  -7  14  156.58   23.10
  -1  -7 -14  124.69   18.60
  -1  -7 -14  126.29   19.10
   1  -7  14   90.99   22.20
   1  -7  14  112.29   21.20
  -1  -7 -14  159.98   21.80
   1  -7  14  130.49   20.50
   1   7  14  115.29   18.70
   1   7  14  122.49   17.60
   1   7  14  114.39   16.90
   1   7  14  110.39   19.30
  -1   7 -14  152.68   20.50
  -1   7 -14   93.59   20.30
  -1   7 -14  148.49   21.90
  -1   7 -14  135.29   18.90
   1  -8 -14   99.79   17.30
  -1  -8  14   73.09   17.70
   1  -8 -14  102.69   19.30
   1  -8 -14  100.69   19.90
  -1  -8  14   77.79   17.20
  -1  -8  14  123.49   19.00
   1  -8 -14   80.99   18.30
  -1  -8  14  127.09   18.40
  -1   8  14   99.29   20.20
   1   8 -14   46.50   20.30
  -1   8  14   94.09   20.70
   1   8 -14  108.49   12.20
  -1   8  14  111.89   20.10
  -1   8  14   89.89   19.10
   0  -8  14  505.55   37.30
   0  -8  14  466.65   36.50
   0  -8 -14  497.85   36.50
   0  -8 -14  503.55   34.90
   0  -8  14  509.95   35.40
   0  -8 -14  487.75   35.70
   0  -8  14  565.34   35.80
   0  -8 -14  459.85   34.80
   0   8 -14  524.25   32.50
   0   8  14  572.24   35.50
   0   8  14  480.65   35.80
   0   8 -14  484.85   33.70
   0   8  14  512.35   34.90
   0   8 -14  479.05   37.90
  -1  -8 -14  -20.00   15.90
   1  -8  14   15.10   19.00
   1  -8  14   22.00   17.20
  -1  -8 -14   44.00   18.30
   1  -8  14   23.80   21.50
  -1  -8 -14   12.40   17.80
   1  -8  14   24.70   20.50
  -1  -8 -14   16.60   16.20
  -1   8 -14   16.90   18.30
   1   8  14  -17.00   13.80
   1   8  14   62.69   18.00
  -1   8 -14   43.10   16.30
  -1   8 -14   42.60   20.30
   1   8  14   -3.20   14.20
  -1   8 -14   24.20   17.80
   1   8  14   34.10   14.60
   1  -9 -14  164.58   21.70
  -1  -9  14  173.38   21.10
  -1  -9  14  208.98   23.30
  -1  -9  14  261.27   28.70
   1  -9 -14  254.67   32.80
   1  -9 -14  166.18   22.90
  -1  -9  14  258.07   28.60
   1  -9 -14  212.18   24.80
   1   9 -14  177.58   24.60
  -1   9  14  211.98   24.60
  -1   9  14  255.77   25.50
  -1   9  14  220.68   24.60
  -1   9  14  237.28   24.10
   0  -9  14   16.30   16.90
   0  -9 -14   42.60   16.40
   0  -9  14  -38.70   16.30
   0  -9 -14  -13.70   16.90
   0  -9 -14   22.10   17.20
   0  -9 -14   41.40   18.10
   0  -9  14   -0.10   17.90
   0  -9  14  -22.00   17.20
   0   9 -14   26.00   12.80
   0   9 -14   -5.70   12.80
   0   9  14    1.60   17.00
   0   9 -14   -7.70   19.10
   0   9  14    1.20   17.10
   0   9  14   -0.80   16.20
   1  -9  14  192.58   26.30
  -1  -9 -14  172.08   20.80
   1  -9  14  197.18   24.00
  -1  -9 -14  198.78   25.30
   1  -9  14  174.68   27.40
  -1  -9 -14  200.48   24.90
  -1  -9 -14  200.38   23.40
   1  -9  14  260.87   28.30
  -1   9 -14  225.18   24.30
  -1   9 -14  200.88   27.00
  -1   9 -14  226.98   24.70
   1   9  14  214.28   25.00
  -1   9 -14  196.18   21.70
  -2   0  15   -8.70   16.50
  -2   0  15  -20.20   16.90
   2   0 -15  -14.00   13.40
   2   0 -15    6.90   15.50
   2   0 -15    6.70   15.20
  -2   0  15   16.00   17.10
  -2   0  15  -16.70   15.60
  -1   0  15   -2.50   14.40
   1   0 -15   -9.80   13.40
  -1   0  15  -15.70   14.70
  -1   0  15   -4.70   13.70
   1   0 -15  -12.20   13.40
  -1   0  15   -4.90   14.80
   1   0 -15   -7.30   13.70
   0   0  15  -14.20   14.20
   0   0  15   12.50   14.70
   0   0  15   12.30   14.60
   0   0 -15   -4.00   14.10
   0   0 -15    4.40   14.00
  -1   0 -15    6.00   14.70
   1   0  15   11.80   15.70
   1   0  15   -6.20   14.80
   1   0  15   22.30   15.40
   1   0  15   13.90   15.80
  -1   0 -15   -6.70   15.70
  -1   0 -15   14.70   14.50
   2   0  15  -28.90   18.10
   2   0  15    7.60   18.30
  -2   0 -15   15.40   19.50
   2   0  15    1.00   15.70
  -2   0 -15    8.30   18.30
  -2   0 -15   13.10   18.20
  -2   0 -15    9.60   17.10
   2   0  15   13.70   17.20
  -2  -1  15   70.59   19.00
  -2  -1  15   90.79   17.80
   2  -1 -15   85.39   17.70
   2  -1 -15   99.59   19.90
   2  -1 -15   88.89   17.20
  -2  -1  15   87.49   18.70
  -2  -1  15   99.19   19.30
   2  -1 -15  117.39   18.00
  -2   1  15   94.19   19.40
   2   1 -15   89.49   18.50
   2   1 -15   95.99   16.30
  -2   1  15  108.29   20.30
   2   1 -15   81.89   17.60
  -2   1  15   85.49   18.40
  -2   1  15   88.79   19.20
  -1  -1  15  138.99   19.70
  -1  -1  15  144.19   18.70
   1  -1 -15  153.38   20.30
   1  -1 -15  141.89   17.90
  -1  -1  15  160.28   20.20
  -1  -1  15  131.69   17.00
   1  -1 -15  143.49   18.20
   1   1 -15  144.69   17.70
   1   1 -15  132.79   18.40
  -1   1  15  151.38   19.60
  -1   1  15  102.89   16.20
  -1   1  15  192.88   20.50
   1   1 -15  153.28   18.00
   0  -1 -15  116.79   16.70
   0  -1  15  138.79   18.70
   0  -1 -15  156.18   21.60
   0  -1  15  147.89   19.60
   0  -1  15  123.69   18.40
   0  -1 -15  193.38   19.60
   0  -1 -15  158.68   19.80
   0   1  15  140.39   18.20
   0   1 -15  161.78   19.40
   0   1  15  128.39   18.90
   0   1  15  147.79   19.10
   0   1 -15  184.48   20.10
   0   1  15  147.69   17.70
   1  -1  15    5.40   15.70
  -1  -1 -15   15.60   14.90
  -1  -1 -15   24.20   15.60
   1  -1  15   12.20   16.40
   1  -1  15   18.50   15.20
  -1  -1 -15   17.70   15.40
   1  -1  15   -2.10   15.30
   1   1  15   20.50   15.60
   1   1  15    0.10   15.10
  -1   1 -15   33.40   15.40
  -1   1 -15   26.20   18.30
   1   1  15   34.60   16.00
   1   1  15   -8.40   15.30
  -1   1 -15   12.40   16.00
  -1   1 -15    7.20   15.50
  -2  -1 -15  127.09   21.40
   2  -1  15  157.48   23.10
  -2  -1 -15  115.59   20.50
  -2  -1 -15  138.59   20.70
   2  -1  15  156.18   21.30
   2  -1  15  156.28   23.00
  -2  -1 -15   86.29   21.70
   2  -1  15  115.49   21.10
  -2   1 -15   91.49   21.10
  -2   1 -15  135.19   22.00
  -2   1 -15   71.09   21.50
   2   1  15  100.69   21.00
   2   1  15  159.38   20.40
   2   1  15  124.19   20.20
  -2   1 -15  110.39   20.60
   2   1  15  138.29   21.10
  -2  -2  15  235.88   28.60
   2  -2 -15  315.87   29.30
   2  -2 -15  269.27   29.00
  -2  -2  15  308.07   29.80
   2  -2 -15  294.67   30.30
  -2  -2  15  291.67   29.80
  -2  -2  15  282.37   28.30
   2  -2 -15  341.27   31.70
   2   2 -15  260.87   28.70
  -2   2  15  280.87   30.90
   2   2 -15  274.47   31.00
  -2   2  15  289.67   30.60
   2   2 -15  245.98   28.00
  -2   2  15  306.67   31.80
  -2   2  15  286.57   31.40
   2   2 -15  262.37   24.70
   1  -2 -15  211.38   20.40
  -1  -2  15  132.69   18.40
   1  -2 -15  197.28   25.40
   1  -2 -15  135.59   19.20
  -1  -2  15  200.68   24.70
   1  -2 -15  213.08   25.70
  -1  -2  15  145.09   18.00
  -1  -2  15  173.28   20.40
  -1   2  15  181.48   21.20
  -1   2  15  175.98   20.90
   1   2 -15  202.78   21.80
  -1   2  15  165.78   20.10
   1   2 -15  114.29   18.00
   1   2 -15  166.08   18.70
   1   2 -15  175.08   18.20
   0  -2  15   -5.90   15.10
   0  -2 -15    1.70   13.40
   0  -2  15   24.00   15.80
   0  -2 -15    0.50   14.00
   0  -2  15    5.90   13.90
   0  -2 -15    2.70   14.00
   0   2 -15    2.20   15.30
   0   2 -15    2.40   14.90
   0   2  15   21.30   15.40
   0   2  15    7.70   16.00
   0   2  15   26.40   15.50
   0   2  15   16.30   15.10
   1  -2  15  145.29   20.10
  -1  -2 -15  164.78   19.90
  -1  -2 -15  119.09   19.50
   1  -2  15  125.89   18.60
   1  -2  15  119.79   20.10
  -1  -2 -15  131.19   19.90
   1  -2  15  117.69   19.30
  -1  -2 -15  127.89   18.90
  -1   2 -15  114.29   18.40
   1   2  15  172.38   20.80
  -1   2 -15  109.09   19.50
  -1   2 -15  114.39   20.20
  -1   2 -15  131.19   19.00
   1   2  15  149.79   20.30
   1   2  15  138.79   18.90
   1   2  15  171.68   21.30
   2  -2  15   44.60   18.40
  -2  -2 -15  -13.40   18.60
  -2  -2 -15   17.30   19.10
   2  -2  15    3.60   18.70
  -2  -2 -15   -5.00   17.20
  -2  -2 -15    7.20   16.60
   2  -2  15   26.30   18.30
   2  -2  15    7.60   19.90
  -2   2 -15   11.00   18.40
   2   2  15   56.59   18.40
   2   2  15   33.80   17.20
  -2   2 -15   12.20   18.40
  -2   2 -15   36.30   21.10
   2   2  15   15.60   17.90
   2   2  15    4.30   18.70
  -2   2 -15   26.00   18.80
   2  -3 -15  151.08   21.00
   2  -3 -15  142.09   19.50
  -2  -3  15  140.09   20.20
  -2  -3  15  152.28   19.90
   2  -3 -15  209.58   22.80
   2  -3 -15  110.99   21.30
  -2  -3  15  147.49   20.40
  -2  -3  15   89.29   17.60
   2   3 -15  143.19   21.90
   2   3 -15  132.59   18.70
  -2   3  15  160.68   22.30
  -2   3  15  103.49   20.40
  -2   3  15  149.19   21.60
   2   3 -15  141.19   15.90
  -2   3  15  116.79   22.20
   1  -3 -15  448.16   33.90
  -1  -3  15  519.25   33.70
  -1  -3  15  523.25   33.10
  -1  -3  15  494.75   32.80
   1  -3 -15  486.75   34.50
   1  -3 -15  496.85   34.70
  -1  -3  15  507.05   33.10
   1  -3 -15  477.25   33.90
   1   3 -15  570.14   34.30
  -1   3  15  513.35   34.40
  -1   3  15  470.25   35.50
   1   3 -15  522.45   32.70
   1   3 -15  510.85   35.60
   1   3 -15  441.36   30.30
  -1   3  15  565.84   36.50
  -1   3  15  541.15   35.40
   0  -3 -15  292.97   27.90
   0  -3  15  331.97   28.50
   0  -3 -15  303.77   28.70
   0  -3 -15  312.37   28.60
   0  -3  15  315.47   29.30
   0  -3  15  279.27   29.20
   0  -3  15  315.77   27.90
   0   3  15  352.26   29.70
   0   3  15  312.47   28.20
   0   3  15  308.37   29.30
   0   3 -15  284.77   28.20
   0   3 -15  302.57   29.80
   0   3  15  251.97   28.30
   1  -3  15  122.19   21.00
  -1  -3 -15   98.49   19.70
   1  -3  15  127.39   20.10
  -1  -3 -15   75.79   17.30
  -1  -3 -15  110.39   18.50
  -1  -3 -15  121.69   19.80
   1  -3  15  104.39   17.70
   1  -3  15  108.19   18.40
   1   3  15   78.39   17.40
  -1   3 -15   75.29   17.30
  -1   3 -15  136.59   22.20
  -1   3 -15  112.39   19.40
   1   3  15  110.69   19.00
   1   3  15  137.89   19.80
  -1   3 -15  144.29   19.40
  -2  -3 -15  278.47   30.50
   2  -3  15  194.98   23.20
  -2  -3 -15  172.48   23.20
   2  -3  15  160.38   25.30
  -2  -3 -15  156.18   21.60
  -2  -3 -15  210.08   25.60
   2  -3  15  127.39   21.00
   2  -3  15  201.78   24.50
  -2   3 -15  168.98   24.40
  -2   3 -15  252.67   25.10
  -2   3 -15  219.48   24.80
   2   3  15  196.88   22.20
   2   3  15  210.68   25.70
   2   3  15  217.68   27.80
   2   3  15  222.68   23.80
  -2   3 -15  121.59   20.90
   2  -4 -15  272.67   32.50
  -2  -4  15  302.57   30.40
   2  -4 -15  266.87   32.80
  -2  -4  15  274.67   30.10
  -2  -4  15  277.57   28.90
  -2  -4  15  306.77   30.00
   2  -4 -15  279.47   31.10
   2  -4 -15  289.47   32.10
  -2   4  15  293.57   33.60
   2   4 -15  276.17   23.20
   2   4 -15  314.57   32.90
  -2   4  15  311.37   32.40
  -2   4  15  322.87   34.80
  -2   4  15  333.57   32.40
  -1  -4  15  242.28   27.20
   1  -4 -15  280.37   30.60
  -1  -4  15  291.17   28.60
  -1  -4  15  284.57   27.90
   1  -4 -15  289.57   29.90
  -1  -4  15  291.17   27.80
   1  -4 -15  274.27   29.40
   1  -4 -15  263.27   27.40
  -1   4  15  220.88   28.70
  -1   4  15  286.17   28.50
   1   4 -15  288.57   26.70
  -1   4  15  296.17   30.40
   1   4 -15  293.47   28.20
  -1   4  15  283.37   30.10
   1   4 -15  292.27   31.10
   1   4 -15  299.17   24.90
   0  -4 -15  224.38   28.40
   0  -4  15  205.78   25.90
   0  -4  15  212.28   22.30
   0  -4  15  190.88   21.60
   0  -4 -15  260.67   27.40
   0  -4 -15  230.28   26.60
   0  -4  15  178.38   20.30
   0   4  15  171.48   20.90
   0   4  15  218.38   28.60
   0   4 -15  234.58   25.80
   0   4  15  222.38   25.80
   0   4 -15  217.88   24.20
   0   4  15  216.48   23.30
   1  -4  15  371.56   31.80
   1  -4  15  388.86   34.10
  -1  -4 -15  399.86   33.10
  -1  -4 -15  383.56   32.50
   1  -4  15  338.37   31.60
  -1  -4 -15  347.17   31.10
   1  -4  15  402.16   32.50
  -1  -4 -15  341.37   32.30
   1   4  15  345.87   32.00
   1   4  15  348.47   31.60
  -1   4 -15  316.37   34.20
  -1   4 -15  364.96   32.80
   1   4  15  383.76   30.90
  -1   4 -15  410.06   32.90
  -1   4 -15  333.17   31.50
  -2  -4 -15   27.20   20.00
   2  -4  15   16.90   19.50
   2  -4  15   19.20   18.20
  -2  -4 -15  -14.20   19.10
  -2  -4 -15   25.70   17.40
  -2  -4 -15  -18.20   17.70
   2  -4  15  -25.50   20.10
   2  -4  15    0.60   20.80
   2   4  15   -5.30   16.20
  -2   4 -15   -8.40   20.30
   2   4  15   24.40   16.10
  -2   4 -15   33.70   19.00
  -2   4 -15  -15.70   19.50
  -2   4 -15  -15.60   19.60
   2   4  15   -7.70   19.10
  -2  -5  15  296.87   29.70
  -2  -5  15  229.98   27.20
   2  -5 -15  269.67   34.20
   2  -5 -15  292.57   30.40
  -2  -5  15  265.37   30.00
   2  -5 -15  263.67   32.60
   2  -5 -15  250.27   32.90
  -2  -5  15  239.18   29.60
  -2   5  15  311.17   33.20
  -2   5  15  291.07   32.60
  -2   5  15  290.77   28.40
   2   5 -15  193.08   25.60
   2   5 -15  275.57   21.40
  -2   5  15  271.67   31.20
   1  -5 -15  211.18   22.30
   1  -5 -15  194.28   22.40
  -1  -5  15  173.88   20.00
  -1  -5  15  167.18   20.10
   1  -5 -15  195.28   22.50
  -1  -5  15  200.58   21.80
   1  -5 -15  217.68   23.00
  -1  -5  15  145.09   18.70
   1   5 -15  203.58   22.90
   1   5 -15  193.88   22.10
  -1   5  15  175.58   22.20
   1   5 -15  188.98   20.00
   1   5 -15  175.68   20.10
  -1   5  15  219.48   27.30
  -1   5  15  157.18   20.70
  -1   5  15  219.18   24.40
   0  -5  15  377.56   31.10
   0  -5 -15  400.66   33.00
   0  -5  15  422.56   32.70
   0  -5 -15  419.96   32.50
   0  -5  15  433.26   32.20
   0  -5  15  376.66   32.70
   0  -5 -15  387.96   31.80
   0  -5 -15  389.46   31.40
   0   5  15  403.26   30.30
   0   5 -15  404.06   34.60
   0   5  15  414.66   31.90
   0   5  15  362.16   33.10
   0   5  15  420.36   32.60
   0   5 -15  380.86   30.80
  -1  -5 -15   72.69   18.10
   1  -5  15   25.60   18.60
  -1  -5 -15   96.29   19.30
  -1  -5 -15   77.49   19.50
   1  -5  15   87.59   20.20
   1  -5  15  101.49   19.40
   1  -5  15   68.89   18.30
  -1  -5 -15   90.89   19.30
  -1   5 -15   84.59   21.20
   1   5  15   69.59   18.00
  -1   5 -15   77.79   19.30
  -1   5 -15   58.79   18.60
  -1   5 -15   86.79   18.60
   1   5  15   47.50   17.60
   1   5  15   77.39   17.50
  -2  -6  15   70.99   19.00
  -2  -6  15   73.79   18.90
  -2   6  15   83.09   23.20
   1  -6 -15  110.49   20.30
  -1  -6  15  133.09   18.90
  -1  -6  15  146.79   19.30
   1  -6 -15  116.89   20.40
   1  -6 -15  115.69   19.70
  -1  -6  15  145.59   20.40
   1  -6 -15   80.79   16.20
  -1  -6  15  103.89   18.60
  -1   6  15  114.19   20.60
  -1   6  15  160.78   22.00
   1   6 -15  139.29   17.50
  -1   6  15  100.59   21.20
   1   6 -15  111.19   15.00
   1   6 -15  104.29   21.60
  -1   6  15   98.49   18.40
   0  -6 -15  232.08   23.90
   0  -6  15  281.17   29.80
   0  -6 -15  256.57   28.90
   0  -6 -15  236.78   29.70
   0  -6 -15  225.68   29.50
   0  -6  15  241.98   27.80
   0  -6  15  221.68   24.50
   0  -6  15  254.67   31.00
   0   6  15  233.88   28.60
   0   6  15  281.97   27.50
   0   6  15  225.08   23.90
   0   6 -15  230.78   26.90
   0   6 -15  250.17   26.10
   0   6  15  241.48   25.20
  -1  -6 -15   86.49   19.10
   1  -6  15   64.59   17.40
  -1  -6 -15   88.69   17.60
  -1  -6 -15   66.89   19.60
   1  -6  15  129.89   22.00
   1  -6  15   65.99   20.30
   1  -6  15   65.69   21.60
  -1   6 -15   80.09   21.50
   1   6  15   84.69   19.80
  -1   6 -15   98.49   19.90
  -1   6 -15   74.69   20.00
   1   6  15   70.49   19.20
   1   6  15   54.49   17.00
  -1   6 -15   94.49   18.80
   1  -7 -15  -12.70   17.50
  -1  -7  15    0.70   16.90
   1  -7 -15   35.40   16.10
  -1  -7  15   27.30   16.60
   1  -7 -15   42.80   17.40
   1  -7 -15   35.50   18.10
  -1  -7  15   36.00   18.00
  -1  -7  15   45.40   17.60
   1   7 -15   21.90   20.60
  -1   7  15   15.70   19.20
  -1   7  15   34.30   19.40
  -1   7  15   31.10   19.20
  -1   7  15   50.89   18.50
   1   7 -15   -2.70   11.90
   1   7 -15   17.10   12.90
   0  -7  15   30.90   16.50
   0  -7 -15   22.30   16.60
   0  -7  15   -2.20   16.80
   0  -7  15    6.10   18.30
   0  -7 -15   36.10   18.00
   0  -7 -15   32.00   19.50
   0  -7  15   22.60   18.70
   0  -7 -15   31.90   17.60
   0   7  15    0.80   17.00
   0   7 -15   32.30   15.00
   0   7 -15   15.90   19.20
   0   7  15   34.90   17.60
   0   7 -15    9.20   15.90
   0   7  15  -15.40   15.00
   0   7  15   23.50   16.30
  -1  -7 -15   25.90   19.40
  -1  -7 -15    9.00   19.00
  -1  -7 -15   14.50   18.90
   1  -7  15  -39.40   17.30
   1  -7  15   31.70   18.80
   1  -7  15   19.90   21.10
   1  -7  15   -6.50   19.90
   1   7  15    2.20   16.10
  -1   7 -15   12.80   20.10
  -1   7 -15   18.40   16.40
  -1   7 -15    1.20   19.70
  -1   7 -15   23.40   18.80
   1   7  15   36.40   19.70
   1   7  15    6.30   15.70
  -1  -8  15   -4.10   18.40
  -1  -8  15   -5.90   16.50
   1  -8 -15  -17.80   17.10
  -1  -8  15  -23.00   16.40
   1  -8 -15   11.20   16.90
  -1  -8  15   17.40   17.80
   1  -8 -15  -17.30   18.40
  -1   8  15    5.00   20.40
  -1   8  15   53.69   19.80
   1   8 -15  -25.20   10.10
   1   8 -15   -2.90   12.90
  -1   8  15  -34.30   20.00
  -1   8  15    5.50   17.60
   1   8 -15    4.20   11.40
   0  -8 -15   22.60   19.00
   0  -8  15  -15.80   18.50
   0  -8  15  -12.60   18.80
   0  -8 -15  -15.10   16.20
   0  -8 -15   42.30   19.30
   0  -8 -15  -25.80   17.30
   0  -8  15  -15.80   16.10
   0  -8  15   36.20   20.10
   0   8  15   -5.60   17.50
   0   8  15   19.90   16.90
   0   8 -15   15.10   15.80
   0   8 -15    5.40   20.90
   0   8  15   15.80   18.90
   0   8 -15  -19.00   13.10
   0   8  15   29.80   17.40
  -2   0  16    4.50   17.60
  -2   0  16    5.00   18.20
   2   0 -16   18.50   18.20
  -2   0  16    2.60   17.50
   2   0 -16    0.30   16.00
  -2   0  16  -11.50   18.80
   2   0 -16    6.80   18.20
   2   0 -16   26.90   19.30
   1   0 -16  593.54   39.10
   1   0 -16  624.74   39.20
  -1   0  16  681.73   40.30
  -1   0  16  618.04   40.00
  -1   0  16  609.24   38.10
   1   0 -16  590.04   39.40
   1   0 -16  654.63   37.90
  -1   0  16  645.74   38.50
   0   0 -16   96.09   19.10
   0   0 -16   74.49   19.60
   0   0  16   79.69   17.90
   0   0 -16   89.49   18.70
   0   0  16   56.69   17.30
   0   0  16   95.09   17.90
   0   0  16   87.89   19.00
   0   0 -16  112.49   17.70
  -1   0 -16   13.70   17.70
   1   0  16   19.60   17.90
   1   0  16   26.20   15.90
  -1   0 -16   26.60   18.20
   1   0  16   14.50   19.00
   1   0  16   50.49   18.90
  -1   0 -16   19.30   16.10
  -1   0 -16   37.00   19.40
  -2   0 -16  183.28   24.00
   2   0  16  140.19   24.70
  -2  -1  16  243.38   32.20
  -2  -1  16  348.17   33.60
   2  -1 -16  300.87   34.00
  -2  -1  16  318.07   32.70
  -2  -1  16  302.87   34.00
   2  -1 -16  273.97   31.80
   2  -1 -16  297.47   30.20
   2  -1 -16  284.37   32.20
   2   1 -16  322.87   32.20
  -2   1  16  250.17   31.70
  -2   1  16  279.67   33.90
   2   1 -16  312.07   32.20
   2   1 -16  319.47   34.70
  -2   1  16  335.27   34.10
  -2   1  16  279.87   33.00
   2   1 -16  293.37   28.40
   1  -1 -16   95.19   17.80
  -1  -1  16  110.19   19.50
   1  -1 -16   95.39   20.30
  -1  -1  16   71.49   17.70
   1  -1 -16   63.69   17.50
  -1  -1  16   91.39   18.50
   1  -1 -16   51.39   16.60
  -1  -1  16  137.99   20.60
   1   1 -16   66.59   16.60
   1   1 -16   90.19   19.70
  -1   1  16  104.89   19.90
  -1   1  16   86.99   19.60
   1   1 -16  115.89   19.00
  -1   1  16   75.69   19.20
  -1   1  16   63.59   17.80
   1   1 -16   88.19   18.80
   0  -1  16  571.44   36.20
   0  -1 -16  550.54   38.20
   0  -1  16  512.15   36.00
   0  -1  16  619.24   37.50
   0  -1 -16  533.25   37.10
   0  -1  16  514.75   42.10
   0  -1 -16  566.34   37.90
   0  -1 -16  584.64   36.10
   0   1 -16  554.04   36.70
   0   1  16  502.35   36.30
   0   1  16  531.85   36.80
   0   1 -16  564.54   37.60
   0   1 -16  564.64   35.40
   0   1  16  558.94   37.70
   0   1  16  581.64   37.20
   0   1 -16  551.64   38.00
  -1  -1 -16  190.98   22.90
   1  -1  16  197.78   24.20
   1  -1  16  114.29   18.60
   1  -1  16  168.88   21.70
  -1  -1 -16  146.49   21.00
   1  -1  16  150.08   21.50
  -1  -1 -16  153.38   20.60
  -1  -1 -16  135.79   22.20
   1   1  16  168.38   22.30
  -1   1 -16  132.79   21.80
  -1   1 -16  155.08   21.50
   1   1  16  143.09   20.00
   1   1  16  107.39   20.30
  -1   1 -16   98.59   22.40
   1   1  16  153.18   21.40
  -1   1 -16  104.89   20.90
   2  -2 -16   61.69   20.20
   2  -2 -16   41.10   17.90
   2  -2 -16   11.20   18.30
  -2  -2  16   43.40   17.80
   2  -2 -16   54.59   18.70
  -2  -2  16   34.50   18.20
  -2  -2  16   47.40   19.30
  -2  -2  16   47.10   19.20
  -2   2  16   27.00   19.70
  -2   2  16   28.70   18.10
   2   2 -16   22.10   14.80
  -2   2  16   44.40   20.40
   2   2 -16   24.20   19.80
   2   2 -16   17.90   16.40
  -2   2  16    4.40   18.90
  -1  -2  16  366.16   31.00
  -1  -2  16  339.47   32.00
  -1  -2  16  328.17   30.90
   1  -2 -16  318.47   31.70
   1  -2 -16  397.56   32.70
   1  -2 -16  317.87   31.50
  -1  -2  16  352.06   32.30
   1  -2 -16  362.86   32.60
  -1   2  16  355.06   31.80
   1   2 -16  418.26   31.60
  -1   2  16  409.66   31.70
  -1   2  16  365.16   34.60
   1   2 -16  377.76   29.60
  -1   2  16  388.26   33.70
   1   2 -16  378.56   34.40
   0  -2 -16   55.39   17.40
   0  -2  16   28.80   15.90
   0  -2  16   49.30   18.50
   0  -2 -16   28.20   15.80
   0  -2  16   55.19   15.70
   0  -2  16   58.09   18.80
   0  -2 -16   66.69   19.20
   0  -2 -16   44.10   16.50
   0   2 -16   35.20   17.80
   0   2  16   32.70   16.40
   0   2  16   67.09   18.70
   0   2 -16   96.39   19.60
   0   2  16   85.49   19.00
   0   2  16   46.40   16.80
   0   2 -16   38.40   15.80
  -1  -2 -16  105.19   20.60
   1  -2  16  116.89   19.80
  -1  -2 -16   94.49   19.90
  -1  -2 -16  162.48   22.70
   1  -2  16  121.99   23.00
   1  -2  16  158.78   22.20
  -1  -2 -16  135.29   20.10
   1  -2  16  125.69   21.00
   1   2  16  151.18   21.30
   1   2  16  120.59   19.30
  -1   2 -16   78.69   21.20
   1   2  16  121.39   20.80
   1   2  16  133.29   21.00
  -1   2 -16  129.09   20.80
  -1   2 -16   89.99   19.70
  -1   2 -16   97.19   21.20
   2  -3 -16  147.89   23.40
   2  -3 -16  106.29   20.40
   2  -3 -16  137.69   22.50
   2  -3 -16  133.39   21.20
  -2  -3  16  104.59   20.50
  -2  -3  16  137.49   21.10
  -2  -3  16  112.69   20.70
  -2  -3  16  103.49   20.30
  -2   3  16  168.98   23.10
   2   3 -16  131.19   24.60
  -2   3  16   96.39   21.60
   2   3 -16   95.09   18.90
   2   3 -16  108.49   16.20
  -2   3  16   75.99   22.40
  -1  -3  16  -42.20   16.00
   1  -3 -16   29.10   17.70
   1  -3 -16    7.70   15.70
  -1  -3  16    0.70   15.20
   1  -3 -16   10.50   16.80
  -1  -3  16   18.40   16.70
  -1  -3  16   31.80   17.40
   1  -3 -16   16.10   15.60
   1   3 -16   12.60   14.70
  -1   3  16   -3.40   18.40
   1   3 -16   -1.40   17.80
  -1   3  16    6.60   18.70
   1   3 -16   26.30   14.60
  -1   3  16    8.80   14.50
  -1   3  16   -3.80   16.50
   0  -3 -16   20.30   15.70
   0  -3  16    3.90   17.20
   0  -3  16    7.40   16.00
   0  -3  16   -8.00   17.30
   0  -3 -16   23.20   16.50
   0  -3  16   20.90   16.40
   0  -3 -16   16.20   16.20
   0  -3 -16  -18.00   14.90
   0   3 -16   21.30   17.00
   0   3  16    0.80   15.50
   0   3  16   -1.50   17.00
   0   3  16   15.00   17.30
   0   3 -16  -27.50   17.00
   0   3  16   -9.90   17.30
   0   3 -16    2.50   16.20
   1  -3  16   90.39   19.60
  -1  -3 -16  132.09   22.60
   1  -3  16   95.89   20.50
   1  -3  16   94.69   20.90
  -1  -3 -16  142.09   20.70
   1  -3  16  137.49   22.30
  -1  -3 -16  134.79   22.10
  -1  -3 -16   92.59   20.00
   1   3  16  133.59   22.30
   1   3  16   90.39   19.30
   1   3  16  129.59   21.20
  -1   3 -16  107.79   22.20
  -1   3 -16  127.19   20.90
  -1   3 -16  101.19   20.90
  -1   3 -16   92.09   19.60
   1   3  16  117.29   20.10
   1  -4 -16   10.90   18.30
  -1  -4  16   -0.50   17.10
   1  -4 -16  -21.40   17.60
  -1  -4  16    7.70   16.90
   1  -4 -16   23.70   17.80
   1  -4 -16   35.60   15.70
  -1  -4  16   17.90   15.40
  -1  -4  16    9.70   16.60
   1   4 -16   17.80   16.60
   1   4 -16   31.90   14.40
  -1   4  16   34.80   18.80
  -1   4  16   10.60   14.40
  -1   4  16   39.50   17.70
   1   4 -16   12.60   17.80
   1   4 -16  -21.10   23.60
  -1   4  16   24.20   18.80
   0  -4  16   40.80   17.70
   0  -4 -16   81.59   18.70
   0  -4 -16   75.89   18.00
   0  -4 -16   61.09   16.80
   0  -4  16   51.99   17.80
   0  -4 -16   66.89   17.70
   0  -4  16   39.70   17.90
   0  -4  16   81.19   19.50
   0   4  16   51.79   17.30
   0   4 -16   37.40   18.30
   0   4  16   65.09   19.90
   0   4 -16   61.59   20.50
   0   4  16  113.89   19.70
   0   4  16   63.69   19.40
   0   4 -16   44.20   19.10
  -1  -4 -16   14.00   18.60
   1  -4  16   -7.70   17.90
  -1  -4 -16  -19.90   17.30
   1  -4  16    7.10   18.30
  -1  -4 -16   26.40   18.80
   1  -4  16    9.80   19.20
   1  -4  16  -25.60   19.60
  -1  -4 -16   -6.00   18.90
   1   4  16    0.30   17.50
  -1   4 -16   28.10   18.30
  -1   4 -16   -9.50   17.40
  -1   4 -16    4.30   17.50
   1   4  16   -6.80   16.40
   1   4  16    8.30   18.10
   1   4  16   23.90   17.80
   1  -5 -16   12.70   15.60
  -1  -5  16   38.60   18.10
  -1  -5  16   13.00   17.50
   1  -5 -16   44.10   18.10
   1  -5 -16   59.99   19.90
   1  -5 -16   31.30   19.30
  -1  -5  16   39.20   18.20
  -1  -5  16   16.20   17.00
   1   5 -16    9.20   19.30
   1   5 -16    8.50   17.00
   1   5 -16   30.20   15.50
  -1   5  16   15.10   18.90
  -1   5  16   40.30   19.40
  -1   5  16   66.09   21.70
   1   5 -16   14.40   14.10
  -1   5  16    5.00   18.80
   0  -5 -16   72.09   18.50
   0  -5 -16   58.69   18.70
   0  -5  16   31.60   19.90
   0  -5 -16   44.50   17.50
   0  -5  16   76.29   19.20
   0  -5  16   83.49   20.50
   0  -5  16   89.59   21.30
   0  -5 -16   55.39   18.30
   0   5 -16   30.80   19.80
   0   5  16   90.09   21.20
   0   5 -16   83.89   19.60
   0   5  16   41.90   17.70
   0   5 -16   62.99   17.10
   0   5  16   70.59   20.40
   0   5  16   65.19   18.20
  -1  -5 -16   25.30   18.70
   1  -5  16   34.90   19.50
  -1  -5 -16   40.00   20.20
   1  -5  16   28.90   18.50
  -1  -5 -16   12.50   19.70
   1  -5  16   -0.60   19.70
   1  -5  16    9.40   18.60
  -1   5 -16   26.30   18.50
   1   5  16   29.30   19.70
  -1   5 -16   -5.90   21.60
  -1   5 -16   26.50   18.50
   1   5  16   10.50   17.20
   1   5  16   -1.80   17.40
   1   5  16    4.30   20.20
  -1   5 -16  -14.00   18.40
  -1  -6  16  264.67   34.10
   1  -6 -16  211.18   25.20
  -1  -6  16  232.98   24.90
   1  -6 -16  296.17   31.20
  -1  -6  16  262.87   25.00
   1  -6 -16  268.17   33.70
  -1  -6  16  282.47   31.30
   1  -6 -16  218.88   26.10
   1   6 -16  253.07   27.80
  -1   6  16  217.78   25.10
  -1   6  16  257.37   28.20
  -1   6  16  282.27   32.70
   1   6 -16  293.97   25.40
  -1   6  16  277.47   35.90
   0  -6 -16   62.09   19.30
   0  -6 -16  111.19   20.40
   0  -6  16   89.49   20.20
   0  -6  16   54.19   21.00
   0  -6  16   92.39   21.30
   0  -6 -16   81.09   20.00
   0  -6 -16   67.69   20.80
   0  -6  16   52.79   19.30
   0   6 -16   76.99   19.80
   0   6  16   60.39   21.40
   0   6  16   70.19   20.70
   0   6 -16   60.09   20.30
   0   6 -16   61.39   22.20
   0   6  16   50.69   17.90
   0   6  16   10.60   19.70
  -1  -6 -16  160.68   23.90
  -1  -6 -16  186.18   24.70
   1  -6  16  242.88   27.30
  -1  -6 -16  224.78   25.90
   1  -6  16  188.48   26.60
   1  -6  16  181.88   22.60
  -1   6 -16  232.78   25.90
   1   6  16  168.48   21.60
   1   6  16  172.38   24.60
  -1   6 -16  259.07   25.10
   1   6  16  180.18   23.80
   1   6  16  262.97   30.50
  -1   6 -16  125.99   26.40
  -1   6 -16  209.88   27.10
   0  -7 -16  232.08   33.50
   0  -7 -16  192.48   24.20
   0  -7  16  151.08   24.60
   0  -7  16  179.78   25.00
   0  -7  16  246.58   30.10
   0  -7 -16  184.48   26.10
   0  -7 -16  171.18   23.40
   0  -7  16  203.48   24.20
   0   7 -16  139.49   25.20
   0   7  16  145.49   22.90
   0   7  16  148.59   23.40
   0   7 -16  140.49   18.80
   0   7 -16  124.39   23.40
   0   7  16  136.79   23.30
   0   7  16  131.19   22.10
   0   7 -16  161.58   22.90
   1   0 -17    1.20   16.50
   1   0 -17   -3.60   17.20
   1   0 -17   -4.80   19.30
  -1   0  17  -11.50   17.40
  -1   0  17   -8.50   17.00
  -1   0  17   -3.70   17.90
  -1   0  17   22.00   18.90
   1   0 -17  -21.80   18.10
   0   0 -17   -1.80   18.40
   0   0 -17   -6.80   16.30
   0   0  17    8.90   19.40
   0   0 -17    0.10   17.10
   0   0  17   26.40   19.10
   0   0  17   33.30   18.50
   0   0 -17   23.90   16.90
   0   0  17  -16.00   16.80
   1   0  17  -42.40   16.80
  -1   0 -17   10.10   18.30
  -1   0 -17  -14.40   19.20
   1   0  17   -8.60   20.40
  -1   0 -17  -15.00   19.90
   1   0  17    3.10   19.70
  -1   0 -17   17.20   18.40
   1   0  17  -29.80   18.40
  -1  -1  17  136.49   22.60
   1  -1 -17  166.78   23.60
  -1  -1  17  122.29   21.90
   1  -1 -17  130.49   21.30
  -1  -1  17  174.38   23.80
   1  -1 -17  161.38   23.30
   1  -1 -17  130.39   22.70
  -1  -1  17  143.69   22.20
  -1   1  17  114.59   22.80
   1   1 -17   89.79   21.70
   1   1 -17   97.79   19.20
  -1   1  17  129.19   22.90
  -1   1  17  130.89   22.50
   1   1 -17  115.99   22.00
  -1   1  17  183.78   23.80
   1   1 -17  138.99   22.40
   0  -1  17    2.30   15.50
   0  -1 -17  -14.20   17.60
   0  -1  17  -13.60   16.90
   0  -1 -17  -35.80   17.10
   0  -1 -17    9.20   19.00
   0  -1  17    6.10   18.20
   0  -1 -17    5.00   16.30
   0  -1  17  -12.00   19.50
   0   1 -17   -8.00   15.90
   0   1 -17  -36.10   19.50
   0   1  17   17.90   17.70
   0   1  17   54.19   19.30
   0   1  17   18.90   18.50
   0   1  17    6.20   19.90
   0   1 -17  -26.30   16.40
   0   1 -17  -14.50   17.80
  -1  -1 -17   97.69   21.90
   1  -1  17   79.59   22.80
   1  -1  17   51.69   19.40
   1  -1  17   88.39   19.00
  -1  -1 -17   37.60   21.20
  -1  -1 -17   91.39   22.60
   1  -1  17  108.29   23.40
  -1  -1 -17   96.79   21.60
  -1   1 -17  115.89   22.90
  -1   1 -17  101.39   21.00
  -1   1 -17   77.99   23.50
   1   1  17  117.19   20.50
   1   1  17   84.29   21.40
   1   1  17   88.09   19.60
   1   1  17  108.09   22.90
  -1   1 -17  118.79   21.30
   1  -2 -17   17.80   18.80
   1  -2 -17   16.90   18.80
  -1  -2  17   -3.00   16.90
   1  -2 -17    8.20   16.50
   1  -2 -17  -33.90   15.20
  -1  -2  17  -28.30   17.70
  -1  -2  17   26.70   20.00
  -1  -2  17  -17.20   18.40
  -1   2  17   17.40   19.30
  -1   2  17   -6.00   18.50
  -1   2  17   -2.90   20.10
   1   2 -17    2.80   17.20
   1   2 -17  -43.90   18.30
  -1   2  17    2.80   20.20
   1   2 -17  -29.40   19.10
   1   2 -17   -0.10   15.60
   0  -2 -17  416.06   35.70
   0  -2  17  303.77   35.40
   0  -2  17  391.86   32.90
   0  -2  17  331.57   35.10
   0  -2 -17  331.67   34.10
   0  -2 -17  293.47   35.60
   0  -2 -17  356.66   33.80
   0  -2  17  391.86   32.10
   0   2  17  411.06   35.20
   0   2  17  390.66   35.10
   0   2  17  372.06   33.50
   0   2 -17  375.16   32.90
   0   2 -17  308.87   34.30
   0   2  17  340.47   36.40
   0   2 -17  422.26   32.90
   0   2 -17  335.37   36.70
  -1  -2 -17   67.89   21.90
   1  -2  17  104.69   21.30
  -1  -2 -17  128.69   21.90
   1  -2  17   71.89   21.80
   1  -2  17   78.99   22.30
   1  -2  17   48.90   20.20
  -1  -2 -17   71.79   23.50
  -1  -2 -17   78.79   19.70
  -1   2 -17   38.50   22.20
  -1   2 -17   53.29   21.40
   1   2  17   56.29   19.90
   1   2  17   84.19   22.00
  -1   2 -17   95.49   21.00
   1   2  17   39.50   19.40
   1   2  17   75.39   20.10
  -1   2 -17   92.29   20.90
  -1  -3  17  305.57   33.40
   1  -3 -17  272.37   34.40
  -1  -3  17  268.77   31.10
  -1  -3  17  282.57   33.50
  -1  -3  17  274.07   34.90
   1  -3 -17  286.67   33.30
   1  -3 -17  297.67   33.50
   1  -3 -17  308.17   34.10
  -1   3  17  303.07   36.20
   1   3 -17  277.67   36.00
   1   3 -17  254.67   29.60
  -1   3  17  271.57   34.20
  -1   3  17  255.57   33.10
   1   3 -17  285.17   31.90
   1   3 -17  292.77   33.90
  -1   3  17  318.07   35.60
   0  -3 -17   15.90   18.70
   0  -3  17  -20.50   16.80
   0  -3  17    3.00   17.10
   0  -3 -17    6.90   18.10
   0  -3 -17   -4.10   19.20
   0  -3  17   -7.60   19.20
   0  -3 -17   13.50   17.60
   0  -3  17  -18.00   19.10
   0   3 -17  -19.30   15.90
   0   3  17   15.60   17.20
   0   3  17   13.50   18.80
   0   3  17   -9.50   19.50
   0   3  17   -4.30   20.10
   0   3 -17   12.70   16.10
   0   3 -17    3.10   20.70
   0   3 -17    8.90   19.60
  -1  -3 -17  138.19   22.90
   1  -3  17  183.68   25.90
  -1  -3 -17  168.28   25.00
   1  -3  17  162.88   25.40
   1  -3  17  254.67   31.40
  -1  -3 -17  175.68   24.10
   1   3  17  215.88   26.30
  -1   3 -17  220.78   25.30
  -1   3 -17  173.58   26.80
   1   3  17  190.28   24.40
  -1   3 -17  195.68   24.90
   1   3  17  197.08   23.60
   1   3  17  167.88   24.40
  -1   3 -17  202.28   25.60
   1  -4 -17   -8.10   18.10
  -1  -4  17   17.30   18.70
  -1  -4  17   18.20   16.90
  -1  -4  17    5.40   18.50
   1  -4 -17   30.10   18.70
   1  -4 -17  -15.30   18.90
  -1  -4  17   12.10   19.80
   1  -4 -17   17.80   20.70
  -1   4  17   10.70   21.20
   1   4 -17    8.70   21.40
   1   4 -17    4.10   15.80
   1   4 -17    6.90   17.50
  -1   4  17  -40.70   18.20
  -1   4  17    6.50   21.20
   1   4 -17   -8.40   18.90
  -1   4  17   21.20   21.40
   0  -4  17  462.65   40.20
   0  -4 -17  546.85   41.20
   0  -4 -17  510.05   38.90
   0  -4 -17  464.95   38.20
   0  -4  17  497.55   39.20
   0  -4  17  520.85   37.50
   0  -4 -17  496.75   38.90
   0  -4  17  539.95   39.30
   0   4 -17  533.65   36.00
   0   4  17  530.65   40.20
   0   4  17  504.45   40.30
   0   4 -17  485.55   41.50
   0   4 -17  503.05   39.20
   0   4  17  571.54   40.10
   0   4 -17  545.75   41.70
   0   4  17  553.04   39.50
   0  -5 -17   14.50   19.70
   0  -5  17   -5.00   21.60
   0  -5 -17    7.70   18.60
   0  -5  17   27.50   21.10
   0  -5  17   41.10   21.80
   0  -5 -17   23.40   20.40
   0  -5  17   -0.30   17.40
   0   5 -17   30.80   19.40
   0   5  17   -2.30   20.40
   0   5 -17    3.90   21.50
   0   5 -17   11.20   23.10
   0   5  17   15.70   20.40
   0   5  17   26.20   21.60
   0   5  17    4.30   19.90
   0   5 -17   46.10   17.10
   0   0 -18   43.10   19.00
   0   0 -18   36.40   20.40
   0   0 -18    8.10   21.00
   0   0  18   36.60   21.10
   0   0  18  -19.10   19.20
   0  -1  18  389.36   34.40
   0  -1 -18  220.08   35.10
   0   1  18  365.86   37.00
   0   1 -18  333.07   37.80
_computing_structure_solution     'SHELXT 2014/4 (Sheldrick, 2014)'
;
_shelx_hkl_checksum              25420
_shelx_res_file
;
TITL UMD614_a.res in P2(1)/c
CELL 0.71073 3.832 13.0722 15.0036 90 91.917 90
ZERR 4 0.0007 0.0024 0.003 0 0.007 0
LATT 1
SYMM -X,0.5+Y,0.5-Z
SFAC C H N O Br
UNIT 32 16 4 8 4
EQIV $1 1-X,1-Y,1-Z
DFIX 0.87 N1 H1
L.S. 10
PLAN  5
SIZE 0.08 0.14 0.18
TEMP -153
HTAB N1 O1_$1
CONF
BOND $H
LIST 6
HTAB 2
MORE -1
fmap 2
acta 50.5
OMIT 1 7 1
OMIT -4 1 1
REM <olex2.extras>
REM <HklSrc "%.\\UMD614_a.hkl">
REM </olex2.extras>
WGHT    0.030500    1.304500
FVAR       0.54500
BR1   5    0.785589    0.814627    0.427735    11.00000    0.02086    0.02460 =
         0.02182    0.00333    0.00512   -0.00089
O1    4    0.240333    0.476586    0.597564    11.00000    0.04628    0.01745 =
         0.02999   -0.00041    0.01326   -0.00510
O2    4    0.019956    0.605275    0.745835    11.00000    0.03292    0.02093 =
         0.02507    0.00448    0.01157    0.00318
N1    3    0.455270    0.631016    0.548064    11.00000    0.02918    0.01654 =
         0.01790   -0.00056    0.00908    0.00004
H1    2    0.553248    0.613575    0.500726    11.00000   -1.20000
C1    1    0.295349    0.567356    0.605193    11.00000    0.02434    0.01758 =
         0.02112    0.00019    0.00391    0.00461
C2    1    0.187164    0.635283    0.685318    11.00000    0.01643    0.02010 =
         0.02241    0.00153    0.00232    0.00472
C3    1    0.326722    0.736472    0.666329    11.00000    0.01322    0.01958 =
         0.01998    0.00107   -0.00030    0.00355
C4    1    0.314414    0.828036    0.713749    11.00000    0.02235    0.02256 =
         0.01986   -0.00221   -0.00055    0.00437
AFIX  43
H4    2    0.210461    0.831436    0.770274    11.00000   -1.20000
AFIX   0
C5    1    0.460363    0.914537    0.675165    11.00000    0.02334    0.01926 =
         0.02936   -0.00527   -0.00534    0.00169
AFIX  43
H5    2    0.462866    0.977595    0.706656    11.00000   -1.20000
AFIX   0
C6    1    0.601544    0.909507    0.591524    11.00000    0.01594    0.01844 =
         0.02879    0.00241   -0.00226   -0.00151
AFIX  43
H6    2    0.695485    0.969653    0.566094    11.00000   -1.20000
AFIX   0
C7    1    0.608759    0.817709    0.543672    11.00000    0.01692    0.02092 =
         0.01616    0.00418   -0.00015    0.00143
C8    1    0.473313    0.731490    0.582299    11.00000    0.01361    0.01585 =
         0.01985   -0.00106   -0.00145    0.00188
HKLF 4
REM  UMD614_a.res in P2(1)/c
REM R1 =  0.0286 for    1231 Fo > 4sig(Fo)  and  0.0344 for all    1374 data
REM    112 parameters refined using      1 restraints
END
WGHT      0.0305      1.3045
REM Instructions for potential hydrogen bonds
HTAB N1 O1_$1
REM Highest difference peak  0.686,  deepest hole -0.371,  1-sigma level  0.094
Q1    1   0.7889  0.8157  0.4896  11.00000  0.05    0.69
Q2    1   0.8050  0.8150  0.3586  11.00000  0.05    0.59
Q3    1   0.5613  0.7897  0.4079  11.00000  0.05    0.42
Q4    1   1.0247  0.8374  0.4186  11.00000  0.05    0.42
Q5    1   0.0527  0.4454  0.5868  11.00000  0.05    0.39
;
_shelx_res_checksum              42309
_shelxl_version_number           2014/6
loop_
_space_group_symop_operation_xyz
'x, y, z'
'-x, y+1/2, -z+1/2'
'-x, -y, -z'
'x, -y-1/2, z-1/2'
loop_
_atom_site_type_symbol
_atom_site_label
_atom_site_fract_x
_atom_site_fract_y
_atom_site_fract_z
_atom_site_U_iso_or_equiv
_atom_site_adp_type
_atom_site_calc_flag
_atom_site_occupancy
Br Br1 0.78559(9) 0.81463(3) 0.42774(2) 0.02233(14) Uani d 1
O O1 0.2403(7) 0.47659(19) 0.59756(17) 0.0310(6) Uani d 1
O O2 0.0200(7) 0.6053(2) 0.74584(16) 0.0261(6) Uani d 1
N N1 0.4553(8) 0.6310(2) 0.54806(19) 0.0210(6) Uani d 1
H H1 0.553(9) 0.614(3) 0.5007(18) 0.025 Uiso d 1
C C1 0.2953(9) 0.5674(3) 0.6052(2) 0.0209(7) Uani d 1
C C2 0.1872(9) 0.6353(3) 0.6853(2) 0.0196(7) Uani d 1
C C3 0.3267(8) 0.7365(3) 0.6663(2) 0.0176(7) Uani d 1
C C4 0.3144(9) 0.8280(3) 0.7137(2) 0.0216(7) Uani d 1
H H4 0.2105 0.8314 0.7703 0.026 Uiso calc 1
C C5 0.4604(9) 0.9145(3) 0.6752(2) 0.0241(8) Uani d 1
H H5 0.4629 0.9776 0.7067 0.029 Uiso calc 1
C C6 0.6015(9) 0.9095(3) 0.5915(2) 0.0211(7) Uani d 1
H H6 0.6955 0.9697 0.5661 0.025 Uiso calc 1
C C7 0.6088(9) 0.8177(2) 0.5437(2) 0.0180(7) Uani d 1
C C8 0.4733(8) 0.7315(2) 0.5823(2) 0.0165(7) Uani d 1
loop_
_atom_site_aniso_label
_atom_site_aniso_U_11
_atom_site_aniso_U_22
_atom_site_aniso_U_33
_atom_site_aniso_U_12
_atom_site_aniso_U_13
_atom_site_aniso_U_23
Br1 0.0209(2) 0.0246(2) 0.0218(2) -0.00089(15) 0.00512(13) 0.00333(14)
O1 0.0463(17) 0.0174(13) 0.0300(14) -0.0051(12) 0.0133(12) -0.0004(11)
O2 0.0329(14) 0.0209(13) 0.0251(14) 0.0032(11) 0.0116(11) 0.0045(10)
N1 0.0292(16) 0.0165(15) 0.0179(15) 0.0000(13) 0.0091(12) -0.0006(12)
C1 0.0243(18) 0.0176(18) 0.0211(17) 0.0046(15) 0.0039(14) 0.0002(14)
C2 0.0164(16) 0.0201(18) 0.0224(18) 0.0047(14) 0.0023(14) 0.0015(14)
C3 0.0132(16) 0.0196(18) 0.0200(17) 0.0035(13) -0.0003(13) 0.0011(13)
C4 0.0223(17) 0.0226(19) 0.0199(17) 0.0044(15) -0.0006(14) -0.0022(14)
C5 0.0233(18) 0.0193(17) 0.029(2) 0.0017(15) -0.0053(15) -0.0053(15)
C6 0.0159(16) 0.0184(17) 0.0288(19) -0.0015(14) -0.0023(14) 0.0024(14)
C7 0.0169(15) 0.0209(18) 0.0162(16) 0.0014(14) -0.0002(13) 0.0042(13)
C8 0.0136(15) 0.0159(16) 0.0199(17) 0.0019(13) -0.0014(13) -0.0011(13)
loop_
_atom_type_symbol
_atom_type_description
_atom_type_scat_dispersion_real
_atom_type_scat_dispersion_imag
_atom_type_scat_source
C C 0.0033 0.0016 'International Tables Vol C Tables 4.2.6.8 and 6.1.1.4'
H H 0.0000 0.0000 'International Tables Vol C Tables 4.2.6.8 and 6.1.1.4'
N N 0.0061 0.0033 'International Tables Vol C Tables 4.2.6.8 and 6.1.1.4'
O O 0.0106 0.0060 'International Tables Vol C Tables 4.2.6.8 and 6.1.1.4'
Br Br -0.2901 2.4595 'International Tables Vol C Tables 4.2.6.8 and 6.1.1.4'
loop_
_geom_angle_atom_site_label_1
_geom_angle_atom_site_label_2
_geom_angle_atom_site_label_3
_geom_angle
C1 N1 H1 126(3)
C1 N1 C8 111.0(3)
C8 N1 H1 123(3)
O1 C1 N1 128.6(3)
O1 C1 C2 125.5(3)
N1 C1 C2 106.0(3)
O2 C2 C1 124.1(3)
O2 C2 C3 131.0(3)
C3 C2 C1 104.9(3)
C4 C3 C2 131.3(3)
C4 C3 C8 121.4(3)
C8 C3 C2 107.1(3)
C3 C4 H4 121.2
C3 C4 C5 117.6(3)
C5 C4 H4 121.2
C4 C5 H5 119.6
C6 C5 C4 120.8(3)
C6 C5 H5 119.6
C5 C6 H6 119.3
C5 C6 C7 121.4(3)
C7 C6 H6 119.3
C6 C7 Br1 120.3(2)
C8 C7 Br1 121.5(3)
C8 C7 C6 118.2(3)
C3 C8 N1 110.8(3)
C7 C8 N1 128.6(3)
C7 C8 C3 120.6(3)
loop_
_geom_bond_atom_site_label_1
_geom_bond_atom_site_label_2
_geom_bond_distance
Br1 C7 1.888(3)
O1 C1 1.210(4)
O2 C2 1.195(4)
N1 H1 0.846(19)
N1 C1 1.356(4)
N1 C8 1.411(4)
C1 C2 1.562(5)
C2 C3 1.458(5)
C3 C4 1.394(5)
C3 C8 1.399(5)
C4 H4 0.9500
C4 C5 1.396(5)
C5 H5 0.9500
C5 C6 1.385(5)
C6 H6 0.9500
C6 C7 1.399(5)
C7 C8 1.377(5)
loop_
_geom_hbond_atom_site_label_D
_geom_hbond_atom_site_label_H
_geom_hbond_atom_site_label_A
_geom_hbond_site_symmetry_A
_geom_hbond_distance_DH
_geom_hbond_distance_HA
_geom_hbond_distance_DA
_geom_hbond_angle_DHA
N1 H1 O1 3_666 0.846(19) 2.07(2) 2.878(4) 161(4)
loop_
_geom_torsion_atom_site_label_1
_geom_torsion_atom_site_label_2
_geom_torsion_atom_site_label_3
_geom_torsion_atom_site_label_4
_geom_torsion
Br1 C7 C8 N1 3.0(5)
Br1 C7 C8 C3 -176.6(2)
O1 C1 C2 O2 -4.3(6)
O1 C1 C2 C3 176.9(4)
O2 C2 C3 C4 1.6(6)
O2 C2 C3 C8 -174.4(4)
N1 C1 C2 O2 175.1(3)
N1 C1 C2 C3 -3.7(4)
C1 N1 C8 C3 1.1(4)
C1 N1 C8 C7 -178.6(3)
C1 C2 C3 C4 -179.7(3)
C1 C2 C3 C8 4.3(3)
C2 C3 C4 C5 -176.8(3)
C2 C3 C8 N1 -3.5(4)
C2 C3 C8 C7 176.1(3)
C3 C4 C5 C6 2.0(5)
C4 C3 C8 N1 180.0(3)
C4 C3 C8 C7 -0.4(5)
C4 C5 C6 C7 -1.2(5)
C5 C6 C7 Br1 177.4(3)
C5 C6 C7 C8 -0.5(5)
C6 C7 C8 N1 -179.1(3)
C6 C7 C8 C3 1.2(5)
C8 N1 C1 O1 -179.0(4)
C8 N1 C1 C2 1.7(4)
C8 C3 C4 C5 -1.3(5)

_cod_database_fobs_code 1542529
