#------------------------------------------------------------------------------
#$Date: 2016-03-04 10:19:48 +0200 (Fri, 04 Mar 2016) $
#$Revision: 177308 $
#$URL: svn://www.crystallography.net/cod/cif/1/54/26/1542658.cif $
#------------------------------------------------------------------------------
#
# This file is available in the Crystallography Open Database (COD),
# http://www.crystallography.net/
#
# All data on this site have been placed in the public domain by the
# contributors.
#
data_1542658
loop_
_publ_author_name
'Yamamura, Masaki'
'Hasegawa, Toru'
'Nabeshima, Tatsuya'
_publ_section_title
;
 Synthesis of Phosphorus-Centered and Chalcogen-Bridged Concave Molecules:
 Modulation of Bowl Geometries and Packing Structures by Changing Bridging
 Atoms.
;
_journal_issue                   4
_journal_name_full               'Organic letters'
_journal_page_first              816
_journal_page_last               819
_journal_paper_doi               10.1021/acs.orglett.6b00105
_journal_volume                  18
_journal_year                    2016
_chemical_formula_sum            'C18 H9 P S3'
_chemical_formula_weight         352.40
_chemical_name_systematic
;
 ?
;
_space_group_crystal_system      triclinic
_space_group_IT_number           2
_space_group_name_Hall           '-P 1'
_space_group_name_H-M_alt        'P -1'
_symmetry_space_group_name_Hall  '-P 1'
_symmetry_space_group_name_H-M   'P -1'
_atom_sites_solution_hydrogens   geom
_audit_creation_method           SHELXL-2014
_cell_angle_alpha                86.043(4)
_cell_angle_beta                 89.121(4)
_cell_angle_gamma                81.767(4)
_cell_formula_units_Z            2
_cell_length_a                   3.9829(3)
_cell_length_b                   10.6559(7)
_cell_length_c                   17.2702(11)
_cell_measurement_reflns_used    1524
_cell_measurement_temperature    120(2)
_cell_measurement_theta_max      28.14
_cell_measurement_theta_min      2.64
_cell_volume                     723.68(9)
_computing_cell_refinement       'Bruker SAINT'
_computing_data_collection       'Bruker APEX2'
_computing_data_reduction        'Bruker SAINT'
_computing_molecular_graphics    'Bruker SHELXTL'
_computing_publication_material  'Bruker SHELXTL'
_computing_structure_refinement  'SHELXL-97 (Sheldrick, 2008)'
_computing_structure_solution    'SHELXS-97 (Sheldrick, 2008)'
_diffrn_ambient_temperature      120(2)
_diffrn_measured_fraction_theta_full 1.000
_diffrn_measured_fraction_theta_max 0.909
_diffrn_measurement_device_type  'Bruker APEX-II CCD'
_diffrn_measurement_method       '\f and \w scans'
_diffrn_radiation_monochromator  graphite
_diffrn_radiation_source         'fine-focus sealed tube'
_diffrn_radiation_type           MoK\a
_diffrn_radiation_wavelength     0.71073
_diffrn_reflns_av_R_equivalents  0.0213
_diffrn_reflns_av_unetI/netI     0.0234
_diffrn_reflns_laue_measured_fraction_full 1.000
_diffrn_reflns_laue_measured_fraction_max 0.909
_diffrn_reflns_limit_h_max       5
_diffrn_reflns_limit_h_min       -5
_diffrn_reflns_limit_k_max       14
_diffrn_reflns_limit_k_min       -13
_diffrn_reflns_limit_l_max       22
_diffrn_reflns_limit_l_min       -22
_diffrn_reflns_number            10843
_diffrn_reflns_point_group_measured_fraction_full 1.000
_diffrn_reflns_point_group_measured_fraction_max 0.909
_diffrn_reflns_theta_full        25.242
_diffrn_reflns_theta_max         29.063
_diffrn_reflns_theta_min         1.182
_exptl_absorpt_coefficient_mu    0.613
_exptl_absorpt_correction_T_max  0.896
_exptl_absorpt_correction_T_min  0.812
_exptl_absorpt_correction_type   empirical
_exptl_crystal_colour            colorless
_exptl_crystal_density_diffrn    1.617
_exptl_crystal_description       block
_exptl_crystal_F_000             360
_exptl_crystal_size_max          0.200
_exptl_crystal_size_mid          0.100
_exptl_crystal_size_min          0.100
_refine_diff_density_max         0.389
_refine_diff_density_min         -0.258
_refine_diff_density_rms         0.059
_refine_ls_extinction_method     none
_refine_ls_goodness_of_fit_ref   1.033
_refine_ls_hydrogen_treatment    constr
_refine_ls_matrix_type           full
_refine_ls_number_parameters     199
_refine_ls_number_reflns         3537
_refine_ls_number_restraints     0
_refine_ls_restrained_S_all      1.033
_refine_ls_R_factor_all          0.0329
_refine_ls_R_factor_gt           0.0275
_refine_ls_shift/su_max          0.001
_refine_ls_shift/su_mean         0.000
_refine_ls_structure_factor_coef Fsqd
_refine_ls_weighting_details
'w=1/[\s^2^(Fo^2^)+(0.0100P)^2^+0.8000P] where P=(Fo^2^+2Fc^2^)/3'
_refine_ls_weighting_scheme      calc
_refine_ls_wR_factor_gt          0.0570
_refine_ls_wR_factor_ref         0.0593
_reflns_Friedel_coverage         0.000
_reflns_number_gt                3142
_reflns_number_total             3537
_reflns_threshold_expression     'I > 2\s(I)'
_cod_data_source_file            ol6b00105_si_008.cif
_cod_data_source_block           PS3sec_0m_a
_cod_database_code               1542658
_shelx_space_group_comment
;
The symmetry employed for this shelxl refinement is uniquely defined
by the following loop, which should always be used as a source of
symmetry information in preference to the above space-group names.
They are only intended as comments.
;
_shelx_estimated_absorpt_t_min   0.887
_shelx_estimated_absorpt_t_max   0.941
_shelxl_version_number           2014-3
_shelx_res_file
;
TITL PS3sec_0m_a.res
REM  Yadorkari-X generated
CELL 0.71073 3.9829 10.6559 17.2702 86.0430 89.1210 81.7670
ZERR 2.0 0.0003 0.0007 0.0011 0.0040 0.0040 0.0040
LATT 1
REM  SPGR P-1 triclinic
SFAC C H P S
UNIT 36 18 2 6
SIZE 0.20 0.10 0.10
TEMP -153.0
L.S. 50
FMAP 2
PLAN -20
ACTA

WGHT    0.010000    0.800000
FVAR       0.78119
P1    3    0.358599    0.702239    0.746825    11.00000    0.00905    0.01283 =
         0.01159   -0.00090   -0.00009   -0.00187
S1    4    0.605960    0.484464    0.627059    11.00000    0.02007    0.01690 =
         0.01395   -0.00457   -0.00053   -0.00565
S2    4    0.546212    0.627083    0.928639    11.00000    0.01829    0.01667 =
         0.01096   -0.00025    0.00233   -0.00323
S3    4    0.438870    0.994135    0.684308    11.00000    0.01940    0.01289 =
         0.01837    0.00168   -0.00135    0.00131
C1    1    0.625693    0.553543    0.778213    11.00000    0.00885    0.01164 =
         0.01464    0.00058    0.00018   -0.00337
C2    1    0.563839    0.739200    0.654182    11.00000    0.00891    0.01649 =
         0.01075    0.00068   -0.00225   -0.00149
C3    1    0.607571    0.777650    0.885610    11.00000    0.01108    0.01409 =
         0.01481   -0.00199    0.00230   -0.00074
C4    1    0.529270    0.812227    0.807720    11.00000    0.00831    0.01353 =
         0.01487   -0.00295    0.00155   -0.00002
C5    1    0.600985    0.864357    0.629571    11.00000    0.01130    0.01664 =
         0.01399   -0.00002   -0.00262   -0.00036
C6    1    0.709726    0.524655    0.856301    11.00000    0.01129    0.01246 =
         0.01485   -0.00156    0.00205   -0.00420
C7    1    0.930632    0.347179    0.749501    11.00000    0.01724    0.01240 =
         0.02193   -0.00307    0.00295   -0.00352
AFIX  43
H1    2    1.006344    0.286553    0.712902    11.00000   -1.20000
AFIX   0
C8    1    0.805611    0.672963    0.530749    11.00000    0.01768    0.02379 =
         0.01164   -0.00242   -0.00130   -0.00110
AFIX  43
H2    2    0.872795    0.607401    0.496759    11.00000   -1.20000
AFIX   0
C9    1    0.670293    1.022416    0.827375    11.00000    0.01585    0.01376 =
         0.02454   -0.00402    0.00268   -0.00215
AFIX  43
H3    2    0.694879    1.105771    0.807057    11.00000   -1.20000
AFIX   0
C10   1    0.734956    0.462274    0.725178    11.00000    0.01302    0.01411 =
         0.01440   -0.00168    0.00148   -0.00575
C11   1    0.667778    0.643926    0.603572    11.00000    0.01183    0.01748 =
         0.01300   -0.00053   -0.00306   -0.00267
C12   1    0.714887    0.863719    0.933848    11.00000    0.01703    0.02136 =
         0.01485   -0.00533   -0.00048   -0.00120
AFIX  43
H4    2    0.768520    0.838463    0.986560    11.00000   -1.20000
AFIX   0
C13   1    0.746355    0.892863    0.557724    11.00000    0.01613    0.01954 =
         0.01687    0.00611   -0.00263   -0.00328
AFIX  43
H5    2    0.778323    0.977828    0.542747    11.00000   -1.20000
AFIX   0
C14   1    0.560942    0.936275    0.779502    11.00000    0.01060    0.01419 =
         0.01571   -0.00161    0.00110   -0.00003
C15   1    1.014009    0.321722    0.827303    11.00000    0.01612    0.01321 =
         0.02581    0.00310   -0.00099   -0.00125
AFIX  43
H6    2    1.146430    0.243385    0.843880    11.00000   -1.20000
AFIX   0
C16   1    0.905098    0.409996    0.880965    11.00000    0.01533    0.01645 =
         0.01626    0.00318   -0.00086   -0.00439
AFIX  43
H7    2    0.963136    0.392504    0.934153    11.00000   -1.20000
AFIX   0
C17   1    0.742955    0.986276    0.904547    11.00000    0.01971    0.01935 =
         0.02224   -0.01092    0.00060   -0.00317
AFIX  43
H8    2    0.812156    1.045546    0.937476    11.00000   -1.20000
AFIX   0
C18   1    0.844195    0.797182    0.508168    11.00000    0.01923    0.02823 =
         0.01226    0.00445    0.00006   -0.00356
AFIX  43
H9    2    0.937836    0.816922    0.458652    11.00000   -1.20000

AFIX   0
HKLF 4

REM  PS3sec_0m_a.res
REM R1 =  0.0275 for    3142 Fo > 4sig(Fo)  and  0.0329 for all    3537 data
REM    199 parameters refined using      0 restraints

END

WGHT      0.0297      0.5147

REM Highest difference peak  0.389,  deepest hole -0.258,  1-sigma level  0.059
Q1    1   0.4967  0.6186  0.7597  11.00000  0.05    0.39
Q2    1   0.6226  0.5655  0.8844  11.00000  0.05    0.36
Q3    1   0.4933  0.9599  0.7388  11.00000  0.05    0.36
Q4    1   0.7286  0.5442  0.8138  11.00000  0.05    0.35
Q5    1   0.5459  0.7154  0.9046  11.00000  0.05    0.34
Q6    1   0.9045  0.3288  0.7913  11.00000  0.05    0.33
Q7    1   0.8018  0.3911  0.7411  11.00000  0.05    0.32
Q8    1   0.5826  0.8285  0.9139  11.00000  0.05    0.32
Q9    1   0.4969  0.7714  0.7772  11.00000  0.05    0.32
Q10   1   0.7926  0.8379  0.5358  11.00000  0.05    0.31
Q11   1   0.6291  0.8004  0.6407  11.00000  0.05    0.31
Q12   1   0.8642  0.4795  0.8611  11.00000  0.05    0.30
Q13   1   0.6630  0.9995  0.8682  11.00000  0.05    0.30
Q14   1   0.4545  0.7395  0.6965  11.00000  0.05    0.30
Q15   1   0.7723  0.9193  0.9092  11.00000  0.05    0.29
Q16   1   0.6704  0.5079  0.7539  11.00000  0.05    0.28
Q17   1   0.5263  0.8096  0.8494  11.00000  0.05    0.28
Q18   1   0.4698  0.8851  0.7925  11.00000  0.05    0.28
Q19   1   0.6409  0.6864  0.6303  11.00000  0.05    0.28
Q20   1   0.7588  0.7387  0.5218  11.00000  0.05    0.27
;
_shelx_res_checksum              57040
_shelx_hkl_file
;
  -1   0   0 7207.58  128.59
  -1   0   0 6876.31  125.59
  -1   0   0 7212.48  123.99
  -1   0   0 6949.20  128.09
   1   0   0 7325.67  124.79
   1   0   0 7080.19  127.89
   1   0   0 6903.91  126.99
  -2   0   0  174.68    5.50
  -2   0   0  170.38    5.00
  -2   0   0  166.48    5.50
  -2   0   0  170.38    4.80
   2   0   0  164.58    5.70
   2   0   0  180.78    5.40
   2   0   0  166.48    4.60
  -3   0   0  117.19    4.90
  -3   0   0  155.68    5.20
  -3   0   0  134.79    5.80
  -3   0   0  159.68    6.20
   3   0   0  157.68    5.00
   3   0   0  120.69    4.50
   3   0   0  144.39    5.70
   3   0   0  152.88    6.40
  -4   0   0  109.99    6.10
  -4   0   0  115.29    6.30
   4   0   0  101.69    5.80
   4   0   0  102.69    6.50
  -5   0   0   60.09    6.10
   5   0   0   66.09    5.60
   5  -1   0   93.99    6.30
  -5   1   0   78.39    6.70
   4  -1   0   40.70    4.90
   4  -1   0   40.30    3.90
  -4   1   0   42.20    4.70
  -4   1   0   32.70    3.90
   3  -1   0   56.69    4.50
   3  -1   0   54.89    3.10
   3  -1   0   56.59    3.60
   3  -1   0   56.99    3.10
  -3   1   0   59.29    3.50
  -3   1   0   58.19    3.90
  -3   1   0   54.79    4.10
  -3   1   0   53.19    3.80
   2  -1   0   92.09    3.30
   2  -1   0   89.39    3.60
   2  -1   0   91.39    4.40
  -2   1   0   92.09    3.40
  -2   1   0   97.29    3.90
  -2   1   0   89.29    3.80
  -2   1   0   96.79    4.20
   1  -1   0  326.17    7.60
   1  -1   0  327.07    6.80
  -1   1   0  324.07    6.90
  -1   1   0  327.27    6.70
  -1   1   0  330.57    7.40
  -1   1   0  329.27    7.20
   0   1   0  474.45    8.30
   0   1   0  461.15    8.40
   0   1   0  444.66    8.30
  -1  -1   0 1160.48   20.00
  -1  -1   0 1123.19   21.00
   1   1   0 1113.89   20.90
   1   1   0 1139.59   21.00
   1   1   0 1141.19   20.50
   1   1   0 1164.78   19.80
  -2  -1   0   11.90    1.80
  -2  -1   0   11.70    1.60
  -2  -1   0   12.10    1.80
  -2  -1   0   10.80    1.30
   2   1   0    7.90    1.70
   2   1   0   10.30    1.30
   2   1   0   11.30    1.70
   2   1   0   11.50    1.00
  -3  -1   0  208.88    7.40
  -3  -1   0  198.18    7.00
   3   1   0  207.08    6.00
   3   1   0  196.58    7.20
   3   1   0  203.18    7.00
  -4  -1   0  654.33   17.20
   4   1   0  664.53   17.20
   4   1   0  649.83   16.70
  -5  -1   0  173.08    9.10
   5   1   0  174.38    8.50
   4  -2   0  112.69    7.10
   4  -2   0  101.99    5.60
  -4   2   0   96.99    6.30
  -4   2   0  103.79    6.00
   3  -2   0    0.90    1.30
   3  -2   0    0.50    1.30
   3  -2   0    0.00    1.90
  -3   2   0   -1.00    1.60
  -3   2   0    1.20    1.50
  -3   2   0    1.10    1.70
  -3   2   0   -0.40    1.50
   2  -2   0    4.50    1.20
   2  -2   0    2.20    1.70
  -2   2   0    3.50    1.30
  -2   2   0    4.00    1.70
  -2   2   0    2.20    1.60
  -2   2   0    2.60    1.30
   1  -2   0   70.79    2.20
  -1   2   0   67.29    2.90
  -1   2   0   69.19    2.30
  -1   2   0   72.09    2.50
  -1   2   0   72.89    3.00
   0  -2   0  719.43   14.40
   0   2   0  853.71   14.90
   0   2   0  848.22   14.90
   0   2   0  836.92   15.10
  -1  -2   0 2325.17   41.50
   1   2   0 2324.97   41.00
   1   2   0 2386.16   41.50
   1   2   0 2312.47   41.10
  -2  -2   0   43.20    1.70
  -2  -2   0   46.60    2.90
   2   2   0   45.10    1.50
   2   2   0   46.60    2.30
   2   2   0   41.10    2.70
   2   2   0   44.90    2.90
  -3  -2   0    0.10    1.60
   3   2   0   -0.50    1.60
   3   2   0    0.30    1.20
   3   2   0    1.20    1.00
  -4  -2   0   20.60    3.60
   4   2   0   17.30    2.90
  -5  -2   0   12.20    3.90
   5   2   0   10.50    3.00
   4  -3   0   10.70    3.50
  -4   3   0    5.20    2.60
   3  -3   0   15.60    2.10
   3  -3   0   14.00    2.10
   3  -3   0    8.90    2.80
  -3   3   0   13.80    2.40
  -3   3   0   11.60    2.60
  -3   3   0   15.70    2.40
  -3   3   0   10.70    2.80
   2  -3   0    1.50    1.70
   2  -3   0    0.60    0.80
  -2   3   0    0.80    1.40
  -2   3   0    0.50    1.50
  -2   3   0    0.50    1.00
  -2   3   0    0.40    1.00
   1  -3   0   18.70    1.00
  -1   3   0   19.30    2.20
  -1   3   0   17.10    1.10
  -1   3   0   19.50    1.80
  -1   3   0   20.90    2.10
   0  -3   0  845.62   15.20
   0   3   0  876.51   16.30
   0   3   0  864.21   16.20
   0   3   0  856.91   15.20
   0   3   0  892.31   16.60
  -1  -3   0  136.29    4.00
   1   3   0  137.79    3.70
   1   3   0  140.89    3.10
   1   3   0  132.49    3.70
   1   3   0  133.69    3.90
  -2  -3   0 1317.77   25.90
   2   3   0 1339.17   25.80
   2   3   0 1296.97   24.60
   2   3   0 1317.27   25.10
  -3  -3   0    1.30    1.70
   3   3   0    5.30    1.80
   3   3   0    0.90    1.50
   3   3   0    5.40    1.40
  -4  -3   0   11.80    3.10
   4   3   0    8.90    2.60
  -5  -3   0   -3.60    2.70
   5   3   0    0.90    2.40
   4  -4   0  174.88    9.40
  -4   4   0  176.68    8.70
  -4   4   0  170.88    8.80
   3  -4   0    2.10    2.30
  -3   4   0   -0.30    2.20
  -3   4   0    0.20    1.60
  -3   4   0    0.30    1.90
   2  -4   0  108.09    3.50
  -2   4   0  112.79    4.40
  -2   4   0  104.19    5.20
  -2   4   0  111.79    3.80
  -2   4   0  105.79    5.20
   1  -4   0 1062.29   18.80
  -1   4   0 1071.79   21.30
  -1   4   0 1054.89   21.50
  -1   4   0 1076.99   20.70
   0  -4   0  392.56    7.30
   0   4   0  394.86    7.30
   0   4   0  408.36    8.80
   0   4   0  404.96    9.10
   0   4   0  410.06    8.80
  -1  -4   0  272.87    6.60
   1   4   0  281.07    6.50
   1   4   0  277.07    6.60
   1   4   0  283.17    6.00
   1   4   0  281.77    6.60
  -2  -4   0  274.07    7.80
   2   4   0  278.77    7.10
   2   4   0  280.47    7.80
   2   4   0  274.77    7.00
  -3  -4   0  244.78    8.50
   3   4   0  245.98    8.20
   3   4   0  238.18    6.90
   3   4   0  246.38    7.50
  -4  -4   0   33.60    4.10
   4   4   0   34.00    4.10
  -5  -4   0   -0.20    2.90
   5   4   0   -0.50    2.00
   4  -5   0  112.29    6.30
   4  -5   0  121.69    8.40
  -4   5   0  109.79    7.70
  -4   5   0  109.99    7.60
   3  -5   0  499.65   15.60
  -3   5   0  513.75   15.00
  -3   5   0  488.85   12.80
  -3   5   0  519.75   14.80
  -2   5   0  674.53   16.50
  -2   5   0  664.23   15.00
  -2   5   0  691.23   16.60
   1  -5   0  349.37    6.40
  -1   5   0  354.36    8.90
  -1   5   0  349.07    9.30
  -1   5   0  353.36    9.70
   0  -5   0    1.10    0.40
   0   5   0    0.00    1.00
   0   5   0    1.10    0.40
   0   5   0   -1.00    1.20
   0   5   0    1.10    1.10
  -1  -5   0  145.79    4.40
   1   5   0  143.89    4.60
   1   5   0  154.08    4.50
   1   5   0  143.49    4.30
   1   5   0  145.09    4.20
  -2  -5   0   43.30    3.10
   2   5   0   46.60    3.10
   2   5   0   49.40    3.00
   2   5   0   47.20    2.70
  -3  -5   0  493.75   13.40
   3   5   0  504.35   13.20
   3   5   0  494.25   12.00
   3   5   0  495.55   11.70
  -4  -5   0   34.70    4.50
   4   5   0   46.00    4.90
  -5  -5   0   34.40    6.60
   5   5   0   29.90    4.60
   4  -6   0   47.50    5.10
   4  -6   0   61.69    7.40
  -4   6   0   58.39    6.50
  -4   6   0   42.30    5.70
   3  -6   0  268.77   11.20
  -3   6   0  233.58   10.00
  -3   6   0  259.47   10.40
  -3   6   0  248.88    8.50
  -2   6   0  144.39    5.80
  -2   6   0  148.49    6.80
  -2   6   0  135.09    6.60
  -1   6   0   19.10    2.60
  -1   6   0   18.00    2.40
  -1   6   0   12.30    2.40
   0   6   0 1569.14   30.80
   0   6   0 1621.84   30.40
   0   6   0 1609.44   30.40
  -1  -6   0  857.91   17.00
   1   6   0  863.71   17.20
   1   6   0  879.01   17.40
   1   6   0  862.01   17.60
   1   6   0  864.91   16.90
  -2  -6   0  436.46   11.10
   2   6   0  444.56   10.90
   2   6   0  443.76   10.40
   2   6   0  442.86   10.50
  -3  -6   0   79.09    5.10
   3   6   0   79.99    4.00
   3   6   0   76.49    4.40
   3   6   0   74.09    4.70
  -4  -6   0   60.19    5.30
   4   6   0   53.79    4.60
   4  -7   0    2.00    3.60
   4  -7   0   -1.60    2.90
  -4   7   0    2.60    3.70
  -4   7   0   -1.50    2.70
   3  -7   0    5.70    3.10
  -3   7   0    5.00    2.60
  -3   7   0    1.80    2.60
  -3   7   0    5.40    3.70
  -2   7   0  172.58    6.70
  -2   7   0  152.88    7.20
  -2   7   0  163.28    7.60
  -1   7   0  183.28    6.80
  -1   7   0  170.78    6.40
  -1   7   0  173.58    7.20
   0   7   0   10.50    2.00
   0   7   0   10.10    2.00
   0   7   0    8.00    1.90
  -1  -7   0   88.39    3.40
   1   7   0   92.69    3.90
   1   7   0   95.49    4.10
   1   7   0   90.39    3.30
   1   7   0   88.09    4.10
  -2  -7   0  855.91   18.60
   2   7   0  850.51   17.90
   2   7   0  869.41   18.40
   2   7   0  876.41   18.40
  -3  -7   0  401.26   11.80
   3   7   0  380.96   11.20
   3   7   0  384.56   10.40
  -4  -7   0   56.29    5.60
   4   7   0   52.79    4.60
   3  -8   0   52.59    6.80
  -3   8   0   54.29    5.60
  -3   8   0   58.79    5.40
  -3   8   0   58.29    6.50
  -2   8   0  168.68    7.20
  -2   8   0  168.98    8.50
  -2   8   0  174.88    8.20
  -1   8   0  933.71   21.30
  -1   8   0  917.11   20.60
  -1   8   0  941.41   21.80
   0   8   0  399.26   11.30
   0   8   0  418.66   11.00
   0   8   0  402.76   10.90
   1   8   0  200.48    6.60
   1   8   0  205.28    6.90
   1   8   0  208.68    6.80
  -2  -8   0   22.00    2.60
   2   8   0   16.90    2.30
   2   8   0   20.90    2.70
   2   8   0   20.60    2.70
  -3  -8   0   19.10    3.20
   3   8   0   20.70    2.80
   3   8   0   23.60    3.20
  -4  -8   0   43.60    5.10
   4   8   0   51.59    4.90
   3  -9   0    1.80    3.10
  -3   9   0   -1.20    2.60
  -3   9   0    4.00    3.70
  -3   9   0   -4.20    2.40
  -2   9   0  128.09    8.10
  -2   9   0  141.09    7.80
  -2   9   0  146.79    7.10
  -1   9   0  147.69    7.00
  -1   9   0  142.29    7.50
  -1   9   0  149.49    6.80
   0   9   0   33.00    3.70
   0   9   0   30.90    3.70
   0   9   0   38.40    3.80
   1   9   0   -0.50    1.90
   1   9   0   -0.90    1.50
   2   9   0    4.50    2.10
   2   9   0    2.10    1.90
  -3  -9   0    1.80    2.00
   3   9   0    2.90    2.00
   3   9   0    0.70    1.70
  -4  -9   0    2.70    2.70
   4   9   0    1.20    2.10
  -3  10   0   27.00    6.90
  -3  10   0   21.30    6.60
  -2  10   0   16.10    3.60
  -2  10   0   13.10    3.80
  -2  10   0    6.50    3.50
  -1  10   0   25.00    3.80
  -1  10   0   29.40    3.90
  -1  10   0   37.10    4.90
   0  10   0  283.97   10.10
   0  10   0  273.87    9.60
   0  10   0  278.77    9.50
   1  10   0  231.08    8.30
   1  10   0  225.98    8.40
   2  10   0   11.50    2.50
   2  10   0   14.30    3.00
   3  10   0   36.00    3.90
  -4 -10   0   85.29    7.00
   4  10   0   85.69    6.00
  -2  11   0  426.96   15.40
  -2  11   0  471.55   16.40
  -2  11   0  455.25   14.20
  -1  11   0  462.05   14.70
  -1  11   0  440.26   13.80
  -1  11   0  474.55   15.40
   0  11   0   81.99    5.80
   0  11   0   89.29    6.20
   0  11   0   91.99    6.40
   1  11   0   20.20    3.40
   1  11   0   18.50    3.30
   2  11   0  160.38    7.40
   2  11   0  159.58    7.20
   3  11   0    6.50    2.70
  -2  12   0    1.20    3.50
  -1  12   0  112.79    8.30
  -1  12   0  112.89    7.70
  -1  12   0  107.59    7.30
   0  12   0   24.20    4.20
   0  12   0   30.90    4.50
   0  12   0   22.50    4.40
   1  12   0    7.90    3.20
   1  12   0    5.90    2.90
   2  12   0  138.49    7.30
   3  12   0   53.29    5.30
  -1  13   0  229.28   10.70
  -1  13   0  236.58   11.80
  -1  13   0  214.18   10.70
   0  13   0  104.49    7.90
   0  13   0  111.99    7.60
   1  13   0   29.80    4.50
   1  13   0   31.60    4.90
   2  13   0   77.39    6.30
   3  13   0  291.17   16.30
   0  14   0   59.49    7.80
   1  14   0   65.09    6.30
   0  14  -1  101.89    8.30
   2  13  -1   32.50    4.70
   1  13  -1    3.00    2.90
   1  13  -1   -1.00    2.80
   0  13  -1   33.00    5.10
   0  13  -1   40.50    5.10
  -1  13  -1   73.59    7.10
  -1  13  -1   50.49    6.00
  -1  13  -1   60.09    7.00
   3  12  -1    4.90    2.80
   2  12  -1   30.50    4.20
   1  12  -1  198.98    8.60
   1  12  -1  213.18    9.10
   0  12  -1   20.70    4.20
   0  12  -1   14.30    3.50
   0  12  -1   11.00    3.60
  -1  12  -1    1.00    2.90
  -1  12  -1   -0.80    3.00
  -1  12  -1    0.40    3.50
  -2  12  -1    0.90    3.30
   3  11  -1  215.68    8.70
   2  11  -1  241.68    9.10
   1  11  -1  131.99    6.80
   1  11  -1  136.29    6.60
   0  11  -1   45.70    4.90
   0  11  -1   71.59    5.60
   0  11  -1   60.39    5.30
  -1  11  -1    0.50    2.70
  -1  11  -1   -4.40    2.30
  -1  11  -1    0.40    2.90
  -2  11  -1   43.10    6.00
  -2  11  -1   45.50    5.90
  -2  11  -1   40.90    4.90
   4  10  -1   87.19    6.20
  -4 -10   1   79.89    6.70
   3  10  -1    1.50    2.00
   2  10  -1    9.40    2.60
   1  10  -1    3.20    2.10
   1  10  -1    6.20    2.30
   0  10  -1   53.29    4.90
   0  10  -1   51.09    4.60
   0  10  -1   52.09    4.60
  -1  10  -1   46.20    4.80
  -1  10  -1   52.49    5.50
  -1  10  -1   48.50    5.30
  -2  10  -1  183.88    9.90
  -2  10  -1  183.68    9.40
  -2  10  -1  189.98    8.40
   4   9  -1  358.46   12.30
  -4  -9   1  362.96   12.90
   3   9  -1  192.58    7.50
   3   9  -1  192.68    7.60
  -3  -9   1  179.78    7.80
   2   9  -1   78.99    4.50
   2   9  -1   80.49    4.90
   1   9  -1    1.00    1.70
   1   9  -1    1.10    1.80
   1   9  -1    0.50    2.00
   0   9  -1  155.28    6.60
   0   9  -1  149.79    6.50
   0   9  -1  150.28    6.80
  -1   9  -1  170.18    8.10
  -1   9  -1  186.78    8.00
  -1   9  -1  181.18    7.60
  -2   9  -1   18.20    4.20
  -2   9  -1   21.10    3.90
  -2   9  -1   20.00    3.50
  -3   9  -1  179.78   10.10
  -3   9  -1  156.78    9.20
   3  -9   1  162.18   10.20
   4   8  -1   74.89    5.70
  -4  -8   1   66.69    6.10
   3   8  -1   69.09    4.80
   3   8  -1   63.49    4.20
  -3  -8   1   62.39    4.80
   2   8  -1  204.28    6.90
   2   8  -1  215.08    6.80
   2   8  -1  217.98    7.30
  -2  -8   1  211.98    7.10
   1   8  -1   36.40    3.30
   1   8  -1   29.90    3.00
   1   8  -1   33.80    3.00
   0   8  -1  175.48    6.50
   0   8  -1  171.28    6.40
   0   8  -1  171.28    6.80
  -1   8  -1  169.48    7.60
  -1   8  -1  175.98    7.00
  -1   8  -1  160.68    7.10
  -2   8  -1  171.58    7.20
  -2   8  -1  173.68    8.20
  -2   8  -1  174.88    8.50
  -3   8  -1   83.29    7.40
  -3   8  -1   76.69    6.70
   3  -8   1   95.49    7.80
   4   7  -1   15.40    3.10
  -4  -7   1   13.20    3.40
   3   7  -1  168.78    7.00
   3   7  -1  170.98    6.40
  -3  -7   1  166.48    7.30
   2   7  -1   77.49    4.00
   2   7  -1   73.79    4.00
   2   7  -1   73.99    3.80
  -2  -7   1   72.69    4.00
   1   7  -1  102.49    4.40
   1   7  -1   93.79    4.00
   1   7  -1   90.89    3.50
   1   7  -1   96.79    4.10
  -1  -7   1   93.89    3.60
   0   7  -1   12.50    2.20
   0   7  -1    8.50    1.80
   0   7  -1   13.70    2.40
  -1   7  -1  700.13   16.20
  -1   7  -1  722.33   17.40
  -1   7  -1  717.73   16.90
  -2   7  -1 1433.26   31.00
  -2   7  -1 1423.56   28.80
  -2   7  -1 1412.46   30.90
  -3   7  -1  490.25   15.50
  -3   7  -1  497.75   15.70
  -3   7  -1  437.86   14.60
   3  -7   1  498.85   16.60
  -4   7  -1   93.49    8.10
  -4   7  -1   99.69    7.90
   4  -7   1   84.99    8.20
   4  -7   1   89.59    6.60
   4   6  -1 1394.66   31.10
  -4  -6   1 1450.15   31.80
   3   6  -1  720.13   16.20
   3   6  -1  719.23   17.50
  -3  -6   1  745.83   17.90
   2   6  -1  202.88    5.90
   2   6  -1  190.18    6.10
   2   6  -1  183.98    6.30
  -2  -6   1  195.98    6.60
   1   6  -1   75.59    3.20
   1   6  -1   68.19    3.00
   1   6  -1   74.59    3.30
   1   6  -1   75.19    3.50
  -1  -6   1   69.39    3.00
   0   6  -1  135.89    4.80
   0   6  -1  137.89    5.20
   0   6  -1  132.19    3.00
   0   6  -1  131.59    4.80
   0  -6   1  129.89    3.00
  -1   6  -1   13.20    2.60
  -1   6  -1   13.60    2.40
  -1   6  -1   15.00    2.40
  -2   6  -1    6.40    2.60
  -2   6  -1    7.40    2.30
  -2   6  -1    2.10    1.80
  -3   6  -1    9.30    2.60
  -3   6  -1    9.30    3.30
  -3   6  -1    5.40    3.10
   3  -6   1    8.10    3.50
  -4   6  -1    4.20    3.70
  -4   6  -1    1.20    2.70
   4  -6   1   -4.60    2.40
   4  -6   1   -1.70    3.00
  -5  -5   1    5.20    5.00
   4   5  -1   43.80    4.70
  -4  -5   1   35.30    4.50
   3   5  -1    2.80    2.00
   3   5  -1    1.80    1.40
   3   5  -1    0.80    1.80
  -3  -5   1    1.60    2.00
   2   5  -1  260.77    7.20
   2   5  -1  270.27    6.80
   2   5  -1  265.07    7.70
  -2  -5   1  266.47    7.80
   1   5  -1  276.77    6.70
   1   5  -1  263.37    6.90
   1   5  -1  267.17    6.50
   1   5  -1  270.27    6.60
  -1  -5   1  265.47    6.70
   0   5  -1  571.34   12.10
   0   5  -1  545.15   12.40
   0   5  -1  570.64   12.00
   0  -5   1  557.24   10.40
  -1   5  -1   16.50    2.50
  -1   5  -1   13.20    2.00
  -1   5  -1   15.70    2.10
   1  -5   1   17.90    0.80
  -2   5  -1   11.80    2.30
  -2   5  -1   10.30    2.50
  -2   5  -1   14.50    2.20
  -3   5  -1    6.40    2.10
  -3   5  -1    3.80    2.30
  -3   5  -1    5.30    2.90
   3  -5   1    1.00    2.60
  -4   5  -1  107.99    7.50
  -4   5  -1  102.29    7.40
   4  -5   1  105.19    6.10
   4  -5   1  108.89    8.20
   5   4  -1   16.60    3.80
  -5  -4   1   20.50    4.50
   4   4  -1    5.30    2.10
  -4  -4   1    6.20    2.60
   3   4  -1    3.20    1.30
   3   4  -1   -0.10    1.60
   3   4  -1    2.90    1.60
  -3  -4   1    0.30    1.90
   2   4  -1 1707.73   31.80
   2   4  -1 1704.33   32.70
   2   4  -1 1733.93   31.40
  -2  -4   1 1682.23   32.80
   1   4  -1  236.98    6.10
   1   4  -1  245.58    5.60
   1   4  -1  243.98    5.70
  -1  -4   1  243.28    6.10
   0   4  -1   82.59    3.30
   0   4  -1   77.09    3.00
   0   4  -1   80.59    3.00
   0  -4   1   80.89    2.10
  -1   4  -1    8.90    1.60
  -1   4  -1    7.30    1.90
  -1   4  -1    9.60    1.90
   1  -4   1    9.20    0.70
  -2   4  -1  328.87    8.30
  -2   4  -1  332.77    9.90
  -2   4  -1  317.37    9.50
   2  -4   1  313.97    7.30
  -3   4  -1  567.04   13.10
  -3   4  -1  559.84   14.90
  -3   4  -1  513.85   15.10
   3  -4   1  535.85   15.90
  -4   4  -1   99.99    7.20
  -4   4  -1  101.99    7.00
   4  -4   1   93.49    7.40
   5   3  -1   -0.40    2.20
  -5  -3   1    5.60    3.50
   4   3  -1  320.77   10.80
  -4  -3   1  327.67   11.20
   3   3  -1  639.24   15.50
   3   3  -1  632.14   14.40
   3   3  -1  635.34   14.00
  -3  -3   1  632.74   15.60
   2   3  -1 2530.35   46.10
   2   3  -1 2595.54   44.40
   2   3  -1 2507.85   45.90
   2   3  -1 2613.04   47.20
  -2  -3   1 2571.14   47.30
   1   3  -1 1136.29   21.30
   1   3  -1 1138.79   20.50
   1   3  -1 1183.88   20.80
  -1  -3   1 1123.59   21.50
   0   3  -1   58.69    2.60
   0   3  -1   55.29    2.20
   0   3  -1   52.79    2.20
   0  -3   1   54.09    1.60
  -1   3  -1  348.97    7.70
  -1   3  -1  346.57    8.60
  -1   3  -1  348.17    8.50
   1  -3   1  337.87    6.70
  -2   3  -1  549.25   11.80
  -2   3  -1  565.04   11.80
  -2   3  -1  548.85   13.10
  -2   3  -1  535.65   13.50
   2  -3   1  550.24   11.50
   2  -3   1  543.75   14.00
  -3   3  -1  136.19    5.50
  -3   3  -1  138.59    5.30
  -3   3  -1  133.89    6.30
  -3   3  -1  131.99    6.60
   3  -3   1  133.99    5.10
   3  -3   1  133.89    7.20
  -4   3  -1   77.39    6.00
   4  -3   1   77.29    6.60
  -5   3  -1   32.60    5.30
   5   2  -1  138.19    7.80
  -5  -2   1  144.79    8.50
   4   2  -1  197.78    8.20
  -4  -2   1  198.88    8.60
   3   2  -1   18.60    2.20
   3   2  -1   16.70    2.60
   3   2  -1   14.40    2.40
  -3  -2   1   18.10    2.80
   2   2  -1  859.51   17.80
   2   2  -1  851.51   17.10
   2   2  -1  861.91   15.50
   2   2  -1  859.21   16.90
  -2  -2   1  840.62   17.80
   1   2  -1 4754.62   84.99
   1   2  -1 4922.31   82.79
   1   2  -1 4801.82   85.19
  -1  -2   1 4745.12   83.59
   0   2  -1  147.49    3.70
   0   2  -1  155.08    4.10
   0   2  -1  156.48    3.80
   0  -2   1  156.28    3.30
  -1   2  -1   14.90    1.20
  -1   2  -1   14.50    1.30
  -1   2  -1   11.90    1.60
  -1   2  -1   13.00    1.60
   1  -2   1   14.50    1.00
  -2   2  -1  293.37    7.00
  -2   2  -1  293.37    8.00
  -2   2  -1  298.87    8.60
  -2   2  -1  293.67    7.40
   2  -2   1  276.97    8.70
   2  -2   1  287.37    7.20
  -3   2  -1   82.79    4.00
  -3   2  -1   81.99    4.50
  -3   2  -1   81.89    4.80
  -3   2  -1   77.29    5.00
   3  -2   1   84.19    5.60
   3  -2   1   89.89    4.20
  -4   2  -1   19.50    3.70
  -4   2  -1   11.40    3.00
   4  -2   1   13.00    2.80
   4  -2   1   11.10    3.70
  -5   2  -1    1.10    2.80
   5   1  -1   32.60    4.50
  -5  -1   1   22.70    4.30
   4   1  -1   15.50    3.10
  -4  -1   1   16.20    3.30
   3   1  -1   42.00    2.90
   3   1  -1   46.20    3.60
   3   1  -1   41.50    3.60
  -3  -1   1   49.20    3.50
  -3  -1   1   47.20    3.80
   2   1  -1   89.39    3.80
   2   1  -1   86.89    3.30
   2   1  -1   86.69    2.60
   2   1  -1   78.99    3.50
  -2  -1   1   82.89    3.00
  -2  -1   1   91.39    3.50
  -2  -1   1   83.19    3.80
  -2  -1   1   89.99    3.50
   1   1  -1 3989.00   70.99
   1   1  -1 3860.31   69.29
   1   1  -1 4069.49   70.19
  -1  -1   1 4021.80   73.39
  -1  -1   1 4066.39   70.49
   0   1  -1 1918.91   34.60
   0   1  -1 1951.10   34.30
   0   1  -1 1924.21   33.40
   0  -1   1 1890.01   34.20
  -1   1  -1 2165.78   38.80
  -1   1  -1 2136.29   38.50
  -1   1  -1 2201.78   39.30
  -1   1  -1 2178.28   38.10
   1  -1   1 2105.39   39.50
   1  -1   1 2322.97   40.30
  -2   1  -1 1445.86   27.80
  -2   1  -1 1386.36   25.80
  -2   1  -1 1359.26   26.70
  -2   1  -1 1425.86   26.80
   2  -1   1 1368.46   28.00
   2  -1   1 1410.96   26.60
   2  -1   1 1453.15   25.80
  -3   1  -1 1032.30   23.10
  -3   1  -1 1048.50   20.80
  -3   1  -1 1026.20   22.00
  -3   1  -1 1049.30   21.80
   3  -1   1 1013.10   23.40
   3  -1   1 1083.79   22.00
  -4   1  -1  487.55   14.60
  -4   1  -1  515.85   14.10
   4  -1   1  493.05   15.20
   4  -1   1  484.45   13.40
  -5   1  -1  282.97   11.30
   5  -1   1  269.37   10.20
   5   0  -1   -0.20    2.30
  -5   0   1   -3.00    2.90
   4   0  -1   68.09    4.80
   4   0  -1   67.89    5.20
  -4   0   1   72.39    4.90
  -4   0   1   74.19    5.50
   3   0  -1   17.60    2.10
   3   0  -1   12.90    2.60
   3   0  -1   15.00    2.20
   3   0  -1   16.60    1.80
  -3   0   1   19.70    2.90
  -3   0   1   17.10    2.40
  -3   0   1   17.90    2.30
  -3   0   1   16.40    2.50
   2   0  -1   17.60    1.70
   2   0  -1   14.10    1.80
   2   0  -1   21.50    2.40
  -2   0   1   15.80    2.00
  -2   0   1   20.80    2.30
  -2   0   1   22.90    2.10
   1   0  -1 2142.29   38.50
   1   0  -1 2131.59   38.00
   1   0  -1 2205.98   37.70
  -1   0   1 2120.19   38.10
  -1   0   1 2159.28   37.80
  -1   0   1 2131.39   37.90
  -1   0   1 2131.39   37.80
   0   0  -1   -0.90    0.30
   0   0   1   -0.80    0.20
  -1   0  -1 2228.48   39.10
  -1   0  -1 2250.67   39.50
  -1   0  -1 2198.08   38.70
  -1   0  -1 2182.98   38.30
   1   0   1 2294.77   38.30
   1   0   1 2179.18   39.00
   1   0   1 2137.39   39.60
  -2   0  -1  392.66    8.40
  -2   0  -1  384.36    9.30
  -2   0  -1  386.66    8.70
  -2   0  -1  395.26    9.80
   2   0   1  381.56    9.90
   2   0   1  380.66    9.20
   2   0   1  392.66    8.20
  -3   0  -1   10.50    1.90
  -3   0  -1   17.20    2.60
  -3   0  -1   15.80    2.60
  -3   0  -1   14.10    2.00
   3   0   1   16.00    3.00
   3   0   1   18.20    2.40
  -4   0  -1  123.19    6.60
  -4   0  -1  127.79    6.70
   4   0   1  117.89    6.90
   4   0   1  123.59    6.20
  -5   0  -1  283.67   11.40
   5   0   1  274.47   10.50
   5  -1  -1    1.40    2.30
  -5   1   1    3.70    3.20
   4  -1  -1   63.19    4.70
   4  -1  -1   60.99    5.30
  -4   1   1   70.79    5.10
  -4   1   1   67.49    5.20
   3  -1  -1   12.20    2.10
   3  -1  -1   12.50    2.70
   3  -1  -1   18.60    2.10
   3  -1  -1   17.20    2.20
  -3   1   1   17.80    2.80
  -3   1   1   17.60    2.50
  -3   1   1   17.20    2.60
  -3   1   1   15.60    2.60
   2  -1  -1  287.67    7.50
   2  -1  -1  290.37    8.20
   2  -1  -1  286.47    7.00
   2  -1  -1  284.67    6.80
  -2   1   1  310.87    7.80
  -2   1   1  289.27    7.60
  -2   1   1  284.87    7.90
  -2   1   1  289.47    7.20
  -1   1   1  814.82   15.80
  -1   1   1  827.42   15.40
  -1   1   1  834.12   15.80
  -1   1   1  816.02   15.40
   0  -1  -1 2563.84   45.40
   0   1   1 2590.34   45.70
   0   1   1 2513.55   44.80
   0   1   1 2629.74   46.40
  -1  -1  -1 6963.50  125.39
  -1  -1  -1 6807.42  118.89
   1   1   1 6923.21  123.69
   1   1   1 6980.30  119.19
   1   1   1 6629.54  122.59
  -2  -1  -1  174.08    5.60
  -2  -1  -1  175.78    4.50
  -2  -1  -1  181.08    5.70
   2   1   1  171.28    5.80
   2   1   1  174.78    4.50
   2   1   1  184.08    5.50
  -3  -1  -1  248.68    8.20
   3   1   1  253.17    8.50
   3   1   1  255.57    8.00
  -4  -1  -1    2.90    2.30
   4   1   1   11.10    3.00
   4   1   1    8.30    2.50
  -5  -1  -1    1.60    3.10
   5   1   1    0.80    2.30
   4  -2  -1  318.57   11.80
   4  -2  -1  325.27   10.30
  -4   2   1  330.27   10.70
  -4   2   1  332.17   11.50
   3  -2  -1  108.49    4.50
   3  -2  -1  107.49    4.80
   3  -2  -1  104.89    5.90
   3  -2  -1  104.29    4.50
  -3   2   1  103.09    5.40
  -3   2   1  108.99    4.90
  -3   2   1   96.49    5.20
  -3   2   1  104.69    5.10
   2  -2  -1  637.74   15.10
   2  -2  -1  672.43   13.80
  -2   2   1  658.03   13.80
  -2   2   1  659.03   14.80
  -2   2   1  646.24   14.50
  -2   2   1  640.64   13.70
   1  -2  -1 1046.20   18.80
  -1   2   1 1040.90   19.80
  -1   2   1 1038.60   19.30
  -1   2   1 1008.10   18.80
   0   2   1  234.18    5.30
   0   2   1  236.28    4.30
   0   2   1  242.68    5.20
   0   2   1  247.68    5.10
  -1  -2  -1  954.20   17.80
   1   2   1  952.00   17.70
   1   2   1  938.21   17.70
   1   2   1  936.91   17.10
  -2  -2  -1  274.97    7.50
  -2  -2  -1  269.67    5.50
   2   2   1  272.57    7.40
   2   2   1  266.47    7.40
   2   2   1  266.17    6.20
   2   2   1  276.57    5.20
  -3  -2  -1  192.88    7.10
   3   2   1  186.78    7.10
   3   2   1  195.78    6.90
  -4  -2  -1  549.15   15.10
   4   2   1  541.05   14.70
   4   2   1  537.55   14.90
  -5  -2  -1  111.39    7.60
   5   2   1  121.79    7.20
   4  -3  -1   74.49    6.20
  -4   3   1   80.99    5.90
   3  -3  -1   20.00    3.40
   3  -3  -1   23.40    2.60
   3  -3  -1   21.70    2.60
   3  -3  -1   21.50    2.70
  -3   3   1   19.00    2.70
  -3   3   1   21.80    3.20
  -3   3   1   16.70    3.00
  -3   3   1   22.00    2.80
   2  -3  -1  850.91   16.70
  -2   3   1  834.32   16.80
  -2   3   1  838.42   17.10
  -2   3   1  831.22   18.30
  -2   3   1  832.62   18.30
   1  -3  -1  652.73   12.00
  -1   3   1  657.53   13.90
  -1   3   1  629.24   13.00
  -1   3   1  630.74   12.00
  -1   3   1  662.13   13.60
   0   3   1  548.45   10.90
   0   3   1  571.34   11.30
   0   3   1  558.34    9.80
   0   3   1  552.14   11.00
  -1  -3  -1  396.36    8.60
   1   3   1  393.46    8.40
   1   3   1  387.76    8.50
   1   3   1  404.46    8.20
   1   3   1  413.06    7.40
  -2  -3  -1  335.87    8.70
   2   3   1  331.77    8.30
   2   3   1  326.17    7.40
   2   3   1  326.77    8.50
  -3  -3  -1  244.08    8.30
   3   3   1  249.97    7.90
   3   3   1  237.08    7.90
  -4  -3  -1   82.69    5.90
   4   3   1   80.89    5.20
   4   3   1   83.69    5.40
  -5  -3  -1    2.30    3.10
   5   3   1    1.20    2.20
   4  -4  -1  165.58    9.00
  -4   4   1  161.58    8.40
  -4   4   1  154.08    8.30
   3  -4  -1    8.60    2.80
   3  -4  -1    3.80    2.00
  -3   4   1   12.50    3.10
  -3   4   1    6.20    2.30
  -3   4   1    6.80    2.50
   2  -4  -1   23.80    1.80
  -2   4   1   27.50    2.70
  -2   4   1   25.30    3.30
  -2   4   1   28.80    3.30
   1  -4  -1  405.46    7.70
  -1   4   1  393.76    9.70
  -1   4   1  422.46   10.30
  -1   4   1  406.26    7.70
  -1   4   1  410.26    9.40
   0   4   1 1007.70   17.70
   0   4   1 1042.80   19.50
   0   4   1 1028.90   19.50
   0   4   1 1020.70   19.80
  -1  -4  -1 2056.99   37.10
   1   4   1 2026.20   37.00
   1   4   1 2085.89   36.30
   1   4   1 2084.79   37.00
   1   4   1 2062.99   37.10
  -2  -4  -1  665.83   14.90
   2   4   1  682.83   14.30
   2   4   1  681.13   14.80
   2   4   1  671.23   13.70
  -3  -4  -1  168.88    6.70
   3   4   1  166.78    6.20
   3   4   1  164.48    6.40
   3   4   1  162.28    6.10
  -4  -4  -1   17.10    3.50
   4   4   1   29.10    3.80
  -5  -4  -1   -3.80    2.80
   5   4   1   -0.40    2.20
   4  -5  -1  111.19    8.10
   4  -5  -1  114.49    6.30
  -4   5   1  114.19    7.50
  -4   5   1  120.09    7.80
   3  -5  -1   27.20    4.10
  -3   5   1   21.40    3.20
  -3   5   1   27.70    4.30
  -3   5   1   32.10    4.30
  -2   5   1   35.00    3.70
  -2   5   1   36.30    3.50
  -2   5   1   39.00    3.40
  -1   5   1   90.99    4.20
  -1   5   1   92.09    4.10
  -1   5   1   94.59    4.70
   0   5   1  491.55   11.10
   0   5   1  504.85   11.50
   0   5   1  522.85    9.00
   0   5   1  523.95   11.20
  -1  -5  -1  943.51   18.20
   1   5   1  945.51   17.90
   1   5   1  961.00   18.50
   1   5   1  954.80   18.50
   1   5   1  934.51   18.10
  -2  -5  -1    9.30    1.80
   2   5   1   10.50    1.90
   2   5   1   11.10    1.80
   2   5   1   10.30    1.50
  -3  -5  -1    7.80    2.40
   3   5   1   10.00    2.20
   3   5   1   12.40    2.50
   3   5   1   12.00    1.90
  -4  -5  -1  186.68    8.50
   4   5   1  196.88    8.30
  -5  -5  -1  251.37   12.90
   5   5   1  260.07   14.20
   4  -6  -1    1.20    3.20
   4  -6  -1    2.70    2.90
  -4   6   1    5.00    3.30
  -4   6   1    9.10    4.10
   3  -6  -1  130.49    7.90
  -3   6   1  121.49    6.20
  -3   6   1  114.09    7.40
  -3   6   1  132.99    7.30
  -2   6   1  263.47    9.50
  -2   6   1  260.57    8.10
  -2   6   1  256.17    9.00
  -1   6   1  104.99    5.20
  -1   6   1   99.09    4.50
  -1   6   1   99.69    4.60
   0   6   1  126.59    4.80
   0   6   1  127.49    5.00
   0   6   1  132.49    4.80
  -1  -6  -1  154.98    4.50
   1   6   1  152.78    4.70
   1   6   1  151.78    4.40
   1   6   1  158.38    5.10
   1   6   1  149.39    5.10
  -2  -6  -1  226.58    7.10
   2   6   1  231.28    6.60
   2   6   1  226.18    6.70
   2   6   1  222.48    6.80
  -3  -6  -1  305.47    9.90
   3   6   1  301.67    8.30
   3   6   1  297.77    9.40
   3   6   1  308.77    8.90
  -4  -6  -1    6.20    2.70
   4   6   1    5.70    2.30
   4  -7  -1   71.49    6.10
   4  -7  -1   84.19    8.00
  -4   7   1   81.89    7.80
  -4   7   1   79.79    7.20
   3  -7  -1   83.09    7.00
  -3   7   1   77.99    6.30
  -3   7   1   80.49    5.40
  -3   7   1   73.59    6.90
  -2   7   1   16.30    3.30
  -2   7   1   22.00    3.20
  -2   7   1   23.70    4.00
  -1   7   1   14.50    2.50
  -1   7   1   11.90    2.70
  -1   7   1   22.80    3.00
   0   7   1    2.30    1.50
   0   7   1   -1.20    1.40
   0   7   1    3.30    1.70
  -1  -7  -1  607.74   12.60
   1   7   1  610.04   13.30
   1   7   1  596.14   13.70
   1   7   1  640.44   13.70
   1   7   1  602.64   12.40
  -2  -7  -1  792.32   17.30
   2   7   1  796.12   17.00
   2   7   1  798.42   17.00
   2   7   1  783.12   17.00
  -3  -7  -1  732.23   17.70
   3   7   1  726.33   17.30
   3   7   1  705.53   16.30
   3   7   1  714.73   16.10
  -4  -7  -1  120.69    7.20
   4   7   1  122.19    6.50
   3  -8  -1  286.07   10.20
  -3   8   1  264.67    9.90
  -3   8   1  268.57   11.80
  -3   8   1  261.67   11.30
  -2   8   1   52.89    5.80
  -2   8   1   50.59    5.00
  -2   8   1   56.59    4.90
  -1   8   1  297.97    9.80
  -1   8   1  293.97   10.20
  -1   8   1  297.47    9.30
   0   8   1  187.88    7.10
   0   8   1  172.88    6.50
   0   8   1  187.08    6.70
   1   8   1    0.60    1.50
   1   8   1    0.50    1.50
   1   8   1    1.50    1.50
  -2  -8  -1   28.40    2.80
   2   8   1   33.80    2.90
   2   8   1   30.80    3.20
   2   8   1   29.60    3.10
  -3  -8  -1    6.20    2.40
   3   8   1    5.30    2.00
   3   8   1    3.60    2.50
   3   8   1    2.90    2.00
  -4  -8  -1    3.10    2.80
   4   8   1    7.70    2.60
   3  -9  -1   45.60    5.20
  -3   9   1   52.59    5.50
  -3   9   1   46.20    6.30
  -3   9   1   39.00    5.60
  -2   9   1   15.40    3.50
  -2   9   1   10.60    3.20
  -2   9   1   15.90    4.10
  -1   9   1  102.59    5.80
  -1   9   1   98.89    6.00
  -1   9   1   88.89    6.30
   0   9   1   -1.70    1.90
   0   9   1    0.40    2.10
   0   9   1    0.70    1.70
   1   9   1  212.58    7.40
   1   9   1  200.88    7.30
   2   9   1   62.59    4.40
   2   9   1   58.39    4.10
  -3  -9  -1  515.45   14.30
   3   9   1  527.95   13.50
   3   9   1  529.75   13.90
  -4  -9  -1  429.56   14.00
   4   9   1  413.96   13.20
  -3  10   1  161.58    8.60
  -3  10   1  161.48   10.80
  -3  10   1  150.28   13.70
  -2  10   1  419.96   14.80
  -2  10   1  432.06   13.20
  -2  10   1  413.96   14.40
  -1  10   1  118.29    6.90
  -1  10   1  117.29    6.60
  -1  10   1  121.59    7.60
   0  10   1   23.20    3.70
   0  10   1   18.10    3.40
   0  10   1   18.30    3.40
   1  10   1  656.13   16.20
   1  10   1  676.13   16.50
   2  10   1  259.97    8.60
   2  10   1  260.17    8.90
   3  10   1  270.07    9.50
  -4 -10  -1   -2.00    2.70
   4  10   1   -0.20    2.10
  -2  11   1   24.10    5.30
  -2  11   1   16.00    4.10
  -2  11   1   11.50    3.30
  -1  11   1    0.70    2.40
  -1  11   1    2.60    3.00
  -1  11   1    5.20    3.50
   0  11   1   34.30    4.50
   0  11   1   23.70    3.90
   0  11   1   29.00    4.10
   1  11   1  124.69    6.50
   1  11   1  120.19    6.70
   2  11   1   75.19    5.30
   2  11   1   81.99    5.50
   3  11   1   40.00    5.00
  -2  12   1    7.80    3.70
  -1  12   1   89.19    7.10
  -1  12   1   97.39    7.90
  -1  12   1   88.19    6.90
   0  12   1  179.58    8.90
   0  12   1  208.78    9.50
   0  12   1  195.28    9.00
   1  12   1  497.75   14.80
   1  12   1  493.75   14.40
   2  12   1  368.46   12.00
   2  12   1  343.37   11.40
  -1  13   1  158.68   10.00
  -1  13   1  172.68   10.30
  -1  13   1  154.18    9.40
   0  13   1  410.16   14.00
   0  13   1  370.86   13.70
   1  13   1   45.40    5.60
   1  13   1   34.10    4.80
   2  13   1    2.20    3.00
   0  14   1  172.18   15.30
   1  14   1   93.19    7.10
   0  14  -2   23.30    4.90
   2  13  -2  155.78    8.30
   1  13  -2  133.89    8.00
   0  13  -2  115.59    7.80
   0  13  -2  116.89    7.70
  -1  13  -2    7.80    3.80
  -1  13  -2    7.00    4.40
  -1  13  -2   10.20    4.20
   3  12  -2   -2.70    2.30
   2  12  -2   26.30    4.00
   1  12  -2  123.19    6.90
   1  12  -2  119.59    7.00
   0  12  -2  169.68    8.50
   0  12  -2  189.78    9.10
   0  12  -2  172.98    8.60
  -1  12  -2  142.99    8.40
  -1  12  -2  159.48    8.90
  -1  12  -2  170.08    9.60
  -2  12  -2   51.39    5.80
   3  11  -2   20.10    3.50
   2  11  -2   67.29    5.30
   1  11  -2  181.28    7.60
   1  11  -2  183.68    7.90
   0  11  -2   32.40    4.60
   0  11  -2   33.00    4.20
   0  11  -2   31.80    4.50
  -1  11  -2   16.60    3.60
  -1  11  -2   22.50    4.20
  -1  11  -2   19.40    4.30
  -2  11  -2    5.10    3.30
  -2  11  -2   -2.50    2.70
  -2  11  -2    9.50    4.30
   4  10  -2   17.50    3.50
  -4 -10   2   19.30    4.30
   3  10  -2    0.50    2.10
   2  10  -2  204.88    8.00
   1  10  -2  567.74   14.90
   1  10  -2  586.84   14.60
   0  10  -2  790.52   19.10
   0  10  -2  814.92   19.50
   0  10  -2  792.72   19.70
  -1  10  -2  489.15   14.70
  -1  10  -2  478.75   15.00
  -1  10  -2  483.85   14.00
  -2  10  -2   60.79    6.40
  -2  10  -2   64.29    5.70
  -2  10  -2   61.19    6.70
   4   9  -2    2.70    2.40
  -4  -9   2    1.50    2.90
   3   9  -2   93.39    5.30
   3   9  -2   85.89    5.30
  -3  -9   2   76.79    5.40
   2   9  -2  495.15   13.00
   1   9  -2   54.69    4.20
   1   9  -2   67.29    4.30
   1   9  -2   65.99    4.10
   0   9  -2   28.20    3.20
   0   9  -2   41.40    3.80
   0   9  -2   38.80    4.20
  -1   9  -2    6.60    2.90
  -1   9  -2    5.70    2.40
  -1   9  -2    3.30    2.40
  -2   9  -2    1.80    2.40
  -2   9  -2   -0.30    2.50
  -2   9  -2   -1.70    2.90
  -3   9  -2   12.80    4.20
  -3   9  -2   16.10    4.20
   3  -9   2   17.30    4.90
   4   8  -2   12.50    3.30
  -4  -8   2   18.00    3.90
   3   8  -2    2.80    2.00
   3   8  -2    0.10    1.60
  -3  -8   2    1.70    2.10
   2   8  -2   86.79    4.70
   2   8  -2   95.49    4.40
   2   8  -2   92.19    4.60
  -2  -8   2  102.89    4.90
   1   8  -2    0.00    1.40
   1   8  -2    3.50    1.60
   1   8  -2    1.40    1.70
   0   8  -2    9.60    2.10
   0   8  -2   11.00    2.30
   0   8  -2    9.50    2.40
  -1   8  -2   18.20    2.90
  -1   8  -2   19.80    3.40
  -1   8  -2   11.90    2.60
  -2   8  -2  278.77   10.90
  -2   8  -2  298.47    9.50
  -2   8  -2  275.87   10.50
  -3   8  -2   78.99    6.90
  -3   8  -2   77.39    7.10
   3  -8   2   86.29    7.60
   4   7  -2   20.20    3.60
  -4  -7   2   27.50    4.30
   3   7  -2   14.90    2.90
   3   7  -2   15.60    2.50
  -3  -7   2   15.00    3.00
   2   7  -2  246.18    7.60
   2   7  -2  250.77    7.70
   2   7  -2  240.48    6.80
  -2  -7   2  235.78    7.70
   1   7  -2  320.77    8.40
   1   7  -2  335.27    9.00
   1   7  -2  335.37    8.70
   1   7  -2  340.37    8.10
  -1  -7   2  330.07    8.20
   0   7  -2  169.38    6.40
   0   7  -2  179.58    6.20
   0   7  -2  177.68    6.00
  -1   7  -2  120.99    5.70
  -1   7  -2  118.89    5.90
  -1   7  -2  115.49    5.20
  -2   7  -2   10.00    2.50
  -2   7  -2    9.70    2.50
  -2   7  -2   11.20    3.10
  -3   7  -2    4.50    3.60
  -3   7  -2    5.20    2.90
   3  -7   2    6.30    3.50
  -4   7  -2   28.30    5.50
  -4   7  -2   18.80    4.70
   4  -7   2   17.30    5.10
   4   6  -2   90.09    6.00
  -4  -6   2   82.99    6.30
   3   6  -2  780.52   18.40
   3   6  -2  763.02   17.20
  -3  -6   2  763.32   18.60
   2   6  -2   10.40    1.80
   2   6  -2    9.10    2.00
   2   6  -2    8.40    1.50
  -2  -6   2   11.50    2.10
   1   6  -2    6.90    1.50
   1   6  -2    5.80    1.30
   1   6  -2    6.60    1.40
  -1  -6   2    7.90    1.40
   0   6  -2   55.89    3.50
   0   6  -2   56.79    3.20
   0   6  -2   54.79    3.10
   0  -6   2   54.59    2.00
  -1   6  -2   68.19    3.80
  -1   6  -2   72.29    4.20
  -1   6  -2   68.09    4.40
  -2   6  -2  113.99    6.10
  -2   6  -2  117.69    6.30
  -2   6  -2  105.99    5.00
  -3   6  -2   -0.20    2.70
  -3   6  -2    0.00    2.30
   3  -6   2    0.80    2.70
  -4   6  -2    6.50    3.70
  -4   6  -2    4.50    3.60
   4  -6   2    2.30    3.60
   4   5  -2  960.50   22.90
  -4  -5   2  926.21   23.10
   3   5  -2 2572.14   49.10
   3   5  -2 2540.35   47.50
  -3  -5   2 2553.34   49.40
   2   5  -2 1074.89   21.70
   2   5  -2 1096.89   22.40
   2   5  -2 1093.49   20.70
  -2  -5   2 1074.19   22.40
   1   5  -2 1257.37   23.70
   1   5  -2 1225.18   23.20
   1   5  -2 1213.98   22.90
  -1  -5   2 1212.78   23.40
   0   5  -2  528.85   11.60
   0   5  -2  540.35   11.60
   0   5  -2  537.05   12.20
   0  -5   2  537.75   10.30
  -1   5  -2  700.53   15.90
  -1   5  -2  696.33   14.70
  -1   5  -2  684.83   15.70
   1  -5   2  710.93   12.70
  -2   5  -2  110.79    5.70
  -2   5  -2  121.19    5.90
  -2   5  -2  108.79    4.60
  -3   5  -2   30.50    4.30
  -3   5  -2   34.40    4.40
   3  -5   2   40.90    5.40
  -4   5  -2    2.60    3.30
  -4   5  -2    4.60    3.10
   4  -5   2    4.50    3.70
   5   4  -2    0.40    2.10
  -5  -4   2    6.70    3.60
   4   4  -2    0.90    1.80
  -4  -4   2   -2.00    2.10
   3   4  -2  572.54   13.30
   3   4  -2  580.34   14.70
  -3  -4   2  583.34   15.00
   2   4  -2  117.39    4.40
   2   4  -2  125.29    3.40
   2   4  -2  124.79    3.90
   2   4  -2  124.89    5.00
  -2  -4   2  134.59    5.20
   1   4  -2 1377.76   25.10
   1   4  -2 1344.57   24.80
   1   4  -2 1379.26   25.70
  -1  -4   2 1379.86   25.70
   0   4  -2 4564.34   80.29
   0   4  -2 4467.85   81.69
   0   4  -2 4645.84   80.89
   0  -4   2 4726.13   80.79
  -1   4  -2 2113.89   39.90
  -1   4  -2 2140.89   39.90
  -1   4  -2 2119.49   38.70
   1  -4   2 2164.18   37.10
  -2   4  -2  217.58    7.80
  -2   4  -2  216.88    7.60
  -2   4  -2  220.38    6.30
   2  -4   2  222.38    5.50
   2  -4   2  224.18    8.30
  -3   4  -2   69.09    5.10
  -3   4  -2   60.59    4.90
   3  -4   2   64.69    5.70
  -4   4  -2    3.00    2.70
  -4   4  -2    4.80    3.90
   4  -4   2    5.80    3.30
   5   3  -2   29.80    4.40
  -5  -3   2   16.30    3.90
   4   3  -2    1.40    1.80
  -4  -3   2   -2.50    2.10
   3   3  -2  107.89    5.40
   3   3  -2  111.19    4.60
   3   3  -2  112.19    4.70
  -3  -3   2  113.69    5.70
   2   3  -2  652.83   14.00
   2   3  -2  679.33   14.90
   2   3  -2  675.73   12.60
   2   3  -2  665.43   13.30
  -2  -3   2  668.03   14.90
   1   3  -2    2.20    0.90
   1   3  -2    2.70    0.70
   1   3  -2    2.20    0.80
  -1  -3   2    2.40    1.00
   0   3  -2  179.68    4.90
   0   3  -2  180.88    4.50
   0   3  -2  179.88    4.50
   0  -3   2  178.28    3.90
  -1   3  -2  824.12   17.10
  -1   3  -2  827.12   15.90
  -1   3  -2  823.22   17.00
   1  -3   2  832.72   15.00
  -2   3  -2  523.25   12.80
  -2   3  -2  516.75   11.20
  -2   3  -2  540.65   13.50
   2  -3   2  539.75   11.20
   2  -3   2  526.35   13.80
  -3   3  -2 1187.08   26.00
  -3   3  -2 1229.68   27.40
   3  -3   2 1225.78   28.00
   3  -3   2 1249.28   24.50
  -4   3  -2  503.65   15.80
   4  -3   2  495.95   16.40
  -5   3  -2    3.20    3.10
   5  -3   2    8.60    3.80
   5   2  -2   17.80    3.60
  -5  -2   2   20.90    4.40
   4   2  -2   59.99    4.90
  -4  -2   2   65.99    5.40
   3   2  -2  541.55   13.70
   3   2  -2  537.45   12.50
   3   2  -2  528.85   12.70
  -3  -2   2  523.05   13.70
   2   2  -2   59.99    2.90
   2   2  -2   55.69    2.00
   2   2  -2   56.19    2.70
   2   2  -2   55.99    3.20
  -2  -2   2   55.79    3.20
   1   2  -2 2804.22   49.30
   1   2  -2 2806.62   48.60
   1   2  -2 2816.32   49.40
  -1  -2   2 2751.12   49.50
   0   2  -2  410.06    8.50
   0   2  -2  417.16    8.20
   0   2  -2  414.06    8.20
   0  -2   2  413.66    7.80
  -1   2  -2  219.08    6.10
  -1   2  -2  210.48    5.80
  -1   2  -2  211.28    4.90
   1  -2   2  208.58    6.20
   1  -2   2  219.48    4.70
  -2   2  -2    1.20    0.90
  -2   2  -2    2.40    1.40
  -2   2  -2   -0.10    1.40
  -2   2  -2    0.70    1.10
   2  -2   2    0.20    1.60
   2  -2   2    1.30    0.80
  -3   2  -2   36.20    3.60
  -3   2  -2   39.90    4.30
  -3   2  -2   39.10    3.50
   3  -2   2   37.10    2.90
   3  -2   2   36.00    4.40
  -4   2  -2    1.00    2.20
  -4   2  -2   -1.20    2.30
   4  -2   2   -2.30    2.40
   4  -2   2   -1.10    1.70
  -5   2  -2  112.39    7.90
   5  -2   2  126.39    8.70
   5   1  -2    6.10    2.90
  -5  -1   2    8.20    3.70
   4   1  -2   45.90    4.40
  -4  -1   2   37.60    4.30
   3   1  -2  153.88    5.90
   3   1  -2  143.79    6.00
   3   1  -2  159.48    5.50
  -3  -1   2  139.49    5.50
  -3  -1   2  154.48    5.70
  -3  -1   2  142.29    6.20
  -3  -1   2  131.39    5.50
   2   1  -2 1029.80   20.50
   2   1  -2 1050.59   19.40
   2   1  -2 1070.69   21.20
   2   1  -2 1034.80   20.40
  -2  -1   2 1066.69   19.90
  -2  -1   2 1068.19   20.70
  -2  -1   2 1031.50   20.30
  -2  -1   2 1068.39   21.30
   1   1  -2  106.59    2.70
   1   1  -2  105.59    3.30
   1   1  -2  103.79    2.70
  -1  -1   2   99.69    3.30
  -1  -1   2  104.59    3.40
   0   1  -2   12.60    1.00
   0   1  -2   10.80    1.20
   0   1  -2   10.70    0.90
   0  -1   2   11.30    0.80
  -1   1  -2  433.96    9.80
  -1   1  -2  455.55    8.50
  -1   1  -2  454.95    9.50
   1  -1   2  435.96   10.10
   1  -1   2  462.25    8.90
  -2   1  -2    9.90    1.30
  -2   1  -2    5.30    1.40
  -2   1  -2    6.50    1.70
  -2   1  -2    7.50    1.50
   2  -1   2    9.00    1.10
   2  -1   2    5.40    1.80
   2  -1   2    6.40    1.20
  -3   1  -2   20.40    2.60
  -3   1  -2   15.30    2.70
  -3   1  -2   13.80    2.30
   3  -1   2   13.80    2.20
   3  -1   2   13.30    2.90
  -4   1  -2   59.19    5.00
  -4   1  -2   58.49    5.10
   4  -1   2   59.49    4.50
   4  -1   2   64.09    5.70
   5  -1   2   54.49    5.10
   5   0  -2   39.00    4.80
  -5   0   2   36.00    5.20
   4   0  -2   42.10    4.30
  -4   0   2   48.60    4.70
   3   0  -2  195.78    6.20
   3   0  -2  193.18    7.10
   3   0  -2  202.38    7.10
   3   0  -2  191.08    5.60
  -3   0   2  195.08    6.50
  -3   0   2  192.48    6.40
  -3   0   2  191.28    6.70
  -3   0   2  189.28    7.00
   2   0  -2  297.67    7.50
   2   0  -2  320.77    8.20
   2   0  -2  309.07    7.00
   2   0  -2  307.07    8.00
  -2   0   2  311.57    7.80
  -2   0   2  306.67    7.80
  -2   0   2  340.87    7.80
  -2   0   2  308.27    8.20
   1   0  -2 1662.93   29.10
   1   0  -2 1657.23   29.50
   1   0  -2 1633.84   29.40
  -1   0   2 1659.03   29.60
  -1   0   2 1629.74   29.50
  -1   0   2 1630.44   29.70
  -1   0   2 1658.33   29.20
   0   0  -2 1547.25   27.00
   0   0  -2 1553.94   27.50
   0   0   2 1519.85   27.70
   0   0   2 1555.24   28.00
   0   0   2 1551.34   26.90
  -1   0  -2  369.16    6.80
  -1   0  -2  379.26    7.80
  -1   0  -2  371.46    8.20
  -1   0  -2  370.96    7.60
   1   0   2  353.86    8.40
   1   0   2  369.06    7.60
   1   0   2  372.46    6.70
  -2   0  -2  212.68    6.10
  -2   0  -2  211.68    6.60
  -2   0  -2  211.58    5.00
  -2   0  -2  200.08    5.50
   2   0   2  211.78    4.90
   2   0   2  195.28    6.70
   2   0   2  206.38    5.90
  -3   0  -2  401.96   10.80
  -3   0  -2  395.06   11.30
  -3   0  -2  387.56    9.80
   3   0   2  398.16   11.70
   3   0   2  392.06   10.40
  -4   0  -2  153.48    7.20
  -4   0  -2  173.98    7.90
   4   0   2  143.79    7.80
   4   0   2  156.38    6.90
  -5   0  -2  134.89    8.20
   5   0   2  145.29    7.50
   5  -1  -2   16.70    3.40
  -5   1   2   20.90    4.40
   4  -1  -2   47.40    4.40
  -4   1   2   44.90    4.40
  -4   1   2   45.00    4.60
   3  -1  -2  807.92   18.90
   3  -1  -2  805.72   16.70
   3  -1  -2  801.02   17.30
   3  -1  -2  828.72   18.20
  -3   1   2  836.82   18.40
  -3   1   2  820.02   17.70
  -3   1   2  771.42   17.90
  -3   1   2  829.72   18.60
   2  -1  -2 2805.92   51.19
   2  -1  -2 2812.82   50.09
   2  -1  -2 2765.82   49.70
   2  -1  -2 2839.42   50.69
  -2   1   2 2812.92   50.69
  -2   1   2 2738.13   50.79
  -2   1   2 2839.22   50.39
  -2   1   2 2750.92   50.79
   1  -1  -2 9585.24  169.88
  -1   1   2 9488.25  169.48
  -1   1   2 9999.00  172.88
  -1   1   2 9286.87  170.58
  -1   1   2 9899.91  171.38
   0  -1  -2   22.00    1.10
   0   1   2   23.40    0.90
   0   1   2   21.20    1.30
   0   1   2   22.90    1.10
   0   1   2   23.10    1.10
  -1  -1  -2  169.68    3.60
  -1  -1  -2  168.18    4.40
   1   1   2  170.48    3.40
   1   1   2  160.68    4.60
   1   1   2  173.28    4.30
  -2  -1  -2   -0.90    1.10
  -2  -1  -2   -0.20    0.80
   2   1   2   -0.20    0.90
   2   1   2   -1.70    0.60
   2   1   2   -0.60    1.20
  -3  -1  -2   58.99    4.00
   3   1   2   54.49    3.60
   3   1   2   62.29    4.50
   4   1   2    2.70    1.90
   4   1   2    4.30    2.50
  -5  -1  -2   26.00    4.60
   5   1   2   33.80    4.50
   4  -2  -2   -0.90    1.80
   4  -2  -2    2.50    2.60
  -4   2   2    0.10    1.90
  -4   2   2    2.00    2.50
   3  -2  -2   96.69    4.70
   3  -2  -2  100.29    4.40
   3  -2  -2   93.29    5.50
   3  -2  -2  100.39    4.50
  -3   2   2   99.99    4.90
  -3   2   2   96.19    5.30
  -3   2   2   86.99    4.70
  -3   2   2   91.79    5.10
   2  -2  -2  276.37    7.20
   2  -2  -2  285.87    8.30
   2  -2  -2  272.67    7.10
   2  -2  -2  256.37    6.90
  -2   2   2  281.17    7.40
  -2   2   2  293.37    7.40
  -2   2   2  289.07    8.00
  -2   2   2  275.37    8.00
   1  -2  -2   68.69    2.50
  -1   2   2   67.89    2.70
  -1   2   2   73.39    2.80
  -1   2   2   67.89    3.10
  -1   2   2   66.39    2.40
   0  -2  -2  135.19    3.30
   0   2   2  132.79    3.70
   0   2   2  129.59    2.80
   0   2   2  134.99    3.40
   0   2   2  135.29    3.50
  -1  -2  -2  397.56    7.20
  -1  -2  -2  401.46    8.50
   1   2   2  400.56    8.40
   1   2   2  387.56    8.50
   1   2   2  399.26    7.70
  -2  -2  -2   40.60    2.70
  -2  -2  -2   41.20    1.60
   2   2   2   46.20    3.10
   2   2   2   45.30    2.80
   2   2   2   40.10    1.80
  -3  -2  -2  397.26   11.00
   3   2   2  395.66   10.70
   3   2   2  397.26   11.20
  -4  -2  -2   60.59    5.20
   4   2   2   63.79    5.20
   4   2   2   64.69    4.80
  -5  -2  -2   -1.30    3.00
   5   2   2   -0.80    2.20
   4  -3  -2  102.59    7.00
  -4   3   2   90.69    6.10
   3  -3  -2   26.50    3.80
   3  -3  -2   31.50    3.10
   3  -3  -2   31.60    3.10
   3  -3  -2   26.60    2.80
  -3   3   2   29.50    3.10
  -3   3   2   30.20    3.90
  -3   3   2   34.90    3.90
  -3   3   2   33.50    3.40
   2  -3  -2  580.04   12.30
   2  -3  -2  567.94   12.50
  -2   3   2  580.24   12.80
  -2   3   2  572.44   13.80
  -2   3   2  570.94   13.50
  -2   3   2  561.34   12.30
  -1   3   2  644.34   13.10
  -1   3   2  625.44   13.20
  -1   3   2  642.54   12.10
  -1   3   2  640.94   13.90
   0   3   2  777.92   15.30
   0   3   2  794.52   13.80
   0   3   2  773.02   15.00
   0   3   2  785.42   14.90
  -1  -3  -2    2.70    0.50
  -1  -3  -2    0.60    0.70
   1   3   2    2.60    0.80
   1   3   2    3.80    1.10
   1   3   2    2.00    0.60
   1   3   2    1.60    0.80
  -2  -3  -2   27.60    2.70
   2   3   2   27.70    2.60
   2   3   2   27.80    2.40
   2   3   2   25.70    1.70
  -3  -3  -2  412.16   11.40
   3   3   2  423.06   11.40
   3   3   2  412.96   11.20
  -4  -3  -2  486.85   14.10
   4   3   2  462.65   13.30
   4   3   2  461.65   13.50
  -5  -3  -2  392.56   13.80
   5   3   2  369.86   12.80
   4  -4  -2   45.10    5.80
  -4   4   2   49.60    5.40
  -4   4   2   47.10    5.50
   3  -4  -2   14.60    2.40
   3  -4  -2    7.80    2.30
   3  -4  -2    8.80    2.90
  -3   4   2   16.90    3.10
  -3   4   2   17.40    3.50
  -3   4   2   13.50    2.70
   2  -4  -2  336.27    8.00
  -2   4   2  353.16    9.90
  -2   4   2  335.77    8.10
  -2   4   2  351.76    9.10
  -2   4   2  332.77   10.00
   1  -4  -2 1235.18   22.00
  -1   4   2 1241.98   24.70
  -1   4   2 1224.28   23.70
  -1   4   2 1204.28   22.00
  -1   4   2 1266.07   24.10
   0   4   2  137.09    4.20
   0   4   2  139.29    2.90
   0   4   2  137.79    4.30
   0   4   2  134.39    4.50
  -1  -4  -2   22.90    1.70
  -1  -4  -2   22.40    1.20
   1   4   2   23.00    1.50
   1   4   2   22.50    1.60
   1   4   2   21.00    2.00
   1   4   2   20.70    1.70
  -2  -4  -2  149.88    5.30
   2   4   2  150.68    5.10
   2   4   2  144.99    4.20
   2   4   2  139.79    5.00
  -3  -4  -2  147.29    6.20
   3   4   2  136.49    5.80
   3   4   2  137.09    5.90
  -4  -4  -2  146.99    7.50
   4   4   2  141.59    6.90
   4   4   2  153.08    7.00
  -5  -4  -2  130.89    8.30
   5   4   2  129.39    7.50
   4  -5  -2  113.09    7.90
   4  -5  -2  107.19    6.20
  -4   5   2  125.29    7.90
  -4   5   2  108.09    7.30
   3  -5  -2  124.09    5.90
   3  -5  -2  123.69    7.30
  -3   5   2  122.09    6.70
  -3   5   2  124.09    6.00
  -3   5   2  125.19    7.20
  -2   5   2   97.59    4.80
  -2   5   2   99.09    5.60
  -2   5   2  104.69    5.20
   1  -5  -2  178.98    3.70
  -1   5   2  183.48    6.60
  -1   5   2  191.28    5.90
  -1   5   2  176.68    5.90
  -1   5   2  174.48    3.70
   0   5   2   49.80    2.90
   0   5   2   50.39    1.30
   0   5   2   51.99    2.90
   0   5   2   45.70    2.90
  -1  -5  -2  237.28    5.90
  -1  -5  -2  234.88    5.30
   1   5   2  231.48    5.80
   1   5   2  250.57    5.90
   1   5   2  237.08    6.40
   1   5   2  239.68    6.20
  -2  -5  -2  615.94   14.30
   2   5   2  654.93   13.40
   2   5   2  654.43   14.10
   2   5   2  649.83   14.20
  -3  -5  -2  279.37    9.20
   3   5   2  273.47    8.40
   3   5   2  284.07    8.90
  -4  -5  -2   48.80    5.10
   4   5   2   47.60    4.50
  -5  -5  -2   94.19    9.50
   5   5   2   60.19    8.40
   4  -6  -2  160.88    9.60
   4  -6  -2  159.28    7.80
  -4   6   2  170.78    9.20
  -4   6   2  163.68    9.50
   3  -6  -2   46.00    5.40
   3  -6  -2   38.60    4.00
  -3   6   2   43.90    5.10
  -3   6   2   43.50    4.30
  -3   6   2   38.10    4.90
  -2   6   2  147.99    6.20
  -2   6   2  157.78    7.40
  -2   6   2  158.78    6.90
  -1   6   2   15.10    2.20
  -1   6   2   19.10    2.50
  -1   6   2   18.20    2.90
   0   6   2  156.68    3.10
   0   6   2  153.88    5.60
   0   6   2  155.88    5.20
   0   6   2  162.88    5.50
  -1  -6  -2  306.87    7.30
   1   6   2  324.77    8.10
   1   6   2  316.57    8.00
   1   6   2  308.67    7.60
   1   6   2  318.27    7.20
  -2  -6  -2  816.62   17.80
   2   6   2  821.72   17.60
   2   6   2  852.61   17.20
   2   6   2  848.82   17.60
  -3  -6  -2   65.69    4.70
   3   6   2   69.29    4.40
   3   6   2   71.79    4.40
  -4  -6  -2    8.60    3.00
   4   6   2   14.70    3.00
   4  -7  -2  203.28    9.10
   4  -7  -2  214.98   11.50
  -4   7   2  217.48   10.80
  -4   7   2  203.98   11.00
   3  -7  -2   13.10    3.20
  -3   7   2   11.20    4.10
  -3   7   2   11.50    3.10
  -3   7   2   14.10    3.40
  -2   7   2   11.40    3.00
  -2   7   2   15.20    3.70
  -2   7   2   16.10    2.90
  -1   7   2 1369.86   29.30
  -1   7   2 1450.15   28.90
  -1   7   2 1387.86   28.20
   0   7   2  850.81   18.10
   0   7   2  835.52   18.60
   0   7   2  856.51   18.20
  -1  -7  -2    9.80    1.40
   1   7   2   10.90    2.00
   1   7   2   11.30    1.30
   1   7   2   10.40    1.90
   1   7   2   10.70    1.90
  -2  -7  -2   52.79    3.50
   2   7   2   47.90    3.60
   2   7   2   49.40    3.30
   2   7   2   44.50    3.10
  -3  -7  -2   49.90    4.20
   3   7   2   36.30    3.50
   3   7   2   38.00    3.80
  -4  -7  -2   22.10    3.80
   4   7   2   28.80    3.80
   3  -8  -2   97.09    6.50
  -3   8   2  100.19    6.40
  -3   8   2   94.29    7.00
  -3   8   2   92.89    7.30
  -2   8   2   12.00    3.20
  -2   8   2    0.50    2.50
  -2   8   2    8.10    2.90
  -1   8   2  333.17   11.10
  -1   8   2  343.67   10.20
  -1   8   2  349.57   10.70
   0   8   2  933.91   20.30
   0   8   2  936.11   20.80
   0   8   2  933.31   20.40
   1   8   2  671.03   15.20
   1   8   2  663.13   14.90
   1   8   2  665.93   15.30
  -2  -8  -2  287.07    8.30
   2   8   2  290.07    8.10
   2   8   2  281.77    8.50
  -3  -8  -2  102.89    5.70
   3   8   2   92.69    5.40
   3   8   2   98.89    5.20
  -4  -8  -2   76.69    6.20
   4   8   2   86.49    5.80
   3  -9  -2   59.99    6.00
  -3   9   2   52.89    5.30
  -3   9   2   63.19    6.40
  -3   9   2   53.49    6.90
  -2   9   2  274.47    9.90
  -2   9   2  265.67   11.30
  -2   9   2  268.87   10.70
  -1   9   2   46.00    5.20
  -1   9   2   60.09    5.10
  -1   9   2   45.10    4.50
   0   9   2  249.28    8.90
   0   9   2  240.58    8.60
   0   9   2  248.28    8.50
   1   9   2   -0.90    1.80
   1   9   2    0.70    1.90
   2   9   2   -0.40    1.90
   2   9   2    1.20    1.80
  -3  -9  -2   67.19    4.90
   3   9   2   67.89    4.40
   3   9   2   71.99    5.30
  -4  -9  -2   19.30    3.90
   4   9   2   17.40    3.30
  -3  10   2   -0.20    3.00
  -3  10   2   -0.10    3.00
  -2  10   2   17.00    3.70
  -2  10   2   17.20    4.10
  -2  10   2   15.30    4.20
  -1  10   2   28.80    4.40
  -1  10   2   44.50    5.00
  -1  10   2   37.50    4.40
   0  10   2  180.68    7.60
   0  10   2  184.18    7.90
   0  10   2  199.08    8.40
   1  10   2   27.20    3.60
   1  10   2   29.10    3.50
   2  10   2   26.70    3.40
   2  10   2   23.90    3.20
  -4 -10  -2   15.60    4.00
   4  10   2   22.50    3.80
   2 -11  -2  457.25   13.90
  -2  11   2  404.96   14.90
  -2  11   2  435.46   15.80
  -2  11   2  407.66   13.70
  -1  11   2  522.75   15.10
  -1  11   2  493.65   16.20
  -1  11   2  500.75   15.50
   0  11   2  287.37   10.40
   0  11   2  272.07   10.30
   0  11   2  286.17   10.90
   1  11   2   21.50    3.70
   1  11   2   20.50    3.60
   2  11   2  448.16   13.00
   2  11   2  452.25   12.80
  -2  12   2   37.80    5.30
   1 -12  -2   70.59    6.00
  -1  12   2   68.69    6.40
  -1  12   2   73.69    6.70
  -1  12   2   71.29    7.20
   0  12   2   86.89    6.40
   0  12   2   80.79    6.90
   0  12   2   80.49    6.60
   1  12   2   58.69    5.90
   1  12   2   52.99    5.40
   2  12   2  427.06   13.00
   2  12   2  422.76   13.30
   1 -13  -2  104.29    7.50
  -1  13   2   91.19    8.60
  -1  13   2   81.29    7.50
  -1  13   2   79.39    8.00
   0 -13  -2    9.50    4.20
   0  13   2   16.80    4.20
   0  13   2   11.00    3.80
   1  13   2   -4.40    2.50
   1  13   2   -1.20    3.00
   2  13   2  266.87   10.60
   2  13   2  277.47   11.10
   1  14   2   39.30    5.40
   0  14  -3  108.79    8.10
   2  13  -3  223.98    9.90
   1  13  -3   55.59    6.00
   0  13  -3   -3.20    4.80
   0  13  -3   -3.00    3.20
   0  13  -3    0.60    2.80
  -1  13  -3   35.30    5.70
  -1  13  -3   25.70    6.10
  -1  13  -3   29.50    7.10
   3  12  -3   22.90    3.80
   2  12  -3  279.47   10.70
   1  12  -3  308.67   11.20
   0  12  -3  177.08    8.80
   0  12  -3  172.28    8.60
   0  12  -3  190.38    9.20
  -1  12  -3    8.20    3.50
  -1  12  -3   11.70    4.10
  -1  12  -3    7.70    3.40
  -2  12  -3   36.10    5.10
   3  11  -3   63.09    5.50
   2  11  -3    3.60    2.40
   1  11  -3    4.80    2.40
   1  11  -3    8.30    2.70
   0  11  -3   17.60    3.70
   0  11  -3   18.10    3.70
   0  11  -3   15.10    3.30
  -1  11  -3   11.20    3.40
  -1  11  -3   -0.30    2.80
  -1  11  -3   13.60    4.20
  -2  11  -3  104.69    7.80
  -2  11  -3  115.49    8.60
  -2  11  -3   93.89    7.00
   4  10  -3  132.99    7.50
  -4 -10   3  132.49    8.50
   3  10  -3  242.38    9.10
   2  10  -3   12.20    2.70
   1  10  -3    2.60    1.90
   1  10  -3    3.50    2.30
   0  10  -3   31.80    4.10
   0  10  -3   27.70    3.80
   0  10  -3   20.20    3.30
  -1  10  -3  269.37   10.50
  -1  10  -3  273.07   10.90
  -1  10  -3  270.87    9.90
  -2  10  -3   22.50    4.40
  -2  10  -3   17.70    3.70
  -2  10  -3   18.60    4.10
   4   9  -3   10.80    3.10
  -4  -9   3   11.60    3.50
   3   9  -3   79.99    5.30
   3   9  -3   84.19    5.20
  -3  -9   3   82.19    5.60
   2   9  -3   82.99    5.00
   1   9  -3  260.67    8.30
   1   9  -3  270.97    8.80
   1   9  -3  270.37    8.60
   0   9  -3  370.06   10.90
   0   9  -3  367.66   10.70
   0   9  -3  362.06   11.30
  -1   9  -3  123.89    6.30
  -1   9  -3  125.29    6.90
  -1   9  -3  127.09    6.70
  -2   9  -3    1.00    2.90
  -2   9  -3    3.20    2.70
  -2   9  -3    0.20    2.50
  -3   9  -3   39.90    5.90
  -3   9  -3   39.10    6.20
   3  -9   3   34.40    6.00
   4   8  -3  163.28    8.10
  -4  -8   3  162.48    8.60
   3   8  -3    7.40    2.10
   3   8  -3    5.70    2.20
  -3  -8   3    9.10    2.70
   2   8  -3  114.79    5.30
   2   8  -3  110.49    5.10
  -2  -8   3  108.39    5.30
   1   8  -3  470.85   11.90
   1   8  -3  467.15   11.40
   1   8  -3  473.35   12.10
   0   8  -3  186.38    7.30
   0   8  -3  188.98    6.70
   0   8  -3  190.38    6.90
  -1   8  -3  234.98    9.00
  -1   8  -3  232.28    8.60
  -1   8  -3  214.18    7.70
  -2   8  -3  544.05   16.10
  -2   8  -3  550.04   16.20
  -2   8  -3  550.14   14.30
  -3   8  -3  204.68   10.30
  -3   8  -3  220.88   10.20
   3  -8   3  197.98   10.90
   4   7  -3   83.69    6.00
  -4  -7   3   87.59    6.60
   3   7  -3    0.40    1.70
   3   7  -3    1.40    1.60
  -3  -7   3    2.90    2.10
   2   7  -3   69.09    4.10
   2   7  -3   75.69    4.10
  -2  -7   3   75.19    4.30
   1   7  -3 1128.69   22.80
   1   7  -3 1128.39   23.00
   1   7  -3 1141.69   22.30
  -1  -7   3 1116.69   22.20
   0   7  -3   37.10    3.10
   0   7  -3   40.20    3.10
   0   7  -3   41.80    3.50
  -1   7  -3    6.50    2.50
  -1   7  -3    5.20    1.90
  -1   7  -3    7.90    2.30
  -2   7  -3    9.30    3.00
  -2   7  -3   12.30    2.50
  -2   7  -3   10.30    3.40
  -3   7  -3  223.88   10.50
  -3   7  -3  249.97   10.70
   3  -7   3  235.48   11.30
  -4   7  -3   50.99    6.50
   4  -7   3   55.69    8.90
   4   6  -3 1026.40   24.70
  -4  -6   3 1044.10   25.20
   3   6  -3  181.88    7.50
   3   6  -3  196.78    7.00
  -3  -6   3  186.68    7.80
   2   6  -3   35.90    2.40
   2   6  -3   33.60    3.00
   2   6  -3   38.50    3.00
  -2  -6   3   37.00    3.20
   1   6  -3  943.71   19.10
   1   6  -3  913.81   18.80
   1   6  -3  921.21   18.20
  -1  -6   3  928.31   18.60
   0   6  -3 1157.28   24.00
   0   6  -3 1179.08   23.20
   0   6  -3 1177.38   23.40
   0  -6   3 1198.38   21.60
  -1   6  -3 1666.63   33.40
  -1   6  -3 1701.73   32.20
  -1   6  -3 1681.73   33.60
  -2   6  -3  621.34   14.30
  -2   6  -3  621.34   16.40
  -2   6  -3  628.74   16.40
  -3   6  -3    7.60    3.30
  -3   6  -3    5.90    3.00
   3  -6   3    1.70    2.80
  -4   6  -3   38.60    5.60
  -4   6  -3   42.40    5.70
   4  -6   3   47.50    6.80
   4   5  -3   41.60    4.70
  -4  -5   3   44.30    5.20
   3   5  -3    2.80    1.50
   3   5  -3    4.70    1.90
  -3  -5   3    5.20    2.20
   2   5  -3   37.30    2.80
   2   5  -3   34.90    2.20
  -2  -5   3   36.30    3.10
   1   5  -3  250.27    6.60
   1   5  -3  258.27    6.10
   1   5  -3  255.57    6.90
  -1  -5   3  252.67    6.70
   0   5  -3 1279.17   25.10
   0   5  -3 1293.07   25.00
   0   5  -3 1324.97   25.80
   0  -5   3 1364.86   23.90
  -1   5  -3  169.38    6.20
  -1   5  -3  161.58    5.30
  -1   5  -3  169.08    6.10
   1  -5   3  168.88    3.80
  -2   5  -3   24.80    2.60
  -2   5  -3   26.50    3.40
  -2   5  -3   28.50    3.60
   2  -5   3   20.50    3.40
  -3   5  -3   79.29    6.00
  -3   5  -3   89.99    6.20
   3  -5   3   88.29    6.80
  -4   5  -3  375.76   14.00
  -4   5  -3  354.36   12.90
   4  -5   3  343.47   14.30
   5   4  -3    4.50    3.10
  -5  -4   3   -0.10    3.30
   4   4  -3   13.00    3.00
  -4  -4   3   14.10    3.20
   3   4  -3   61.69    4.20
   3   4  -3   59.69    3.70
  -3  -4   3   58.89    4.40
   2   4  -3  554.64   11.00
   2   4  -3  523.55   12.20
   2   4  -3  542.35   10.80
  -2  -4   3  538.05   12.90
   1   4  -3   40.90    2.30
   1   4  -3   39.70    2.50
   1   4  -3   44.70    1.90
  -1  -4   3   42.40    2.60
   0   4  -3  196.88    5.70
   0   4  -3  188.98    5.20
   0   4  -3  183.68    5.10
   0  -4   3  181.08    4.40
  -1   4  -3   63.09    2.90
  -1   4  -3   65.69    3.60
  -1   4  -3   65.39    3.80
   1  -4   3   67.79    2.10
  -2   4  -3  193.78    7.00
  -2   4  -3  190.58    5.70
  -2   4  -3  192.98    7.40
   2  -4   3  201.98    5.10
   2  -4   3  200.98    8.00
  -3   4  -3  233.08    8.80
  -3   4  -3  240.58    9.50
   3  -4   3  222.98    9.90
  -4   4  -3    2.70    2.70
   4  -4   3    7.40    3.40
   5   3  -3   28.10    4.20
  -5  -3   3   35.20    5.20
   4   3  -3    9.80    2.50
  -4  -3   3    8.00    3.00
   3   3  -3   67.39    4.60
   3   3  -3   94.49    4.30
  -3  -3   3   72.99    4.80
   2   3  -3  239.28    6.70
   2   3  -3  238.38    5.60
   2   3  -3  236.88    5.60
  -2  -3   3  239.38    7.30
   1   3  -3  188.88    5.30
   1   3  -3  195.18    4.90
   1   3  -3  205.78    4.30
  -1  -3   3  199.28    5.50
   0   3  -3  495.85   10.20
   0   3  -3  500.95   10.20
   0   3  -3  505.05   10.80
   0  -3   3  504.15    9.70
  -1   3  -3 1417.16   27.10
  -1   3  -3 1391.46   25.70
  -1   3  -3 1417.86   27.30
   1  -3   3 1388.46   25.00
  -2   3  -3  329.07    7.70
  -2   3  -3  322.47    9.10
  -2   3  -3  332.87    9.90
   2  -3   3  324.07   10.20
   2  -3   3  329.77    7.60
  -3   3  -3   79.39    5.00
  -3   3  -3   88.19    5.70
   3  -3   3   84.19    6.10
   3  -3   3   81.29    3.80
  -4   3  -3  161.38    8.60
   4  -3   3  176.78    9.30
   5   2  -3  498.45   15.60
  -5  -2   3  493.75   15.90
   4   2  -3  366.56   11.90
  -4  -2   3  383.76   12.30
   3   2  -3  104.49    5.40
   3   2  -3  110.89    4.80
  -3  -2   3  121.49    5.80
   2   2  -3   96.99    3.90
   2   2  -3   98.39    3.40
   2   2  -3  106.59    3.20
  -2  -2   3  106.89    4.50
   1   2  -3  217.78    5.60
   1   2  -3  220.68    5.20
   1   2  -3  229.98    4.40
  -1  -2   3  225.68    5.80
   0   2  -3  475.05    9.90
   0   2  -3  485.85    9.50
   0   2  -3  484.45    9.50
   0  -2   3  480.15    9.20
  -1   2  -3   32.70    2.40
  -1   2  -3   33.30    2.50
  -1   2  -3   37.10    1.70
   1  -2   3   32.20    1.50
   1  -2   3   33.50    2.60
  -2   2  -3  233.68    7.70
  -2   2  -3  232.38    7.00
  -2   2  -3  232.98    5.60
   2  -2   3  231.18    6.10
   2  -2   3  239.48    8.00
  -3   2  -3    7.00    2.50
  -3   2  -3    7.30    2.10
   3  -2   3    9.20    1.80
   3  -2   3    3.40    2.50
  -4   2  -3   22.80    3.90
   4  -2   3   16.90    3.90
   4  -2   3   11.30    2.40
  -5   2  -3    4.00    3.10
   5  -2   3    4.80    3.50
   5   1  -3    1.70    2.40
  -5  -1   3    4.00    3.20
   4   1  -3  280.17   10.00
  -4  -1   3  291.57   10.50
   3   1  -3  941.81   21.30
   3   1  -3  947.41   20.50
   3   1  -3  994.40   20.40
  -3  -1   3  972.70   21.50
  -3  -1   3  979.70   19.80
  -3  -1   3  977.90   20.70
  -3  -1   3  993.30   20.30
   2   1  -3  740.93   15.60
   2   1  -3  752.42   15.20
   2   1  -3  754.22   14.60
  -2  -1   3  765.52   15.90
  -2  -1   3  755.52   16.20
  -2  -1   3  753.02   15.10
  -2  -1   3  766.42   15.10
   1   1  -3  282.37    6.70
   1   1  -3  293.57    6.10
   1   1  -3  281.77    5.60
  -1  -1   3  292.67    6.80
  -1  -1   3  296.17    6.90
   0   1  -3  635.24   11.70
   0   1  -3  635.34   12.10
   0   1  -3  615.34   11.60
   0  -1   3  642.04   11.60
   0  -1   3  609.44   11.70
  -1   1  -3   71.39    2.90
  -1   1  -3   74.49    2.00
  -1   1  -3   73.99    3.10
   1  -1   3   72.29    3.30
   1  -1   3   71.79    2.30
  -2   1  -3   97.49    4.70
  -2   1  -3   93.59    2.90
  -2   1  -3  103.59    4.00
  -2   1  -3   92.69    4.00
   2  -1   3   95.19    4.80
   2  -1   3   94.89    2.80
   2  -1   3   89.69    3.50
  -3   1  -3   18.70    2.50
  -3   1  -3   18.20    2.90
  -3   1  -3   19.90    2.70
   3  -1   3   21.50    3.50
   3  -1   3   16.60    2.10
  -4   1  -3   93.09    6.20
  -4   1  -3   86.09    5.70
   4  -1   3   76.19    6.20
   4  -1   3   85.69    5.00
   5  -1   3   14.80    4.00
   5  -1   3    9.80    2.90
   5   0  -3   35.60    4.80
  -5   0   3   24.10    4.50
   4   0  -3  136.89    6.80
  -4   0   3  138.89    7.10
   3   0  -3  208.68    5.90
   3   0  -3  198.88    7.10
   3   0  -3  201.48    6.60
   3   0  -3  207.28    7.30
  -3   0   3  202.18    6.80
  -3   0   3  200.68    6.90
  -3   0   3  199.28    7.40
  -3   0   3  194.48    6.70
   2   0  -3  341.97    8.50
   2   0  -3  344.57    8.40
   2   0  -3  339.57    7.70
  -2   0   3  358.56    9.00
  -2   0   3  332.37    8.60
  -2   0   3  337.77    8.20
  -2   0   3  360.06    8.50
   1   0  -3  184.48    4.50
   1   0  -3  194.68    4.90
  -1   0   3  189.58    4.20
  -1   0   3  185.98    5.00
  -1   0   3  189.68    4.90
  -1   0   3  191.68    5.00
   0   0  -3   19.30    1.20
   0   0  -3   17.80    1.30
   0   0   3   16.00    1.20
   0   0   3   15.10    1.10
   0   0   3   19.50    1.00
  -1   0  -3 8983.00  161.08
  -1   0  -3 9142.79  159.18
   1   0   3 8855.11  165.28
   1   0   3 9274.87  162.58
  -2   0  -3 2574.04   46.90
  -2   0  -3 2628.44   47.60
  -2   0  -3 2661.13   48.70
  -2   0  -3 2610.14   45.80
   2   0   3 2546.25   48.80
   2   0   3 2682.83   47.40
   2   0   3 2648.94   45.70
  -3   0  -3  272.57    8.40
  -3   0  -3  264.77    7.50
  -3   0  -3  273.17    9.10
   3   0   3  271.27    9.50
   3   0   3  268.27    8.10
  -4   0  -3   -0.80    2.30
   4   0   3    1.50    2.60
   4   0   3    1.50    1.70
   5   0   3   61.39    5.30
   5   0   3   68.79    6.50
   5  -1  -3   22.90    4.00
  -5   1   3   23.10    4.30
   4  -1  -3   -2.20    1.70
  -4   1   3    1.70    2.40
   3  -1  -3  109.89    5.20
   3  -1  -3  112.19    4.40
   3  -1  -3  106.39    4.70
   3  -1  -3  104.59    5.40
  -3   1   3  109.79    5.40
  -3   1   3  103.29    5.00
  -3   1   3  101.19    5.20
  -3   1   3  106.59    5.10
   2  -1  -3   97.79    4.20
   2  -1  -3  104.89    3.90
   2  -1  -3   97.59    3.60
  -2   1   3  107.19    4.30
  -2   1   3  101.59    4.10
  -2   1   3   99.19    4.40
  -2   1   3   92.19    4.10
   1  -1  -3    9.70    1.30
   1  -1  -3    8.10    1.10
  -1   1   3    9.90    1.50
  -1   1   3    8.20    1.20
  -1   1   3    7.00    1.00
  -1   1   3    5.80    1.40
   0  -1  -3  697.13   12.90
   0   1   3  712.63   12.80
   0   1   3  694.43   12.60
   0   1   3  687.03   12.80
  -1  -1  -3  240.98    5.20
   1   1   3  250.47    5.60
   1   1   3  243.68    4.40
   1   1   3  238.38    6.20
  -2  -1  -3    4.40    1.30
  -2  -1  -3    3.70    1.00
   2   1   3    1.60    1.60
   2   1   3    3.20    1.10
   2   1   3    2.90    0.70
  -3  -1  -3  335.77    9.70
   3   1   3  329.57    9.40
   3   1   3  325.27   10.40
  -4  -1  -3  180.38    8.00
   4   1   3  179.08    8.40
   4   1   3  188.98    7.60
   5   1   3   10.40    3.10
   4  -2  -3   44.70    4.20
  -4   2   3   36.40    4.50
  -4   2   3   40.50    4.40
   3  -2  -3  599.74   14.00
   3  -2  -3  606.84   15.50
   3  -2  -3  597.24   13.50
   3  -2  -3  601.84   14.30
  -3   2   3  594.84   14.40
  -3   2   3  592.24   14.90
  -3   2   3  592.44   14.90
  -3   2   3  579.14   14.20
   2  -2  -3 1358.36   26.50
   2  -2  -3 1420.96   27.00
   2  -2  -3 1395.96   26.90
  -2   2   3 1448.46   27.10
  -2   2   3 1391.76   27.90
  -2   2   3 1420.06   27.10
  -2   2   3 1430.36   27.50
   1  -2  -3  353.06    7.80
  -1   2   3  360.46    7.90
  -1   2   3  362.86    7.70
  -1   2   3  364.76    8.20
  -1   2   3  360.46    8.70
   0  -2  -3  935.11   17.00
   0   2   3  960.90   17.20
   0   2   3  930.81   17.20
   0   2   3  928.31   17.50
   0   2   3  904.31   16.60
  -1  -2  -3  271.57    5.40
   1   2   3  262.37    6.50
   1   2   3  267.97    6.10
   1   2   3  275.77    5.40
  -2  -2  -3  725.93   13.70
  -2  -2  -3  756.72   15.80
   2   2   3  764.22   15.70
   2   2   3  742.63   13.80
   2   2   3  734.43   16.20
  -3  -2  -3  330.27    9.80
   3   2   3  341.37    9.60
   3   2   3  328.67   10.20
  -4  -2  -3   65.89    5.10
   4   2   3   68.39    5.50
   4   2   3   64.79    4.70
  -5  -2  -3   -4.00    2.80
   5   2   3   -2.10    2.10
   4  -3  -3    5.90    5.00
  -4   3   3    3.20    2.30
   3  -3  -3  134.39    5.50
   3  -3  -3  135.09    6.70
   3  -3  -3  143.49    5.80
   3  -3  -3  134.89    5.50
  -3   3   3  145.49    6.10
  -3   3   3  136.09    5.70
  -3   3   3  137.09    6.40
  -3   3   3  128.79    6.70
   2  -3  -3  170.68    5.20
   2  -3  -3  166.18    5.40
  -2   3   3  169.58    5.30
  -2   3   3  175.68    6.50
  -2   3   3  170.98    5.80
  -2   3   3  163.48    5.90
   1  -3  -3   61.19    2.80
  -1   3   3   61.79    2.80
  -1   3   3   58.79    2.90
  -1   3   3   59.69    3.50
  -1   3   3   58.29    2.30
   0  -3  -3  237.38    5.40
   0   3   3  227.58    4.70
   0   3   3  235.88    5.60
   0   3   3  236.88    5.70
   0   3   3  245.28    6.10
  -1  -3  -3  285.27    5.60
  -1  -3  -3  285.67    6.60
   1   3   3  270.97    6.70
   1   3   3  280.37    6.40
   1   3   3  283.97    6.00
  -2  -3  -3  455.45   10.80
   2   3   3  451.65   10.60
   2   3   3  447.46   10.90
   2   3   3  443.66    9.10
  -3  -3  -3  314.57    9.60
   3   3   3  301.57    9.20
   3   3   3  328.47    9.80
  -4  -3  -3    0.10    2.20
   4   3   3    2.60    2.20
   4   3   3    0.80    1.80
  -5  -3  -3    2.70    3.40
   5   3   3    5.10    2.70
   4  -4  -3   14.80    3.80
   4  -4  -3   17.00    4.70
  -4   4   3   10.10    3.40
  -4   4   3   17.00    3.70
   3  -4  -3   73.09    4.40
   3  -4  -3   76.99    4.50
   3  -4  -3   61.29    5.10
  -3   4   3   67.79    5.50
  -3   4   3   66.29    5.00
  -3   4   3   62.39    4.50
   2  -4  -3    7.00    1.30
   2  -4  -3    6.90    1.60
  -2   4   3    5.70    1.80
  -2   4   3    7.30    1.90
  -2   4   3    4.20    2.10
  -2   4   3    6.40    1.40
   1  -4  -3  285.97    7.20
  -1   4   3  289.87    6.10
  -1   4   3  283.57    7.50
  -1   4   3  285.87    7.50
  -1   4   3  292.27    8.30
   0  -4  -3  246.78    5.90
   0   4   3  252.27    4.90
   0   4   3  247.68    6.20
   0   4   3  252.47    6.40
   0   4   3  249.48    6.70
  -1  -4  -3 1026.90   18.60
   1   4   3 1035.80   19.10
   1   4   3 1021.70   19.40
   1   4   3 1069.09   20.10
   1   4   3 1029.30   19.40
  -2  -4  -3  520.85   12.00
   2   4   3  510.75   10.50
   2   4   3  498.35   11.60
   2   4   3  497.75   11.80
  -3  -4  -3   40.80    3.70
   3   4   3   38.10    3.40
   3   4   3   36.80    3.60
  -4  -4  -3   59.19    5.20
   4   4   3   64.59    5.00
   4   4   3   66.29    4.70
  -5  -4  -3  256.37   11.20
   5   4   3  240.08   10.00
   4  -5  -3   -1.70    2.20
   4  -5  -3    0.30    2.70
  -4   5   3   -1.30    3.00
  -4   5   3   -1.00    2.30
   3  -5  -3   45.30    4.10
   3  -5  -3   43.60    5.10
  -3   5   3   36.70    4.30
  -3   5   3   44.00    5.00
  -3   5   3   49.60    4.50
   2  -5  -3 1281.77   25.80
  -2   5   3 1313.67   27.60
  -2   5   3 1268.97   26.00
  -2   5   3 1293.87   26.90
  -1   5   3 1118.99   23.20
  -1   5   3 1132.89   22.40
  -1   5   3 1089.79   22.10
  -1   5   3 1085.59   19.80
   0  -5  -3  758.42   15.20
   0   5   3  781.22   15.70
   0   5   3  783.52   15.90
   0   5   3  769.62   13.80
   0   5   3  753.22   16.10
  -1  -5  -3   35.50    1.70
   1   5   3   38.30    2.70
   1   5   3   35.50    2.20
   1   5   3   36.60    2.20
   1   5   3   35.10    1.90
  -2  -5  -3  116.09    4.70
   2   5   3  125.09    4.90
   2   5   3  118.59    4.00
   2   5   3  121.49    4.60
  -3  -5  -3   -1.60    1.80
   3   5   3    1.80    1.90
   3   5   3   -1.10    1.40
  -4  -5  -3  106.39    6.40
   4   5   3  114.89    6.10
   4   5   3  107.89    6.00
   4  -6  -3   25.50    4.00
   4  -6  -3   31.70    5.30
  -4   6   3   32.30    5.60
  -4   6   3   26.20    4.40
   3  -6  -3   54.89    4.90
  -3   6   3   44.70    4.60
  -3   6   3   35.70    4.40
  -3   6   3   41.30    5.40
   2  -6  -3  463.75   11.90
  -2   6   3  432.16   11.90
  -2   6   3  464.45   12.80
  -2   6   3  479.15   13.60
  -1   6   3  387.96   10.30
  -1   6   3  402.76   10.30
  -1   6   3  392.96   11.20
   0   6   3  101.79    2.40
   0   6   3  107.39    4.60
   0   6   3  100.89    4.60
   0   6   3  110.29    4.40
  -1  -6  -3  212.98    5.20
   1   6   3  215.88    6.00
   1   6   3  218.88    5.40
   1   6   3  202.68    6.10
   1   6   3  217.78    6.40
  -2  -6  -3  466.25   11.30
   2   6   3  456.45   11.20
   2   6   3  447.26   10.90
   2   6   3  454.05   10.50
  -3  -6  -3   73.19    4.90
   3   6   3   76.09    4.80
   3   6   3   68.89    4.40
  -4  -6  -3   23.50    3.90
   4   6   3   24.70    3.70
   4   6   3   17.40    3.40
   4  -7  -3   64.29    7.30
   4  -7  -3   65.99    5.90
  -4   7   3   48.00    6.30
  -4   7   3   68.79    6.80
   3  -7  -3  178.58    7.80
  -3   7   3  178.68    9.40
  -3   7   3  186.98    8.90
  -3   7   3  187.78    8.30
   2  -7  -3  460.45   12.30
  -2   7   3  461.55   12.50
  -2   7   3  450.55   13.90
  -2   7   3  452.85   13.20
  -1   7   3 1148.79   25.40
  -1   7   3 1159.28   24.10
  -1   7   3 1184.98   24.60
   0   7   3  747.73   16.60
   0   7   3  750.42   17.10
   0   7   3  783.12   16.90
  -1  -7  -3  524.15   11.00
   1   7   3  508.65   10.70
   1   7   3  529.15   12.00
   1   7   3  530.55   12.30
   1   7   3  530.05   12.30
  -2  -7  -3   19.60    2.40
   2   7   3   21.10    2.90
   2   7   3   14.70    2.10
   2   7   3   19.10    2.30
  -3  -7  -3   42.70    4.00
   3   7   3   31.60    3.30
   3   7   3   32.80    3.80
  -4  -7  -3  294.37   11.00
   4   7   3  282.27   10.20
   3  -8  -3   65.19    5.70
  -3   8   3   58.29    6.30
  -3   8   3   66.39    5.90
  -3   8   3   66.19    6.10
   2  -8  -3   12.20    3.10
  -2   8   3    7.00    3.40
  -2   8   3    8.80    2.90
  -2   8   3   12.00    3.00
  -1   8   3   24.70    3.20
  -1   8   3   28.20    4.10
  -1   8   3   37.00    3.80
   0   8   3 1679.73   34.30
   0   8   3 1769.42   33.90
   0   8   3 1698.13   33.90
  -1  -8  -3 1682.93   30.90
   1   8   3 1678.43   32.40
   1   8   3 1598.14   32.30
   1   8   3 1675.43   32.10
  -2  -8  -3 1063.59   22.40
   2   8   3 1087.09   22.00
   2   8   3 1099.79   22.90
   2   8   3 1104.99   22.60
  -3  -8  -3  164.68    7.10
   3   8   3  170.58    6.80
   3   8   3  170.48    7.10
  -4  -8  -3   39.60    4.80
   4   8   3   50.79    4.70
   3  -9  -3  208.98    9.30
  -3   9   3  197.28   10.10
  -3   9   3  202.08    9.40
  -3   9   3  215.08   11.30
   2  -9  -3   97.39    5.90
  -2   9   3  105.49    6.40
  -2   9   3   86.39    6.80
  -2   9   3  110.29    6.90
  -1   9   3    0.60    2.30
  -1   9   3    3.90    2.30
  -1   9   3    3.40    2.90
   0   9   3  749.92   18.30
   0   9   3  741.03   17.90
   0   9   3  767.12   17.80
  -1  -9  -3   89.59    4.00
   1   9   3   86.89    4.90
   1   9   3   82.19    5.00
   2   9   3    8.00    2.60
   2   9   3    8.20    2.30
  -3  -9  -3    3.60    2.20
   3   9   3    2.10    1.70
   3   9   3   -1.80    2.50
  -4  -9  -3   34.70    4.90
   4   9   3   35.90    4.30
  -3  10   3    8.70    3.70
  -3  10   3    3.90    3.50
   2 -10  -3    6.40    3.20
  -2  10   3    5.90    3.20
  -2  10   3    5.50    3.60
  -2  10   3    0.80    2.50
   1 -10  -3   45.20    4.60
  -1  10   3   36.40    4.50
  -1  10   3   41.60    5.50
  -1  10   3   43.50    4.80
   0 -10  -3    2.10    2.10
   0  10   3    1.00    2.20
   0  10   3   -0.30    2.40
   0  10   3    0.60    2.40
   1  10   3  758.12   18.20
   1  10   3  784.12   18.50
   2  10   3  664.53   16.50
   2  10   3  703.33   16.80
   3  10   3  187.78    7.90
  -4 -10  -3   12.10    3.80
   4  10   3   19.00    3.50
   2 -11  -3  120.29    7.50
  -2  11   3  105.79    7.30
  -2  11   3  111.79    8.00
  -2  11   3  121.19    8.50
   1 -11  -3  168.38    7.80
  -1  11   3  169.98    9.20
  -1  11   3  156.38    8.30
  -1  11   3  157.98    8.10
   0 -11  -3  166.68    7.00
   0  11   3  183.48    8.70
   0  11   3  162.48    7.80
   0  11   3  164.98    8.00
   1  11   3   67.29    5.70
   1  11   3   61.29    5.10
   2  11   3    5.30    2.60
   2  11   3    4.10    2.70
  -2  12   3   14.10    7.10
   1 -12  -3   20.40    3.90
  -1  12   3   29.30    4.80
  -1  12   3   31.00    5.40
  -1  12   3   19.10    4.00
   0 -12  -3   17.50    3.30
   0  12   3   16.20    4.10
   0  12   3   14.00    3.70
   0  12   3   15.70    3.70
   1  12   3   39.30    5.00
   1  12   3   52.49    5.20
   2  12   3    7.60    3.10
   2  12   3   -0.40    2.70
   1 -13  -3   83.09    6.90
  -1  13   3  103.49    8.70
  -1  13   3   99.39   11.50
  -1  13   3   99.89    8.50
   0  13   3   85.89    6.90
   0  13   3   85.29    7.00
   1  13   3   41.60    5.20
   1  13   3   43.30    5.40
   2  13   3   81.89    6.40
   2  13   3   85.39    6.70
   1  14   3   55.59    6.20
   2  14   3   40.10    5.40
   1  13  -4  100.89    7.30
   0  13  -4   10.10    4.50
   0  13  -4   14.40    4.00
   0  13  -4   15.50    3.90
  -1  13  -4    4.80    3.90
   3  12  -4   80.49    6.20
   2  12  -4  112.69    7.00
   1  12  -4   28.50    4.30
   0  12  -4   48.40    5.60
   0  12  -4   42.10    5.00
   0  12  -4   59.29    5.80
  -1  12  -4   12.00    4.00
  -1  12  -4   10.10    3.90
  -1  12  -4    7.90    3.60
  -2  12  -4   15.60    4.30
   3  11  -4   20.30    3.50
   2  11  -4   31.50    4.10
   1  11  -4   47.80    4.70
   0  11  -4  179.38    8.10
   0  11  -4  177.38    8.20
   0  11  -4  183.68    8.70
  -1  11  -4   63.79    6.00
  -1  11  -4   51.89    5.80
  -1  11  -4   52.39    5.80
  -2  11  -4   36.10    5.50
  -2  11  -4   42.80    5.80
  -2  11  -4   47.70    5.30
   4  10  -4    4.60    2.70
  -4 -10   4    2.20    3.10
   3  10  -4  227.88    9.00
   2  10  -4   83.29    5.40
   1  10  -4   45.50    4.60
   1  10  -4   50.09    4.90
   0  10  -4   10.40    3.00
   0  10  -4   13.30    3.10
   0  10  -4   11.40    2.80
  -1  10  -4   14.10    3.40
  -1  10  -4    8.70    3.30
  -1  10  -4   15.50    3.40
  -2  10  -4   34.60    4.50
  -2  10  -4   38.60    5.70
  -2  10  -4   35.20    5.20
   4   9  -4  105.39    6.80
  -4  -9   4  112.69    7.60
   3   9  -4  572.84   15.70
   3   9  -4  575.84   15.30
  -3  -9   4  607.84   16.30
   2   9  -4  886.01   20.30
   1   9  -4  389.76   11.10
   1   9  -4  384.06   11.00
   1   9  -4  384.66   10.50
   0   9  -4  321.97   10.10
   0   9  -4  333.47   10.70
   0   9  -4  310.87    9.80
  -1   9  -4   14.10    3.40
  -1   9  -4   13.40    3.00
  -1   9  -4   24.20    3.50
  -2   9  -4  108.29    6.10
  -2   9  -4  106.29    7.40
  -2   9  -4   96.49    6.90
  -3   9  -4    5.00    3.90
  -3   9  -4    0.30    2.80
   3  -9   4    4.10    3.70
   4   8  -4    1.90    2.50
  -4  -8   4    0.10    2.70
   3   8  -4   28.30    3.70
   3   8  -4   35.40    3.80
  -3  -8   4   23.70    3.60
   2   8  -4  469.05   12.30
   2   8  -4  492.05   12.70
  -2  -8   4  477.65   12.60
   1   8  -4  387.86   10.60
   1   8  -4  392.76   10.70
   1   8  -4  394.66   10.10
   0   8  -4  280.17    8.60
   0   8  -4  286.57    9.40
   0   8  -4  281.57    8.80
  -1   8  -4   34.00    4.20
  -1   8  -4   35.00    3.60
  -1   8  -4   31.10    3.90
  -2   8  -4   27.30    4.20
  -2   8  -4   37.30    5.00
  -2   8  -4   31.90    3.70
  -3   8  -4   81.99    7.10
  -3   8  -4   96.59    7.60
   3  -8   4   90.09    7.60
   4   7  -4   95.69    6.50
  -4  -7   4  101.09    7.10
   3   7  -4   -1.80    1.80
   3   7  -4   -1.70    1.30
  -3  -7   4    1.50    2.10
   2   7  -4  106.19    5.00
  -2  -7   4  108.09    5.20
   1   7  -4   50.69    3.50
   1   7  -4   57.09    3.60
   1   7  -4   59.79    3.20
  -1  -7   4   57.69    3.20
   0   7  -4   11.90    2.10
   0   7  -4   14.70    2.50
   0   7  -4   14.90    2.30
  -1   7  -4    7.30    2.10
  -1   7  -4   10.80    2.30
  -1   7  -4    8.60    2.70
  -2   7  -4  434.16   13.50
  -2   7  -4  437.66   13.50
  -2   7  -4  432.66   11.60
  -3   7  -4 1367.06   32.10
  -3   7  -4 1350.46   31.20
   3  -7   4 1322.17   32.80
  -4   7  -4  618.34   19.40
   4   6  -4   49.30    5.10
  -4  -6   4   55.79    5.90
   3   6  -4  253.27    9.10
   3   6  -4  277.07    8.70
  -3  -6   4  269.07    9.50
   2   6  -4  162.28    5.90
  -2  -6   4  154.38    6.10
   1   6  -4  129.79    5.00
   1   6  -4  133.19    4.30
   1   6  -4  133.09    4.90
  -1  -6   4  135.59    4.70
   0   6  -4   72.89    3.60
   0   6  -4   62.69    3.40
   0   6  -4   66.39    3.90
   0  -6   4   71.59    2.70
  -1   6  -4  185.28    7.10
  -1   6  -4  183.98    6.90
  -1   6  -4  190.98    6.20
  -2   6  -4   36.60    4.30
  -2   6  -4   33.10    3.20
  -2   6  -4   36.30    4.20
   2  -6   4   37.60    4.80
  -3   6  -4    0.70    2.70
  -3   6  -4    2.80    2.60
   3  -6   4    1.00    2.90
  -4   6  -4    1.10    3.00
  -4   6  -4    2.50    3.50
   4  -6   4    3.20    3.90
   4   5  -4    1.40    2.10
  -4  -5   4   -3.20    2.30
   3   5  -4  640.04   16.40
   3   5  -4  645.84   15.30
  -3  -5   4  658.93   16.70
   2   5  -4  145.69    5.40
  -2  -5   4  146.99    5.70
   1   5  -4   14.80    1.90
   1   5  -4   16.60    2.00
   1   5  -4   17.00    1.50
  -1  -5   4   20.00    2.10
   0   5  -4  375.26    8.90
   0   5  -4  366.96    9.60
   0   5  -4  378.86    9.10
   0  -5   4  381.36    8.10
  -1   5  -4   70.89    4.30
  -1   5  -4   72.69    3.40
  -1   5  -4   71.29    4.10
   1  -5   4   76.09    2.40
  -2   5  -4  202.68    7.60
  -2   5  -4  178.28    7.60
  -2   5  -4  178.18    5.90
   2  -5   4  179.98    8.00
  -3   5  -4  191.18    8.40
  -3   5  -4  181.78    8.60
   3  -5   4  185.88    9.40
  -4   5  -4   15.70    4.20
  -4   5  -4   16.00    4.30
   4  -5   4   14.30    4.50
   4   4  -4  252.67    9.90
  -4  -4   4  264.37   10.40
   3   4  -4    2.10    1.90
   3   4  -4    2.70    1.60
  -3  -4   4    1.40    2.00
   2   4  -4  162.38    4.20
   2   4  -4  173.88    5.70
   2   4  -4  158.18    4.60
  -2  -4   4  160.78    5.90
   1   4  -4   71.49    2.30
   1   4  -4   71.39    3.20
   1   4  -4   65.79    3.00
  -1  -4   4   67.19    3.20
   0   4  -4    2.80    1.40
   0   4  -4    3.40    1.10
   0   4  -4    3.50    1.10
   0  -4   4    2.50    0.80
  -1   4  -4   31.70    2.20
  -1   4  -4   32.40    3.00
  -1   4  -4   31.30    2.70
   1  -4   4   33.90    1.70
  -2   4  -4    3.30    2.00
  -2   4  -4    2.40    1.60
  -2   4  -4    1.60    1.30
   2  -4   4    3.40    2.10
   2  -4   4    2.40    0.90
  -3   4  -4   40.80    4.40
  -3   4  -4   35.80    4.30
   3  -4   4   44.80    5.40
  -4   4  -4  140.99    8.60
   4  -4   4  155.78    9.50
   5   3  -4  160.68    8.80
  -5  -3   4  155.08    9.00
   4   3  -4  135.69    7.10
  -4  -3   4  126.69    7.10
   3   3  -4   91.99    5.10
   3   3  -4  110.99    5.00
  -3  -3   4  101.49    5.60
   2   3  -4 1060.79   19.50
   2   3  -4 1084.59   20.20
   2   3  -4 1053.69   21.40
  -2  -3   4 1077.99   22.20
   1   3  -4 1739.03   32.50
   1   3  -4 1831.52   31.30
   1   3  -4 1807.82   33.00
   0   3  -4  431.46    9.80
   0   3  -4  430.46    9.20
   0   3  -4  441.66    9.30
   0  -3   4  440.76    8.80
  -1   3  -4   10.10    1.90
  -1   3  -4    8.40    1.90
  -1   3  -4    7.60    1.20
   1  -3   4    9.70    1.00
   1  -3   4   11.30    2.10
  -2   3  -4  103.79    4.90
  -2   3  -4  104.09    3.50
  -2   3  -4  106.99    5.40
   2  -3   4  110.79    3.60
   2  -3   4  102.49    5.60
  -3   3  -4  356.36   10.80
  -3   3  -4  375.36   12.10
   3  -3   4  369.96   12.60
   3  -3   4  338.37    9.10
  -4   3  -4  142.89    8.30
   4  -3   4  145.59    8.90
   5   2  -4   52.19    5.30
  -5  -2   4   45.40    5.70
   4   2  -4   40.80    4.70
  -4  -2   4   32.10    4.30
   3   2  -4  134.09    5.50
   3   2  -4  121.69    5.70
  -3  -2   4  125.89    6.10
   2   2  -4   67.29    2.70
   2   2  -4   74.49    3.60
   2   2  -4   74.19    2.60
  -2  -2   4   76.09    4.00
   1   2  -4    4.60    1.20
   1   2  -4    4.00    1.00
   1   2  -4    3.30    0.40
  -1  -2   4    2.70    1.00
   0   2  -4 2105.29   38.60
   0   2  -4 2190.98   38.10
   0   2  -4 2145.39   38.00
   0  -2   4 2150.58   37.80
  -1   2  -4 1228.68   22.00
  -1   2  -4 1224.98   23.90
  -1   2  -4 1229.48   23.60
   1  -2   4 1196.38   22.10
   1  -2   4 1240.38   24.30
  -2   2  -4 1130.19   23.80
  -2   2  -4 1093.99   20.50
  -2   2  -4 1116.79   22.60
   2  -2   4 1136.19   21.30
   2  -2   4 1093.89   24.00
  -3   2  -4  188.58    8.10
  -3   2  -4  195.38    7.20
   3  -2   4  204.28    8.80
   3  -2   4  189.18    6.30
  -4   2  -4   -0.20    2.20
   4  -2   4    4.20    2.90
   4  -2   4    2.80    1.80
  -5   2  -4    5.00    3.60
   5  -2   4   11.10    3.90
   5   1  -4  152.38    8.30
  -5  -1   4  146.09    8.70
   4   1  -4  235.38    9.20
  -4  -1   4  240.28    9.60
   3   1  -4   33.70    3.40
   3   1  -4   40.50    3.30
  -3  -1   4   38.40    3.80
  -3  -1   4   38.80    3.50
  -3  -1   4   38.80    2.80
   2   1  -4   70.69    3.40
   2   1  -4   68.39    2.80
   2   1  -4   71.19    2.90
  -2  -1   4   71.79    3.70
  -2  -1   4   70.59    2.80
  -2  -1   4   70.39    3.70
   1   1  -4  139.79    3.80
   1   1  -4  138.39    4.20
  -1  -1   4  139.29    4.20
  -1  -1   4  135.29    4.40
   0   1  -4  510.85    9.90
   0   1  -4  512.45   10.00
   0   1  -4  522.35   10.50
   0  -1   4  531.95   10.00
   0  -1   4  501.65   10.00
  -1   1  -4  508.35    9.30
  -1   1  -4  513.95   10.80
  -1   1  -4  501.45   11.20
   1  -1   4  485.25   11.40
   1  -1   4  514.05    9.90
  -2   1  -4  943.81   20.30
  -2   1  -4  950.10   17.10
  -2   1  -4  946.71   19.00
   2  -1   4  933.61   18.40
   2  -1   4  908.31   20.50
  -3   1  -4   39.80    4.00
  -3   1  -4   41.30    3.30
   3  -1   4   50.49    5.20
   3  -1   4   36.60    2.90
  -4   1  -4  381.66   13.10
   4  -1   4  391.46   11.30
   4  -1   4  396.16   13.80
   5  -1   4  235.78   11.60
   5  -1   4  236.98    9.40
   5   0  -4    2.80    2.70
  -5   0   4    3.40    3.30
   4   0  -4    5.50    2.40
  -4   0   4    4.50    2.40
  -4   0   4    4.60    2.60
   3   0  -4   16.60    2.50
   3   0  -4   20.70    2.20
   3   0  -4   16.20    2.60
   3   0  -4   17.00    2.50
  -3   0   4   24.40    2.90
  -3   0   4   22.30    3.00
  -3   0   4   18.90    3.00
  -3   0   4   21.00    2.60
   2   0  -4    1.70    1.00
   2   0  -4    1.70    1.10
   2   0  -4    0.20    0.90
  -2   0   4   -1.00    1.30
  -2   0   4    1.50    1.40
  -2   0   4   -0.20    1.40
  -2   0   4    0.90    1.00
   1   0  -4  160.48    4.20
   1   0  -4  160.78    4.50
  -1   0   4  164.18    4.60
  -1   0   4  159.98    3.60
  -1   0   4  158.38    4.70
   0   0  -4  323.97    6.90
   0   0  -4  326.37    6.60
   0   0   4  320.07    6.50
   0   0   4  324.77    6.60
   0   0   4  319.27    6.70
  -1   0  -4 1227.28   23.50
  -1   0  -4 1248.38   22.80
   1   0   4 1244.28   22.40
   1   0   4 1204.68   23.60
  -2   0  -4  323.27    6.30
  -2   0  -4  315.47    7.80
  -2   0  -4  315.77    9.00
   2   0   4  315.67    7.90
   2   0   4  324.07    6.20
   2   0   4  309.67    9.20
  -3   0  -4    0.20    1.60
  -3   0  -4   -0.50    1.60
  -3   0  -4   -0.40    1.20
   3   0   4   -0.20    1.10
   3   0   4   -2.80    1.80
   4   0   4    4.60    2.10
   4   0   4    6.20    3.00
   5   0   4   24.90    3.70
   5   0   4   39.10    5.30
   5  -1  -4   68.09    5.90
  -5   1   4   70.99    6.80
   4  -1  -4   15.10    2.90
  -4   1   4   21.60    3.60
  -4   1   4   18.90    3.50
   3  -1  -4  868.21   19.10
   3  -1  -4  834.62   17.50
   3  -1  -4  831.02   19.00
   3  -1  -4  838.42   18.30
  -3   1   4  836.82   19.00
  -3   1   4  827.82   18.60
  -3   1   4  858.51   18.90
  -3   1   4  819.62   18.50
   2  -1  -4 1336.17   26.20
   2  -1  -4 1357.16   26.50
   2  -1  -4 1375.16   25.70
  -2   1   4 1395.16   26.70
  -2   1   4 1360.86   26.80
  -2   1   4 1365.06   26.10
  -2   1   4 1383.76   26.70
   1  -1  -4  611.84   12.50
   1  -1  -4  616.24   12.30
  -1   1   4  619.94   12.40
  -1   1   4  632.14   11.90
  -1   1   4  619.64   12.70
   0  -1  -4    1.30    0.90
   0   1   4    1.60    0.70
   0   1   4    2.80    0.90
   0   1   4    0.70    0.80
  -1  -1  -4  619.14   12.00
   1   1   4  637.74   12.20
   1   1   4  622.54   13.10
  -2  -1  -4 1891.01   34.70
  -2  -1  -4 1845.92   33.30
   2   1   4 1857.41   34.30
   2   1   4 1783.72   35.50
   2   1   4 1850.61   31.90
  -3  -1  -4  538.05   13.50
   3   1   4  546.45   13.20
   3   1   4  553.64   14.70
  -4  -1  -4  191.68    8.30
   4   1   4  169.48    8.40
   4   1   4  178.58    7.30
   5   1   4   72.89    5.70
   5   1   4   65.29    6.40
   4  -2  -4  668.33   17.30
  -4   2   4  694.63   17.60
  -4   2   4  676.93   18.70
   3  -2  -4  901.21   20.90
   3  -2  -4  930.81   19.30
   3  -2  -4  923.51   19.90
   3  -2  -4  944.91   20.30
  -3   2   4  928.01   20.30
  -3   2   4  894.61   20.60
  -3   2   4  930.71   20.30
  -3   2   4  913.41   20.50
   2  -2  -4 1336.27   26.10
   2  -2  -4 1285.47   25.60
  -2   2   4 1361.86   27.00
  -2   2   4 1383.86   26.50
  -2   2   4 1380.96   26.20
  -2   2   4 1335.07   26.20
   1  -2  -4  122.49    3.80
  -1   2   4  128.69    3.70
  -1   2   4  124.29    3.70
  -1   2   4  125.89    4.50
  -1   2   4  135.19    4.30
   0  -2  -4  533.15   10.30
   0   2   4  522.45   10.40
   0   2   4  517.45   10.30
   0   2   4  546.35   10.90
   0   2   4  504.85    9.90
  -1  -2  -4   69.69    2.20
   1   2   4   63.59    2.90
   1   2   4   66.39    2.40
   1   2   4   69.99    2.00
  -2  -2  -4  253.47    7.20
  -2  -2  -4  246.48    5.50
   2   2   4  253.27    7.70
   2   2   4  250.27    6.80
   2   2   4  247.08    5.10
  -3  -2  -4   30.90    3.30
   3   2   4   34.20    4.00
   3   2   4   30.80    2.80
  -4  -2  -4   48.70    5.00
   4   2   4   46.10    4.20
   4   2   4   49.99    5.10
   5   2   4    7.40    2.90
   5   2   4   16.00    6.50
  -4   3   4  234.58   13.60
  -4   3   4  229.58   14.00
   3  -3  -4  688.33   17.60
   3  -3  -4  719.23   16.30
   3  -3  -4  704.83   15.80
   3  -3  -4  699.13   16.20
  -3   3   4  677.13   16.90
  -3   3   4  718.43   16.80
  -3   3   4  705.93   16.30
  -3   3   4  708.33   17.50
   2  -3  -4   92.49    3.90
  -2   3   4   90.09    4.20
  -2   3   4   91.49    3.90
  -2   3   4   87.69    4.30
  -2   3   4   88.59    4.90
   1  -3  -4   82.89    3.30
  -1   3   4   85.59    4.20
  -1   3   4   83.89    3.60
  -1   3   4   80.69    2.90
  -1   3   4   84.29    3.30
   0  -3  -4  730.23   14.30
   0   3   4  757.22   14.50
   0   3   4  739.13   14.50
   0   3   4  769.52   13.70
   0   3   4  738.43   15.00
  -1  -3  -4   82.89    2.50
   1   3   4   86.99    2.90
   1   3   4   86.89    2.70
   1   3   4   78.19    3.20
  -2  -3  -4   16.80    1.00
  -2  -3  -4   17.60    2.20
   2   3   4   17.30    1.30
   2   3   4   15.90    1.90
   2   3   4   18.50    2.40
  -3  -3  -4   17.30    2.60
   3   3   4   30.10    3.60
   3   3   4   15.80    2.30
  -4  -3  -4  296.77   10.60
   4   3   4  291.07   10.50
   4   3   4  283.37    9.80
   5   3   4  143.79    7.70
   4  -4  -4    7.80    2.80
  -4   4   4   12.10    3.60
  -4   4   4   11.10    3.10
   3  -4  -4  873.31   19.40
   3  -4  -4  894.21   19.20
   3  -4  -4  885.41   21.30
  -3   4   4  839.32   19.70
  -3   4   4  845.72   20.90
  -3   4   4  858.21   20.50
   2  -4  -4  187.18    5.60
   2  -4  -4  192.18    6.20
  -2   4   4  190.48    6.70
  -2   4   4  191.48    7.50
  -2   4   4  193.08    5.70
  -2   4   4  200.98    6.80
   1  -4  -4   58.89    3.00
  -1   4   4   59.69    2.30
  -1   4   4   62.49    3.10
  -1   4   4   59.49    3.40
  -1   4   4   63.69    3.90
   0  -4  -4  682.43   13.70
   0   4   4  707.03   14.20
   0   4   4  718.73   12.80
   0   4   4  666.53   14.50
   0   4   4  702.93   14.10
  -1  -4  -4 1114.19   19.80
   1   4   4 1075.99   20.30
   1   4   4 1076.39   20.10
   1   4   4 1079.19   20.40
   1   4   4 1093.69   21.10
  -2  -4  -4  947.31   19.40
   2   4   4  934.71   19.00
   2   4   4  911.71   19.30
   2   4   4  931.11   17.60
  -3  -4  -4  623.44   15.40
   3   4   4  612.24   15.30
   3   4   4  638.64   15.10
  -4  -4  -4   20.70    3.60
   4   4   4   31.20    4.00
   4   4   4   22.40    3.40
   5   4   4   30.20    4.60
   4  -5  -4   44.40    4.70
  -4   5   4   54.59    5.40
  -4   5   4   58.89    6.20
   3  -5  -4    1.10    2.00
  -3   5   4    1.50    2.40
  -3   5   4    1.90    2.20
  -3   5   4   -0.50    2.70
   2  -5  -4   69.29    4.00
  -2   5   4   71.89    4.40
  -2   5   4   68.89    5.10
  -2   5   4   66.49    4.30
   1  -5  -4    6.50    1.60
  -1   5   4    5.40    0.90
  -1   5   4    4.60    1.70
  -1   5   4    4.60    1.90
  -1   5   4    6.60    1.70
   0  -5  -4    7.10    1.40
   0   5   4    6.60    1.60
   0   5   4    6.30    1.50
   0   5   4    6.80    0.80
   0   5   4    6.40    1.80
  -1  -5  -4   66.69    2.50
   1   5   4   72.89    2.70
   1   5   4   71.99    3.10
   1   5   4   68.79    2.90
   1   5   4   67.49    3.30
  -2  -5  -4  126.29    5.00
   2   5   4  129.39    4.10
   2   5   4  129.99    4.70
   2   5   4  136.59    5.20
  -3  -5  -4  142.89    6.40
   3   5   4  145.59    6.30
   3   5   4  136.99    5.80
  -4  -5  -4    7.00    2.90
   4   5   4   13.00    3.00
   4   5   4   13.50    2.70
   4  -6  -4   74.59    7.20
   4  -6  -4   75.69    5.80
  -4   6   4   70.89    7.20
  -4   6   4   79.09    6.70
   3  -6  -4  170.88    7.30
  -3   6   4  163.68    7.50
  -3   6   4  163.08    8.70
  -3   6   4  165.38    8.00
   2  -6  -4    6.10    2.20
  -2   6   4    8.10    3.00
  -2   6   4    7.70    2.40
  -2   6   4    8.50    2.40
   1  -6  -4  776.12   16.60
  -1   6   4  776.52   16.90
  -1   6   4  776.02   17.10
  -1   6   4  754.52   18.00
   0  -6  -4  495.25   11.00
   0   6   4  499.45   11.60
   0   6   4  494.25    9.40
   0   6   4  492.45   12.10
   0   6   4  507.75   11.80
  -1  -6  -4  578.64   11.70
   1   6   4  584.84   12.40
   1   6   4  588.04   13.10
   1   6   4  576.14   12.70
   1   6   4  573.64   11.70
  -2  -6  -4   48.10    3.40
   2   6   4   39.70    3.50
   2   6   4   45.10    2.90
   2   6   4   47.90    2.80
  -3  -6  -4   89.19    5.20
   3   6   4   86.99    4.80
   3   6   4   83.49    5.20
  -4  -6  -4  155.78    8.00
   4   6   4  155.68    7.30
   4   6   4  152.88    7.20
   4  -7  -4   72.89    7.40
  -4   7   4   79.79    7.10
  -4   7   4   65.09    7.10
   3  -7  -4    1.40    2.70
  -3   7   4    1.40    3.50
  -3   7   4    2.30    2.50
  -3   7   4    2.30    2.60
   2  -7  -4   31.90    3.50
  -2   7   4   27.20    4.20
  -2   7   4   41.10    4.10
  -2   7   4   34.30    4.10
   1  -7  -4  827.82   18.30
  -1   7   4  876.91   19.00
  -1   7   4  863.11   19.20
  -1   7   4  845.32   20.00
   0  -7  -4  427.16   10.20
   0   7   4  431.36   11.10
   0   7   4  426.56   11.40
   0   7   4  431.26   10.90
  -1  -7  -4  830.22   16.40
   1   7   4  829.42   16.20
   1   7   4  862.31   17.90
   1   7   4  852.31   18.00
   1   7   4  840.92   17.50
   2   7   4    5.60    1.60
   2   7   4    6.70    1.70
   2   7   4    8.00    2.50
  -3  -7  -4  134.59    6.40
   3   7   4  140.89    6.60
   3   7   4  126.49    5.80
  -4  -7  -4   65.29    5.90
   4   7   4   65.79    5.10
   4   7   4   74.89    5.50
   3  -8  -4   86.99    6.30
  -3   8   4   84.79    6.90
  -3   8   4   91.29    7.50
  -3   8   4   97.09    6.80
   2  -8  -4  207.48    7.90
  -2   8   4  199.28    9.30
  -2   8   4  221.48    9.00
  -2   8   4  213.18    8.40
   1  -8  -4  603.24   14.60
  -1   8   4  611.74   15.10
  -1   8   4  604.34   15.40
  -1   8   4  610.64   16.20
   0  -8  -4 2087.69   38.90
   0   8   4 2024.70   40.40
   0   8   4 2098.09   40.10
   0   8   4 2074.59   39.90
  -1  -8  -4  901.31   17.90
   1   8   4  923.41   19.30
   1   8   4  873.41   19.40
   1   8   4  902.41   19.40
   2   8   4    0.60    1.90
   2   8   4    4.90    1.80
   2   8   4    3.40    1.40
  -3  -8  -4   45.00    4.40
   3   8   4   41.90    3.70
   3   8   4   45.80    4.60
  -4  -8  -4   40.90    5.00
   4   8   4   53.59    4.70
   3  -9  -4    1.30    3.10
  -3   9   4    1.30    3.20
  -3   9   4   -2.70    3.90
  -3   9   4    0.30    2.90
   2  -9  -4   89.79    6.00
  -2   9   4   80.69    6.20
  -2   9   4   82.79    7.20
  -2   9   4   77.09    6.10
   1  -9  -4   54.09    4.60
  -1   9   4   53.99    4.80
  -1   9   4   62.79    5.90
  -1   9   4   51.79    4.70
   0  -9  -4  128.59    5.60
   0   9   4  133.19    6.00
   0   9   4  133.09    6.60
   0   9   4  124.19    6.20
  -1  -9  -4  514.15   13.30
   1   9   4  529.65   13.50
   1   9   4  531.55   13.50
   2   9   4    2.70    2.00
   2   9   4    0.40    2.20
   3   9   4   60.99    4.20
   3   9   4   53.49    5.10
   4   9   4  170.78    7.80
  -3  10   4  163.48    9.00
  -3  10   4  178.68   10.90
   2 -10  -4  119.79    7.00
  -2  10   4  128.49    8.30
  -2  10   4  106.79    7.10
  -2  10   4  114.19    7.50
   1 -10  -4  117.09    6.30
  -1  10   4  112.59    6.80
  -1  10   4  116.19    6.80
  -1  10   4  120.19    7.70
   0 -10  -4   19.30    3.10
   0  10   4   11.10    3.00
   0  10   4   14.10    3.00
   0  10   4   11.20    3.20
   1  10   4    3.60    2.60
   1  10   4    1.00    2.30
   2  10   4  131.79    6.50
   2  10   4  135.59    6.40
   3  10   4   37.50    4.50
   4  10   4  193.88    8.40
   2 -11  -4   52.39    5.70
  -2  11   4   44.60    6.40
  -2  11   4   41.00    5.40
  -2  11   4   36.90    5.50
   1 -11  -4   -1.50    2.50
  -1  11   4    0.50    3.40
  -1  11   4    1.50    3.10
  -1  11   4    6.30    3.20
   0 -11  -4   10.00    2.70
   0  11   4    4.70    2.70
   0  11   4    8.70    3.30
   0  11   4    6.00    3.00
   1  11   4  246.08    9.60
   1  11   4  243.28    9.30
   2  11   4  123.99    6.60
   2  11   4  115.19    6.50
   3  11   4   -1.40    2.90
   1 -12  -4   11.40    3.60
  -1  12   4   10.00    3.80
  -1  12   4   10.80    3.90
  -1  12   4   13.60    4.60
   0 -12  -4  168.98    7.30
   0  12   4  152.08    8.10
   0  12   4  138.19    7.90
   0  12   4  148.69    8.70
   1  12   4  148.09    8.10
   1  12   4  183.58    8.40
   2  12   4   18.80    3.80
   2  12   4   23.30    4.10
   1 -13  -4    2.20    3.60
  -1  13   4    7.40    4.50
   0  13   4   19.30    4.50
   0  13   4   10.70    3.80
   1  13   4  264.97   11.10
   1  13   4  267.97   10.80
   2  13   4   27.80    4.70
   2  13   4   28.70    4.60
   1  13  -5  453.05   14.70
   0  13  -5  229.28   10.50
   0  13  -5  254.47   12.00
   2  12  -5    7.40    3.10
   1  12  -5    2.70    2.70
   0  12  -5   67.39    6.10
   0  12  -5   64.59    6.00
   0  12  -5   58.09    6.10
  -1  12  -5   20.50    4.20
  -1  12  -5   24.80    5.20
  -1  12  -5   22.40    4.50
   3  11  -5  501.15   14.80
   2  11  -5  332.77   11.30
   1  11  -5  144.09    7.20
   0  11  -5   36.20    4.50
   0  11  -5   37.30    4.80
   0  11  -5   29.00    4.30
  -1  11  -5  113.49    7.10
  -1  11  -5  117.29    8.00
  -1  11  -5  110.29    7.40
  -2  11  -5   33.20    5.40
  -2  11  -5   29.60    5.00
  -2  11  -5   43.70    6.30
   4  10  -5   69.99    6.10
   4  10  -5   73.19    7.90
  -4 -10   5   63.69    6.50
   3  10  -5  113.09    6.60
   2  10  -5    2.90    2.20
   1  10  -5   75.69    5.20
   0  10  -5  231.78    8.70
   0  10  -5  228.88    8.80
   0  10  -5  231.28    9.30
  -1  10  -5  561.04   15.40
  -1  10  -5  584.44   17.10
  -1  10  -5  572.34   16.60
  -2  10  -5  438.16   15.50
  -2  10  -5  485.65   14.10
  -2  10  -5  486.45   16.20
   4   9  -5   20.50    3.90
   4   9  -5   16.20    3.20
  -4  -9   5   20.60    4.30
   3   9  -5   34.40    4.30
   3   9  -5   30.00    3.90
  -3  -9   5   34.60    4.50
   2   9  -5   63.69    4.70
   1   9  -5  382.66   11.00
   1   9  -5  371.56   11.10
   0   9  -5  270.17    8.90
   0   9  -5  274.57    9.80
   0   9  -5  269.37    9.20
  -1   9  -5   60.89    5.50
  -1   9  -5   55.89    4.90
  -1   9  -5   55.29    4.60
  -2   9  -5   90.89    5.80
  -2   9  -5   85.09    6.70
  -2   9  -5   87.49    7.10
   2  -9   5   81.29    7.30
  -3   9  -5   79.29    7.50
  -3   9  -5   87.89    7.60
   3  -9   5   80.09    8.20
   4   8  -5    9.00    2.80
   4   8  -5    9.40    3.10
  -4  -8   5   15.10    3.70
   3   8  -5   45.40    4.50
   3   8  -5   36.90    4.20
  -3  -8   5   34.50    4.10
   2   8  -5  486.55   13.10
  -2  -8   5  517.45   13.30
   1   8  -5  300.87    8.40
   1   8  -5  294.67    9.20
   1   8  -5  316.97    9.30
   0   8  -5   91.09    4.90
   0   8  -5   94.99    5.50
   0   8  -5   90.99    4.90
  -1   8  -5  205.58    8.40
  -1   8  -5  225.28    8.90
  -1   8  -5  228.68    7.80
  -2   8  -5  264.57   10.50
  -2   8  -5  265.07   10.60
  -2   8  -5  258.57    8.80
   2  -8   5  253.87   11.10
  -3   8  -5  440.36   15.20
  -3   8  -5  428.56   15.50
   3  -8   5  422.06   16.10
   4   7  -5   85.09    6.30
   4   7  -5   83.89    5.50
  -4  -7   5   79.89    6.60
   3   7  -5   14.50    3.10
   3   7  -5   14.00    2.60
  -3  -7   5   14.50    3.10
   2   7  -5   24.00    3.00
  -2  -7   5   20.00    3.00
   1   7  -5    7.70    1.90
   1   7  -5    5.30    1.70
   1   7  -5    6.30    1.50
  -1  -7   5    7.90    1.60
   0   7  -5   69.09    3.90
   0   7  -5   65.89    4.40
   0   7  -5   64.29    3.90
  -1   7  -5   50.79    3.80
  -1   7  -5   42.80    4.50
  -1   7  -5   53.99    4.30
  -2   7  -5   59.99    5.50
  -2   7  -5   52.79    5.00
  -2   7  -5   65.49    4.30
   2  -7   5   61.69    5.90
  -3   7  -5  180.98    9.60
  -3   7  -5  202.68    9.70
   3  -7   5  189.88   10.40
  -4   7  -5  149.88    9.60
   4   6  -5    3.50    2.60
   4   6  -5   -1.60    1.80
  -4  -6   5   -0.50    2.60
   3   6  -5   22.50    3.00
   3   6  -5   15.40    3.00
  -3  -6   5   17.80    3.10
   2   6  -5  324.47    9.30
  -2  -6   5  333.27    9.80
   1   6  -5   45.20    3.10
   1   6  -5   44.90    2.50
   1   6  -5   43.30    2.90
  -1  -6   5   45.90    3.00
   0   6  -5   72.59    4.20
   0   6  -5   77.39    3.70
   0   6  -5   75.19    3.80
   0  -6   5   77.79    3.00
  -1   6  -5    7.80    2.40
  -1   6  -5    4.10    1.50
  -1   6  -5    2.80    1.80
  -2   6  -5    4.10    2.30
  -2   6  -5    4.60    2.50
  -2   6  -5    1.80    1.70
   2  -6   5    5.90    2.80
  -3   6  -5   57.09    5.90
  -3   6  -5   55.99    5.70
   3  -6   5   67.89    6.60
  -4   6  -5   73.89    7.00
  -4   6  -5   64.39    6.60
   4  -6   5   58.79    7.60
   4   5  -5   67.29    5.70
   4   5  -5   73.49    5.00
  -4  -5   5   68.89    6.00
   3   5  -5  744.53   18.20
   3   5  -5  728.43   17.20
  -3  -5   5  753.12   18.50
   2   5  -5 1473.15   28.50
   2   5  -5 1481.05   29.20
  -2  -5   5 1483.85   29.80
   1   5  -5  962.40   19.60
   1   5  -5  937.21   18.10
   1   5  -5  935.81   19.30
  -1  -5   5  988.50   19.40
   0   5  -5 1430.36   27.30
   0   5  -5 1415.16   27.10
   0   5  -5 1404.66   28.10
   0  -5   5 1448.85   26.30
  -1   5  -5   18.40    2.60
  -1   5  -5   18.30    2.00
  -1   5  -5   16.30    2.70
   1  -5   5   19.20    1.50
  -2   5  -5  236.88    6.90
  -2   5  -5  246.38    8.80
  -2   5  -5  237.38    9.00
   2  -5   5  229.48    9.20
  -3   5  -5   23.50    3.80
  -3   5  -5   21.00    3.70
   3  -5   5   30.20    5.10
  -4   5  -5   18.20    4.20
  -4   5  -5   17.60    4.20
   4  -5   5   24.00    5.10
   4   4  -5    0.80    2.10
   4   4  -5   -1.10    1.70
  -4  -4   5   -1.60    2.50
   3   4  -5   29.30    3.30
   3   4  -5   30.60    3.60
  -3  -4   5   22.90    3.30
   2   4  -5  357.96    8.40
   2   4  -5  348.77    9.30
  -2  -4   5  353.16    9.80
   1   4  -5  749.82   13.60
   1   4  -5  703.33   14.90
   1   4  -5  697.03   15.10
  -1  -4   5  726.73   15.10
   0   4  -5  129.49    4.30
   0   4  -5  136.19    5.00
   0   4  -5  133.99    4.30
   0  -4   5  135.29    3.90
  -1   4  -5  244.78    7.60
  -1   4  -5  240.98    7.60
  -1   4  -5  238.68    6.20
   1  -4   5  248.28    5.60
   1  -4   5  244.68    8.00
  -2   4  -5  461.75   12.30
  -2   4  -5  422.86   10.10
  -2   4  -5  453.55   12.80
   2  -4   5  458.15   13.40
   2  -4   5  467.75    9.80
  -3   4  -5  292.77   10.90
  -3   4  -5  300.57   10.20
   3  -4   5  284.87   11.50
  -4   4  -5   16.40    4.10
   4  -4   5   14.20    4.50
   5   3  -5   49.60    8.00
  -5  -3   5   54.49    6.70
   4   3  -5   84.39    5.20
   4   3  -5   87.79    6.00
  -4  -3   5   83.79    6.30
   3   3  -5  208.48    7.30
  -3  -3   5  205.88    8.00
   2   3  -5  126.29    4.20
   2   3  -5  126.49    4.90
  -2  -3   5  129.69    5.20
   1   3  -5  148.89    4.80
   1   3  -5  136.89    4.50
   1   3  -5  145.59    3.20
  -1  -3   5  144.59    4.70
   0   3  -5  201.08    5.90
   0   3  -5  200.28    5.30
   0   3  -5  204.58    5.30
   0  -3   5  198.68    4.90
  -1   3  -5  405.86    8.50
  -1   3  -5  395.66   10.20
  -1   3  -5  398.96   10.10
   1  -3   5  393.96   10.40
   1  -3   5  409.76    8.30
  -2   3  -5   12.40    2.30
  -2   3  -5   13.50    1.50
  -2   3  -5   13.40    2.70
   2  -3   5   12.70    1.50
   2  -3   5   11.40    2.60
  -3   3  -5  104.69    5.70
  -3   3  -5  107.49    6.50
   3  -3   5  103.09    6.90
   3  -3   5  101.29    4.30
  -4   3  -5  305.17   12.30
   4  -3   5  298.37   12.80
   5   2  -5   40.50    5.30
  -5  -2   5   51.79    6.10
   4   2  -5    9.50    2.50
   4   2  -5   11.10    3.00
  -4  -2   5   15.70    3.60
   3   2  -5   51.59    3.70
  -3  -2   5   43.00    3.90
   2   2  -5  715.23   14.30
   2   2  -5  703.33   15.40
   2   2  -5  708.33   13.30
  -2  -2   5  705.93   15.80
   1   2  -5  764.62   15.70
   1   2  -5  775.42   15.40
  -1  -2   5  789.12   15.80
   0   2  -5  363.86    7.80
   0   2  -5  367.16    8.50
   0   2  -5  360.96    7.80
   0  -2   5  364.76    7.70
   0  -2   5  361.06    7.90
  -1   2  -5   45.00    3.00
  -1   2  -5   49.30    1.90
  -1   2  -5   49.50    3.00
   1  -2   5   49.80    3.30
   1  -2   5   46.60    2.00
  -2   2  -5  141.89    5.40
  -2   2  -5  136.99    5.90
  -2   2  -5  137.49    3.70
   2  -2   5  139.39    4.30
   2  -2   5  137.39    6.20
  -3   2  -5   53.19    4.70
  -3   2  -5   56.09    4.20
   3  -2   5   59.49    3.50
   3  -2   5   63.09    5.20
  -4   2  -5  130.79    7.90
   4  -2   5  151.18    8.90
   4  -2   5  143.69    6.20
   5   1  -5   34.00    5.00
  -5  -1   5   25.80    4.60
   4   1  -5    9.80    2.60
   4   1  -5   15.50    3.20
  -4  -1   5   10.10    3.00
   3   1  -5   12.70    2.30
  -3  -1   5   12.00    2.60
  -3  -1   5   10.30    2.50
   2   1  -5  241.68    7.10
   2   1  -5  248.38    5.90
   2   1  -5  243.28    6.30
  -2  -1   5  246.98    5.80
  -2  -1   5  252.47    7.50
  -2  -1   5  254.17    7.40
   1   1  -5  481.35   10.50
   1   1  -5  484.95   10.10
  -1  -1   5  474.25   10.60
  -1  -1   5  475.65   10.40
   0   1  -5  291.57    6.30
   0   1  -5  288.17    6.40
   0   1  -5  295.57    6.90
   0  -1   5  281.97    6.30
   0  -1   5  297.57    6.40
  -1   1  -5  176.18    5.20
  -1   1  -5  178.78    3.70
  -1   1  -5  169.48    5.40
   1  -1   5  170.78    5.60
   1  -1   5  179.08    4.40
  -2   1  -5   -1.20    1.20
  -2   1  -5   -0.80    1.20
  -2   1  -5    0.80    0.60
   2  -1   5   -0.50    1.50
   2  -1   5    0.60    0.80
  -3   1  -5    9.90    2.20
  -3   1  -5   12.10    2.90
   3  -1   5    8.80    1.80
   3  -1   5    3.50    2.60
  -4   1  -5   81.39    6.20
   4  -1   5   81.99    4.90
   4  -1   5   86.29    6.90
   5  -1   5   27.70    3.90
   5  -1   5   30.50    5.50
   5   0  -5  368.36   13.00
  -5   0   5  342.07   13.10
   4   0  -5  232.98    9.10
   4   0  -5  221.58    8.30
  -4   0   5  214.58    9.10
  -4   0   5  219.88    8.60
   3   0  -5   38.00    3.00
   3   0  -5   43.10    3.40
   3   0  -5   47.00    3.80
  -3   0   5   41.80    3.70
  -3   0   5   44.20    3.90
  -3   0   5   44.00    3.90
   2   0  -5  511.15   12.10
   2   0  -5  529.05   11.40
   2   0  -5  542.75   11.40
  -2   0   5  527.65   12.40
  -2   0   5  528.05   12.40
  -2   0   5  549.15   12.20
  -2   0   5  515.25   11.10
   1   0  -5   42.20    2.40
   1   0  -5   41.10    2.20
  -1   0   5   45.00    2.70
  -1   0   5   43.10    1.50
  -1   0   5   43.20    2.40
   0   0  -5  406.96    8.70
   0   0  -5  411.46    8.30
   0   0   5  406.26    8.40
   0   0   5  410.66    8.20
   0   0   5  418.46    8.40
  -1   0  -5    7.00    1.50
  -1   0  -5    8.30    1.40
   1   0   5    5.30    1.40
   1   0   5    7.50    1.10
  -2   0  -5  528.85   11.60
  -2   0  -5  526.85   12.90
   2   0   5  510.35   13.20
   2   0   5  536.15   11.60
  -3   0  -5  542.65   12.90
  -3   0  -5  589.14   15.30
   3   0   5  569.94   13.40
   3   0   5  547.15   15.20
   4   0   5    4.80    2.00
   4   0   5    4.20    3.00
   5   0   5  167.78    8.10
   5   0   5  180.98   10.00
   5  -1  -5   89.59    6.60
  -5   1   5   71.39    6.60
   4  -1  -5  169.18    7.30
   4  -1  -5  166.48    7.60
  -4   1   5  169.18    7.90
  -4   1   5  175.58    7.80
   3  -1  -5   59.29    4.00
   3  -1  -5   62.99    4.20
   3  -1  -5   59.79    3.50
  -3   1   5   62.29    4.40
  -3   1   5   59.09    3.70
  -3   1   5   58.69    4.50
  -3   1   5   57.49    4.40
   2  -1  -5   72.39    3.60
   2  -1  -5   70.29    3.20
  -2   1   5   74.69    3.80
  -2   1   5   78.19    3.30
  -2   1   5   75.89    3.90
  -2   1   5   80.89    4.20
   1  -1  -5 1012.30   19.60
   1  -1  -5 1036.50   19.40
  -1   1   5 1043.60   18.70
  -1   1   5 1017.90   20.10
  -1   1   5  989.90   19.80
  -1   1   5 1023.90   19.50
   0  -1  -5 1972.00   35.00
   0  -1  -5 2023.10   34.80
   0   1   5 1916.61   34.80
   0   1   5 1949.90   34.70
   0   1   5 1965.20   34.70
  -1  -1  -5  106.89    3.40
   1   1   5  108.79    3.20
   1   1   5  104.29    4.00
   1   1   5  110.29    2.30
  -2  -1  -5  350.86    8.00
   2   1   5  344.47    9.80
   2   1   5  345.47    8.40
   3   1   5  189.68    6.60
   3   1   5  194.68    8.00
   4   1   5   19.20    3.90
   4   1   5   17.70    3.10
   5   1   5   52.29    5.10
   5   1   5   64.89    6.50
   4  -2  -5 1137.19   26.20
   4  -2  -5 1147.89   25.80
  -4   2   5 1191.18   26.30
  -4   2   5 1137.39   25.80
   3  -2  -5  295.97    8.40
   3  -2  -5  284.87    9.00
   3  -2  -5  289.27    9.40
   3  -2  -5  306.87    9.10
  -3   2   5  291.07    9.30
  -3   2   5  296.17    9.30
  -3   2   5  289.57    8.90
  -3   2   5  282.77    9.70
   2  -2  -5   48.70    2.90
   2  -2  -5   48.20    3.10
  -2   2   5   49.60    3.10
  -2   2   5   45.20    3.40
  -2   2   5   46.70    2.90
  -2   2   5   51.89    3.80
   1  -2  -5  543.05   11.40
  -1   2   5  532.05   11.70
  -1   2   5  537.75   12.20
  -1   2   5  541.45   11.10
  -1   2   5  538.05   10.90
   0  -2  -5  408.76    8.60
   0   2   5  414.36    9.10
   0   2   5  382.56    8.10
   0   2   5  415.36    8.50
   0   2   5  415.46    8.60
  -1  -2  -5  407.56    8.50
   1   2   5  416.06    8.60
   1   2   5  396.86    9.40
   1   2   5  426.16    7.90
  -2  -2  -5  927.11   17.70
   2   2   5  924.91   20.00
   2   2   5  967.80   19.00
   3   2   5   50.09    4.40
   3   2   5   47.40    3.40
   4   2   5   14.80    2.80
   4   2   5   22.10    4.10
   5   2   5   17.80    3.40
   5   2   5   26.00    4.70
   4  -3  -5  206.78   12.50
  -4   3   5  225.98   11.00
  -4   3   5  230.38    9.30
   3  -3  -5 1187.58   25.70
   3  -3  -5 1177.68   23.90
   3  -3  -5 1138.29   24.20
   3  -3  -5 1154.58   24.30
  -3   3   5 1130.09   25.40
  -3   3   5 1128.39   24.80
  -3   3   5 1159.28   24.30
  -3   3   5 1147.99   24.70
   2  -3  -5  632.44   14.20
   2  -3  -5  607.64   13.80
  -2   3   5  624.54   14.20
  -2   3   5  619.64   14.40
  -2   3   5  616.24   13.70
  -2   3   5  657.63   15.20
   1  -3  -5 3034.90   54.19
  -1   3   5 3033.60   54.59
  -1   3   5 3013.60   54.09
  -1   3   5 3071.89   53.59
   0  -3  -5 2144.99   38.80
   0   3   5 2217.48   39.70
   0   3   5 2216.78   39.00
   0   3   5 2165.58   38.90
   0   3   5 2131.89   38.20
  -1  -3  -5 1170.38   21.40
   1   3   5 1194.18   21.40
   1   3   5 1180.38   22.60
   1   3   5 1153.08   21.70
  -2  -3  -5  587.14   11.60
   2   3   5  623.64   14.30
   2   3   5  623.24   13.40
   2   3   5  617.84   11.50
   3   3   5    0.90    1.40
   3   3   5    1.60    2.00
   4   3   5  118.19    6.10
   4   3   5  120.79    6.90
   5   3   5  227.48    9.70
   5   3   5  256.97   10.80
   4  -4  -5   10.20    3.00
  -4   4   5   16.60    3.80
  -4   4   5   11.80    3.50
   3  -4  -5   93.59    5.30
   3  -4  -5  107.29    5.40
   3  -4  -5   93.79    5.90
  -3   4   5   99.39    5.70
  -3   4   5   97.59    5.70
  -3   4   5  105.09    6.40
   2  -4  -5  429.06   10.60
  -2   4   5  427.76   10.10
  -2   4   5  436.76   11.10
  -2   4   5  425.86   12.10
  -2   4   5  412.16   11.10
   1  -4  -5   93.09    3.80
  -1   4   5   92.09    3.80
  -1   4   5   88.49    4.70
  -1   4   5   86.79    4.10
  -1   4   5   89.49    3.10
   0  -4  -5  833.42   16.40
   0   4   5  821.02   17.30
   0   4   5  858.81   15.60
   0   4   5  853.61   16.70
   0   4   5  845.82   16.80
  -1  -4  -5 1086.79   20.10
   1   4   5 1082.89   20.60
   1   4   5 1109.09   20.50
   1   4   5 1104.99   21.50
   2   4   5    0.60    0.80
   2   4   5    0.40    0.90
   2   4   5   -0.20    1.50
  -3  -4  -5   39.30    3.90
   3   4   5   38.70    3.20
   3   4   5   45.80    4.10
   4   4   5    6.90    2.80
   4   4   5    2.10    2.00
   4  -5  -5    8.40    2.90
  -4   5   5    4.30    3.40
  -4   5   5   10.10    3.50
   3  -5  -5  216.68    8.20
   3  -5  -5  231.08    8.10
  -3   5   5  223.58    9.60
  -3   5   5  229.48    8.60
  -3   5   5  217.78    8.80
   2  -5  -5 1122.09   23.00
  -2   5   5 1130.19   23.80
  -2   5   5 1132.79   23.60
  -2   5   5 1085.59   24.80
   1  -5  -5  411.36   10.00
  -1   5   5  414.86    8.70
  -1   5   5  420.36   10.40
  -1   5   5  428.56   11.40
  -1   5   5  402.86   10.20
   0  -5  -5  688.63   14.00
   0   5   5  692.93   14.60
   0   5   5  688.63   14.50
   0   5   5  684.43   12.90
   0   5   5  682.93   15.00
  -1  -5  -5    5.70    1.20
   1   5   5    8.40    1.50
   1   5   5    8.10    1.40
   1   5   5    7.30    1.90
   1   5   5    8.70    1.20
   2   5   5   72.89    3.50
   2   5   5   66.49    3.90
   2   5   5   71.59    3.00
  -3  -5  -5  450.35   12.40
   3   5   5  466.85   12.50
   3   5   5  431.86   11.70
   4   5   5  698.73   17.80
   4   5   5  705.33   18.10
   4  -6  -5  219.88    9.10
  -4   6   5  218.08   10.70
  -4   6   5  206.58   10.40
  -4   6   5  223.18   10.80
   3  -6  -5  424.16   12.00
  -3   6   5  421.36   12.70
  -3   6   5  392.16   13.70
  -3   6   5  406.96   13.10
   2  -6  -5   34.20    3.60
  -2   6   5   30.40    4.30
  -2   6   5   34.40    3.80
  -2   6   5   35.20    3.80
   1  -6  -5    5.50    1.80
  -1   6   5    4.70    1.70
  -1   6   5    3.50    1.90
  -1   6   5    9.70    2.60
   0  -6  -5   49.00    2.80
   0   6   5   46.70    1.90
   0   6   5   43.00    3.20
   0   6   5   49.20    3.20
   0   6   5   48.90    3.60
  -1  -6  -5  284.37    6.70
   1   6   5  297.47    8.10
   1   6   5  285.07    7.70
   1   6   5  269.17    7.40
   1   6   5  285.87    6.60
   2   6   5  295.17    7.40
   2   6   5  289.57    8.60
   2   6   5  273.77    7.70
   3   6   5  444.56   12.30
   3   6   5  442.56   11.90
   4   6   5  266.67   10.00
   4   6   5  282.27    9.90
   4  -7  -5   13.40    3.70
  -4   7   5   15.20    4.60
  -4   7   5   10.00    3.80
   3  -7  -5  102.39    6.30
  -3   7   5  108.49    6.90
  -3   7   5   88.79    6.40
  -3   7   5  108.19    7.90
   2  -7  -5   61.89    4.60
  -2   7   5   53.49    5.60
  -2   7   5   51.19    4.70
  -2   7   5   54.39    4.60
   1  -7  -5   49.30    3.70
  -1   7   5   52.29    4.80
  -1   7   5   56.89    4.00
  -1   7   5   51.79    4.10
   0  -7  -5  350.36    8.90
   0   7   5  354.76    9.70
   0   7   5  352.76    9.60
   0   7   5  351.36   10.10
  -1  -7  -5  344.77    8.00
   1   7   5  333.87    8.80
   1   7   5  333.47    9.10
   1   7   5  330.67    7.50
   1   7   5  328.17    9.20
   2   7   5    6.50    2.40
   2   7   5    0.50    1.20
   2   7   5    0.90    1.30
   3   7   5   75.79    5.40
   3   7   5   68.99    4.30
   4   7   5  256.77    9.90
   4   7   5  278.97    9.90
   3  -8  -5   91.09    6.30
  -3   8   5   91.39    6.70
  -3   8   5   99.19    7.10
  -3   8   5  103.29    8.20
   2  -8  -5  159.58    7.20
  -2   8   5  175.08    9.10
  -2   8   5  170.68    7.70
  -2   8   5  165.38    7.80
   1  -8  -5  232.48    7.60
  -1   8   5  217.58    9.00
  -1   8   5  220.28    8.10
  -1   8   5  227.38    8.30
   0  -8  -5  313.27    8.70
   0   8   5  319.47   10.10
   0   8   5  305.37    9.50
   0   8   5  336.07    9.70
  -1  -8  -5   26.20    2.50
   1   8   5   28.20    3.30
   1   8   5   28.70    3.30
   1   8   5   29.30    3.40
   2   8   5    0.00    1.70
   2   8   5    0.10    1.20
   2   8   5    0.60    2.30
   3   8   5  184.48    6.90
   3   8   5  166.28    7.50
   4   8   5   -2.70    3.10
   4   8   5    0.20    1.90
   3  -9  -5   68.99    6.10
  -3   9   5   59.29    7.00
  -3   9   5   59.89    6.50
  -3   9   5   56.79    5.90
   2  -9  -5   31.60    4.30
  -2   9   5   31.00    4.50
  -2   9   5   28.20    5.30
  -2   9   5   28.40    4.40
   1  -9  -5  415.66   11.60
  -1   9   5  411.66   12.50
  -1   9   5  416.86   13.50
  -1   9   5  410.76   12.20
   0  -9  -5   24.10    3.10
   0   9   5   15.00    3.20
   0   9   5   17.70    2.90
   0   9   5   16.00    3.20
   1   9   5   38.50    4.10
   1   9   5   48.10    4.30
   2   9   5   37.80    3.70
   2   9   5   20.90    3.30
   3   9   5  136.49    7.10
   3   9   5  147.59    6.20
   4   9   5   27.80    3.90
  -3  10   5   -3.70    3.20
  -3  10   5    2.50    3.50
   2 -10  -5  123.59    6.80
  -2  10   5   93.89    6.70
  -2  10   5  117.39    8.20
  -2  10   5  110.69    7.20
   1 -10  -5  338.77   10.70
  -1  10   5  322.27   11.40
  -1  10   5  332.17   11.30
  -1  10   5  354.26   12.70
   0 -10  -5   15.20    2.80
   0  10   5   15.50    3.70
   0  10   5   16.70    3.40
   0  10   5   15.40    3.00
   1  10   5   -0.30    2.40
   1  10   5    0.70    2.30
   2  10   5   39.70    4.20
   2  10   5   48.80    4.80
   3  10   5   54.99    5.40
   4  10   5   63.89    5.20
   2 -11  -5  110.59    7.50
  -2  11   5  122.09    7.80
  -2  11   5  123.69    9.30
  -2  11   5  118.89    8.00
   1 -11  -5  262.37    9.60
  -1  11   5  245.98   11.30
  -1  11   5  253.77   10.30
  -1  11   5  255.97   10.20
   0 -11  -5  574.94   14.40
   0  11   5  570.24   16.20
   0  11   5  539.15   15.40
   0  11   5  536.75   15.50
   1  11   5  318.67   10.80
   1  11   5  316.57   11.10
   2  11   5   34.30    4.30
   2  11   5   41.80    4.50
   3  11   5   67.69    6.10
   1 -12  -5    7.10    3.20
  -1  12   5    5.80    4.40
  -1  12   5    9.90    3.50
  -1  12   5    8.30    3.70
   0 -12  -5   66.39    5.10
   0  12   5   82.59    7.80
   0  12   5   61.79    6.00
   0  12   5   75.19    6.20
   1  12   5   73.39    6.00
   1  12   5   70.09    6.30
   2  12   5  262.27   10.30
   2  12   5  258.27   10.00
   3  12   5    4.90    3.50
   1 -13  -5   -1.00    3.40
  -1  13   5   -3.60    4.00
   0  13   5   62.19    6.30
   0  13   5   46.00    5.70
   1  13   5   76.39    6.70
   1  13   5   68.29    6.30
   2  13   5   15.90    4.30
   2  13   5   14.30    3.70
   1  13  -6  316.87   17.70
   0  13  -6  332.17   15.30
   0  13  -6  341.57   14.00
   2  12  -6   -2.40    2.30
   1  12  -6  210.08    9.30
   0  12  -6  550.54   16.10
   0  12  -6  540.75   16.80
  -1  12  -6  654.23   19.80
  -1  12  -6  624.44   18.00
  -1  12  -6  601.84   18.80
   3  11  -6    3.00    2.80
   2  11  -6    7.90    2.80
   1  11  -6    4.90    2.80
   0  11  -6  162.88    8.00
   0  11  -6  178.08    8.80
   0  11  -6  161.98    7.80
  -1  11  -6   18.80    4.00
  -1  11  -6   15.90    4.20
  -1  11  -6   25.30    4.10
  -2  11  -6   -0.20    5.20
  -2  11  -6   -4.70    2.70
   2 -11   6    2.40    3.40
   4  10  -6    1.30    2.70
  -4 -10   6    2.60    3.70
   3  10  -6    6.10    2.70
   2  10  -6   12.80    3.00
   1  10  -6   23.10    3.60
   0  10  -6   -0.70    2.10
   0  10  -6    1.50    2.10
   0  10  -6    2.40    2.50
  -1  10  -6    0.30    3.00
  -1  10  -6    6.90    2.90
  -1  10  -6    0.60    2.20
  -2  10  -6  106.09    8.00
  -2  10  -6  104.69    7.70
   2 -10   6  114.99    8.70
   4   9  -6   22.70    4.30
   4   9  -6   16.10    3.30
  -4  -9   6   18.10    4.40
   3   9  -6   11.30    3.00
   3   9  -6   11.40    2.70
  -3  -9   6   10.20    3.10
   2   9  -6   12.60    2.70
   1   9  -6    9.50    2.60
   1   9  -6    7.60    2.40
   0   9  -6   83.39    5.20
   0   9  -6   83.49    5.10
   0   9  -6   79.19    5.60
  -1   9  -6  166.98    8.00
  -1   9  -6  183.48    8.70
  -1   9  -6  189.58    7.60
  -2   9  -6  187.88    9.30
  -2   9  -6  187.28    9.70
  -2   9  -6  208.08   12.40
   2  -9   6  190.08   10.30
  -3   9  -6   63.69    7.10
  -3   9  -6   72.89    7.10
   3  -9   6   59.39    7.40
   4   8  -6  408.56   12.80
   4   8  -6  424.56   14.10
  -4  -8   6  407.66   14.30
   3   8  -6  192.98    8.30
   3   8  -6  177.58    7.60
  -3  -8   6  200.58    8.60
   2   8  -6    0.00    1.60
  -2  -8   6    0.30    1.70
   1   8  -6    9.50    2.10
   1   8  -6    5.30    2.00
   0   8  -6  154.08    6.20
   0   8  -6  147.19    6.80
   0   8  -6  150.08    6.30
  -1   8  -6  268.97    9.70
  -1   8  -6  270.47   10.10
  -1   8  -6  269.87    8.70
  -2   8  -6   -1.20    1.90
  -2   8  -6    0.00    2.30
  -2   8  -6    2.40    3.10
   2  -8   6    0.70    2.60
  -3   8  -6    3.50    3.60
  -3   8  -6    3.40    3.10
   3  -8   6    5.10    3.80
   4   7  -6   90.69    5.90
   4   7  -6  105.09    6.90
  -4  -7   6   91.39    7.00
   3   7  -6  165.68    7.00
   3   7  -6  153.58    7.30
  -3  -7   6  154.18    7.50
   2   7  -6  195.28    7.20
  -2  -7   6  198.98    7.50
   1   7  -6  163.08    6.20
   1   7  -6  170.28    6.50
  -1  -7   6  170.28    5.90
   0   7  -6   31.10    3.40
   0   7  -6   31.20    3.10
   0   7  -6   27.00    2.80
  -1   7  -6    0.80    2.10
  -1   7  -6   -0.30    1.40
  -1   7  -6   -0.10    1.80
  -2   7  -6  141.39    7.60
  -2   7  -6  151.18    7.80
   2  -7   6  152.98    8.40
  -3   7  -6   65.99    6.30
  -3   7  -6   69.09    6.60
   3  -7   6   61.09    7.50
  -4   7  -6  108.29    8.60
   4   6  -6    4.80    2.80
   4   6  -6    8.30    2.70
  -4  -6   6    4.30    3.10
   3   6  -6  310.27   10.40
   3   6  -6  320.57    9.90
  -3  -6   6  315.97   10.80
   2   6  -6  500.95   12.70
  -2  -6   6  494.55   13.00
   1   6  -6   80.09    4.10
   1   6  -6   80.29    3.30
   1   6  -6   79.49    4.10
  -1  -6   6   82.99    3.90
   0   6  -6  290.47    8.10
   0   6  -6  275.37    8.70
   0   6  -6  276.87    7.80
   0  -6   6  280.37    7.00
  -1   6  -6  987.40   20.20
  -1   6  -6  982.60   22.20
  -1   6  -6  991.90   22.00
  -2   6  -6 1729.83   36.50
  -2   6  -6 1781.22   37.30
   2  -6   6 1779.42   38.10
  -3   6  -6  613.44   17.90
  -3   6  -6  635.14   18.90
   3  -6   6  674.63   20.10
  -4   6  -6   53.79    6.20
  -4   6  -6   64.09    7.60
   4  -6   6   66.59    8.60
   4   5  -6   32.80    3.90
   4   5  -6   28.20    4.00
  -4  -5   6   42.10    5.30
   3   5  -6   16.90    2.80
  -3  -5   6   17.40    3.40
   2   5  -6    6.10    1.50
   2   5  -6    5.90    1.70
  -2  -5   6    5.50    2.00
   1   5  -6   23.20    2.40
   1   5  -6   27.50    1.80
   1   5  -6   24.20    2.60
  -1  -5   6   27.30    2.40
   0   5  -6   19.00    2.10
   0   5  -6   22.80    2.70
   0   5  -6   16.10    2.00
   0  -5   6   15.50    1.60
  -1   5  -6   59.99    3.90
  -1   5  -6   58.19    4.10
  -1   5  -6   51.49    3.00
   1  -5   6   53.49    2.40
   1  -5   6   55.39    4.10
  -2   5  -6  215.88    8.40
  -2   5  -6  203.08    8.40
   2  -5   6  208.08    8.80
  -3   5  -6   37.50    4.60
  -3   5  -6   31.10    4.50
   3  -5   6   33.40    5.00
  -4   5  -6   15.80    4.30
  -4   5  -6   21.90    4.70
   4  -5   6   24.20    5.40
   4   4  -6   80.49    6.00
   4   4  -6   91.79    5.50
  -4  -4   6   81.49    6.10
   3   4  -6    3.60    1.80
  -3  -4   6    4.30    2.40
   2   4  -6  524.15   12.60
   2   4  -6  509.75   11.50
  -2  -4   6  510.15   12.90
   1   4  -6  690.73   15.00
   1   4  -6  698.43   14.90
   1   4  -6  721.23   13.30
  -1  -4   6  693.43   14.90
   0   4  -6  603.54   12.90
   0   4  -6  594.64   12.70
   0   4  -6  609.44   13.70
   0  -4   6  594.54   12.20
  -1   4  -6  632.64   15.00
  -1   4  -6  637.34   13.20
  -1   4  -6  626.74   15.00
   1  -4   6  657.93   15.60
   1  -4   6  673.43   12.90
  -2   4  -6  169.38    7.30
  -2   4  -6  158.78    5.00
  -2   4  -6  159.28    6.80
   2  -4   6  166.98    7.70
   2  -4   6  167.48    4.90
  -3   4  -6   93.99    5.90
  -3   4  -6  101.19    6.60
   3  -4   6  103.29    7.00
  -4   4  -6  104.49    7.80
   4  -4   6  115.99    8.60
   4   3  -6   13.10    2.80
   4   3  -6    6.00    2.50
  -4  -3   6   13.80    3.50
   3   3  -6   26.00    3.10
  -3  -3   6   31.10    3.90
   2   3  -6  136.89    5.30
   2   3  -6  137.79    4.60
  -2  -3   6  144.59    5.70
   1   3  -6  298.47    7.70
   1   3  -6  294.77    5.70
   1   3  -6  285.87    7.40
  -1  -3   6  289.77    7.60
   0   3  -6    0.20    0.90
   0   3  -6   -0.10    1.20
   0   3  -6    0.10    0.90
   0  -3   6   -0.80    0.80
   0  -3   6   -0.10    0.90
  -1   3  -6  195.78    6.50
  -1   3  -6  196.58    6.60
  -1   3  -6  199.58    5.10
   1  -3   6  192.28    6.80
   1  -3   6  207.68    5.10
  -2   3  -6  425.96   11.40
  -2   3  -6  414.56   12.00
   2  -3   6  418.76   12.40
   2  -3   6  426.06    9.50
  -3   3  -6   60.59    5.20
  -3   3  -6   69.99    4.80
   3  -3   6   69.19    6.00
   3  -3   6   63.39    3.50
  -4   3  -6   48.30    6.10
   4  -3   6   34.60    5.60
  -5  -2   6    2.70    3.60
   4   2  -6  107.99    5.90
   4   2  -6  100.09    6.40
  -4  -2   6  100.99    6.80
   3   2  -6  613.84   14.90
  -3  -2   6  601.84   15.60
   2   2  -6  141.19    4.60
   2   2  -6  138.69    5.30
  -2  -2   6  136.99    5.40
   1   2  -6   11.10    1.80
   1   2  -6    7.70    1.60
  -1  -2   6    9.60    1.80
   0   2  -6   53.99    2.40
   0   2  -6   55.69    2.90
   0   2  -6   53.59    2.30
   0  -2   6   50.19    2.50
   0  -2   6   53.59    2.40
  -1   2  -6 1605.04   30.80
  -1   2  -6 1596.44   30.90
  -1   2  -6 1597.24   28.70
   1  -2   6 1664.83   29.20
   1  -2   6 1591.24   31.20
  -2   2  -6  363.66   10.50
  -2   2  -6  334.47    7.30
  -2   2  -6  360.36    9.70
   2  -2   6  361.66    8.30
   2  -2   6  338.67   10.70
  -3   2  -6    4.20    2.30
  -3   2  -6    4.40    2.00
   3  -2   6    4.30    1.50
   3  -2   6    3.30    2.50
  -4   2  -6   73.59    6.10
   4  -2   6   78.09    4.70
   4  -2   6   79.29    7.10
   5   1  -6   82.69    6.70
  -5  -1   6   83.19    7.10
   4   1  -6   47.80    4.90
   4   1  -6   55.29    4.60
  -4  -1   6   57.79    5.40
   3   1  -6  191.48    7.10
   3   1  -6  201.68    6.80
  -3  -1   6  206.48    7.60
  -3  -1   6  203.88    7.70
   2   1  -6 1073.59   21.10
   2   1  -6 1084.29   22.20
   2   1  -6 1076.39   20.20
  -2  -1   6 1082.59   22.40
  -2  -1   6 1128.09   22.60
  -2  -1   6 1088.09   19.90
   1   1  -6 2228.78   40.00
   1   1  -6 2154.38   39.50
  -1  -1   6 2168.08   40.10
  -1  -1   6 2196.98   39.90
   0   1  -6 1730.63   31.10
   0   1  -6 1717.93   31.80
   0  -1   6 1704.83   31.00
   0  -1   6 1752.62   31.10
  -1   1  -6  597.04   13.20
  -1   1  -6  602.64   11.10
  -1   1  -6  599.54   13.00
   1  -1   6  604.74   11.90
   1  -1   6  587.34   13.40
  -2   1  -6  335.47    8.90
  -2   1  -6  339.37    9.90
   2  -1   6  343.77    8.20
   2  -1   6  325.97   10.10
  -3   1  -6   16.50    3.10
  -3   1  -6   13.20    2.40
   3  -1   6   15.00    2.30
   3  -1   6   16.20    3.30
  -4   1  -6    2.20    2.40
   4  -1   6    0.00    1.60
   4  -1   6   -1.20    2.80
   5  -1   6  230.68    9.30
   5   0  -6   30.20    4.70
  -5   0   6   22.90    4.40
   4   0  -6   93.89    6.00
   4   0  -6   74.79    5.20
  -4   0   6   86.09    6.10
  -4   0   6   74.19    5.50
   3   0  -6  284.37    8.00
   3   0  -6  278.27    8.80
  -3   0   6  297.67    9.00
  -3   0   6  281.47    9.10
  -3   0   6  277.57    9.30
   2   0  -6  794.82   16.10
   2   0  -6  816.42   16.60
   2   0  -6  832.72   17.40
  -2   0   6  809.42   15.90
  -2   0   6  814.82   17.70
  -2   0   6  831.92   17.70
   1   0  -6  411.36    9.20
   1   0  -6  411.86    9.40
  -1   0   6  425.46    9.40
  -1   0   6  415.56    7.80
  -1   0   6  397.46    9.60
   0   0  -6  400.96    8.80
   0   0  -6  395.46    8.30
   0   0   6  389.86    8.40
   0   0   6  386.76    8.10
   0   0   6  396.16    8.30
  -1   0  -6    4.90    0.60
  -1   0  -6    2.80    1.30
   1   0   6    4.20    1.50
   1   0   6    5.40    1.10
  -2   0  -6 2063.69   39.30
  -2   0  -6 2031.30   37.60
   2   0   6 1977.40   39.40
   2   0   6 2048.40   37.30
  -3   0  -6 1488.05   31.00
  -3   0  -6 1345.67   29.00
   3   0   6 1462.75   31.20
   4   0   6  310.07    9.90
   4   0   6  305.77   12.00
   5   0   6    9.20    3.80
   5   0   6   -2.40    2.10
   5  -1  -6   10.30    3.70
  -5   1   6    4.60    3.40
   4  -1  -6    5.50    2.40
   4  -1  -6    4.20    2.30
  -4   1   6    4.30    2.80
  -4   1   6    5.10    2.80
   3  -1  -6    4.00    1.80
   3  -1  -6    0.60    1.70
  -3   1   6    0.20    2.00
  -3   1   6   -1.10    1.80
  -3   1   6    3.10    2.10
   2  -1  -6  315.57    8.60
   2  -1  -6  304.47    8.00
  -2   1   6  328.17    8.80
  -2   1   6  320.37    7.80
  -2   1   6  327.77    9.10
  -2   1   6  318.37    8.90
   1  -1  -6    1.80    1.10
   1  -1  -6    3.60    1.20
  -1   1   6    2.70    0.70
  -1   1   6    4.90    1.60
  -1   1   6    3.80    1.20
  -1   1   6    1.00    1.20
   0  -1  -6  333.57    7.30
   0  -1  -6  337.47    7.70
   0   1   6  348.77    7.30
   0   1   6  331.97    7.30
   0   1   6  344.27    7.50
  -1  -1  -6  582.74   10.20
  -1  -1  -6  552.14   11.60
   1   1   6  553.74   12.40
   1   1   6  549.95   11.30
   1   1   6  566.54   10.20
  -2  -1  -6   49.60    2.80
   2   1   6   56.79    2.90
   2   1   6   50.69    3.80
   3   1   6    6.20    1.60
   3   1   6   11.00    2.90
   4   1   6  137.29    6.40
   4   1   6  131.09    7.80
   5   1   6   29.90    5.20
   5   1   6   17.80    3.50
   4  -2  -6  861.21   20.70
   4  -2  -6  832.72   20.20
  -4   2   6  858.71   21.00
  -4   2   6  830.72   20.70
   3  -2  -6 1059.19   21.80
   3  -2  -6 1042.10   22.60
  -3   2   6 1064.49   22.80
  -3   2   6 1014.20   22.10
  -3   2   6 1030.50   23.30
  -3   2   6 1036.30   22.90
   2  -2  -6  284.47    8.00
   2  -2  -6  285.37    7.70
  -2   2   6  289.27    8.00
  -2   2   6  273.17    8.70
  -2   2   6  281.97    8.30
  -2   2   6  279.87    7.50
   1  -2  -6  497.45   10.80
   1  -2  -6  470.45   10.50
  -1   2   6  464.15    9.90
  -1   2   6  473.45   10.30
  -1   2   6  480.55   11.40
  -1   2   6  489.75   11.00
   0  -2  -6  248.18    6.00
   0   2   6  249.48    5.80
   0   2   6  234.28    5.90
   0   2   6  235.18    5.50
  -1  -2  -6  181.38    4.90
   1   2   6  191.58    4.90
   1   2   6  190.88    4.20
   1   2   6  177.08    5.60
  -2  -2  -6  457.25    9.70
   2   2   6  457.05   10.50
   2   2   6  447.96   11.70
   3   2   6  176.28    7.70
   3   2   6  183.78    6.50
   4   2   6  166.08    8.50
   4   2   6  174.98    7.30
   5   2   6   16.20    3.50
   5   2   6   21.00    4.50
   4  -3  -6  226.48    8.90
  -4   3   6  206.08    9.00
  -4   3   6  189.88    9.70
   3  -3  -6  195.88    7.40
   3  -3  -6  174.78    6.80
   3  -3  -6  188.28    7.00
   3  -3  -6  203.08    7.80
  -3   3   6  191.08    8.30
  -3   3   6  169.78    6.90
  -3   3   6  203.68    8.00
  -3   3   6  208.18    7.50
   2  -3  -6  185.48    6.30
   2  -3  -6  180.28    6.10
  -2   3   6  178.78    6.00
  -2   3   6  188.98    7.20
  -2   3   6  190.48    6.10
  -2   3   6  192.18    6.70
   1  -3  -6   87.19    3.60
  -1   3   6   88.09    4.50
  -1   3   6   91.39    3.40
  -1   3   6   84.59    3.80
  -1   3   6   97.09    3.40
   0  -3  -6  923.21   17.70
   0   3   6  924.31   17.70
   0   3   6  894.81   18.30
   0   3   6  902.51   17.00
   0   3   6  918.01   17.60
  -1  -3  -6 1171.58   21.80
   1   3   6 1166.78   22.90
   1   3   6 1172.68   21.50
   1   3   6 1203.38   22.00
  -2  -3  -6  440.96    9.30
   2   3   6  454.95   11.60
   2   3   6  467.45   10.60
   3   3   6  117.29    5.20
   3   3   6  119.09    6.20
   4   3   6   14.30    2.90
   4   3   6   16.10    3.70
   5   3   6   12.70    3.60
   4  -4  -6   32.00    4.30
   4  -4  -6   26.90    3.90
  -4   4   6   31.10    4.90
  -4   4   6   35.30    4.80
   3  -4  -6   42.80    4.10
   3  -4  -6   38.10    4.10
  -3   4   6   46.20    4.00
  -3   4   6   36.40    4.50
  -3   4   6   51.29    4.90
   2  -4  -6    0.00    1.40
  -2   4   6   -0.10    1.20
  -2   4   6    4.10    2.10
  -2   4   6    0.90    1.80
  -2   4   6    0.00    1.30
   1  -4  -6  150.08    5.10
  -1   4   6  154.48    5.50
  -1   4   6  155.98    4.50
  -1   4   6  156.28    5.10
  -1   4   6  152.98    6.10
   0  -4  -6 1962.80   36.60
   0   4   6 1948.21   37.60
   0   4   6 2137.49   37.00
   0   4   6 2005.50   37.00
   0   4   6 2044.20   35.90
  -1  -4  -6  338.27    7.50
   1   4   6  352.36    7.70
   1   4   6  335.67    8.60
   1   4   6  342.37    7.80
   2   4   6  525.95   12.80
   2   4   6  517.85   11.80
   3   4   6  771.12   17.60
   3   4   6  789.02   18.70
   4   4   6   89.89    6.10
   4   4   6   71.49    4.80
   5   4   6    5.30    3.10
   4  -5  -6  233.88    9.80
   4  -5  -6  264.87    9.80
  -4   5   6  248.28   11.10
  -4   5   6  257.07   10.60
   3  -5  -6    0.40    2.00
   3  -5  -6    2.00    2.20
  -3   5   6    1.80    2.70
  -3   5   6   -0.30    1.80
  -3   5   6    2.30    2.70
   2  -5  -6    1.10    1.70
  -2   5   6    5.50    2.30
  -2   5   6    2.40    2.70
  -2   5   6    4.70    1.90
   1  -5  -6  533.95   12.10
  -1   5   6  505.45   10.70
  -1   5   6  522.15   12.20
  -1   5   6  517.15   12.50
  -1   5   6  526.55   13.30
   0  -5  -6  720.63   14.70
   0   5   6  730.33   15.10
   0   5   6  705.23   13.50
   0   5   6  689.83   15.60
   0   5   6  694.03   15.00
  -1  -5  -6  619.94   12.70
   1   5   6  653.23   12.70
   1   5   6  622.44   13.20
   1   5   6  631.84   13.90
   2   5   6    0.50    1.10
   2   5   6    0.50    1.10
   2   5   6    0.30    1.60
   3   5   6  390.86   11.40
   3   5   6  373.76   10.50
   4   5   6   66.69    5.40
   4   5   6   55.29    4.50
   4  -6  -6    1.10    3.10
   4  -6  -6    5.10    3.00
  -4   6   6    5.80    3.90
  -4   6   6    0.40    3.10
   3  -6  -6   13.30    3.10
   3  -6  -6   13.40    3.00
  -3   6   6   11.80    3.70
  -3   6   6    6.40    3.10
  -3   6   6    7.10    2.70
   2  -6  -6   85.59    4.90
  -2   6   6   85.99    5.10
  -2   6   6   91.39    6.20
  -2   6   6   92.19    5.50
   1  -6  -6   22.60    2.70
  -1   6   6   29.60    3.00
  -1   6   6   28.60    3.70
  -1   6   6   36.20    3.60
   0  -6  -6    4.20    1.50
   0   6   6    4.40    1.70
   0   6   6    2.80    0.90
   0   6   6    1.40    1.90
   0   6   6    4.10    1.70
  -1  -6  -6   46.40    2.60
   1   6   6   46.70    3.40
   1   6   6   48.50    2.40
   1   6   6   47.20    3.20
   1   6   6   40.80    2.90
   2   6   6   80.79    3.70
   2   6   6   72.39    4.50
   2   6   6   70.89    3.50
   3   6   6   44.50    4.30
   3   6   6   35.20    3.40
   4   6   6    3.20    2.20
   4   6   6    7.10    3.00
   4  -7  -6   -3.90    3.00
  -4   7   6   -2.80    3.80
  -4   7   6    2.40    3.20
   3  -7  -6   96.89    6.20
  -3   7   6   78.79    6.30
  -3   7   6   84.89    7.30
  -3   7   6   92.59    6.50
   2  -7  -6  272.27    8.90
  -2   7   6  267.07    9.40
  -2   7   6  272.77    9.60
  -2   7   6  261.07   10.50
   1  -7  -6   43.30    3.40
  -1   7   6   44.30    3.80
  -1   7   6   41.00    3.70
  -1   7   6   48.60    4.50
   0  -7  -6  367.46    9.30
   0   7   6  377.36   10.10
   0   7   6  386.46   10.70
   0   7   6  359.76   10.00
  -1  -7  -6  529.65   11.50
   1   7   6  530.55   12.90
   1   7   6  515.75   12.40
   1   7   6  539.75   12.70
   1   7   6  537.35   11.00
   2   7   6  552.64   13.90
   2   7   6  565.04   12.80
   2   7   6  550.44   12.60
   3   7   6   56.99    5.00
   3   7   6   58.69    4.00
   4   7   6    2.10    2.80
   4   7   6   -1.20    1.80
   3  -8  -6  296.37   10.70
  -3   8   6  299.47   11.40
  -3   8   6  288.47   12.50
  -3   8   6  310.57   12.00
   2  -8  -6  277.77    9.40
  -2   8   6  280.37   11.20
  -2   8   6  292.17   10.50
  -2   8   6  287.47   10.20
   1  -8  -6    1.10    1.90
  -1   8   6    0.70    2.30
  -1   8   6    1.80    2.80
  -1   8   6    2.00    1.90
   0  -8  -6   72.19    4.00
   0   8   6   73.79    5.10
   0   8   6   74.49    4.40
   0   8   6   77.89    4.80
  -1  -8  -6  185.58    5.90
   1   8   6  196.48    7.10
   1   8   6  225.08   10.00
   1   8   6  199.18    7.20
   2   8   6  243.08    7.60
   2   8   6  230.18    8.30
   2   8   6  235.78    6.90
   3   8   6   78.69    5.80
   3   8   6   81.29    4.70
   4   8   6   10.50    2.80
   4   8   6    8.70    3.60
   3  -9  -6   89.19    6.70
  -3   9   6   85.99    8.20
  -3   9   6   93.59    7.50
  -3   9   6   83.59    7.10
   2  -9  -6  740.03   18.10
  -2   9   6  732.93   18.80
  -2   9   6  699.53   19.20
  -2   9   6  699.93   20.20
   1  -9  -6  978.60   21.10
  -1   9   6  918.81   22.00
  -1   9   6  922.11   21.70
  -1   9   6  941.21   23.10
   0  -9  -6  214.88    7.30
   0   9   6  222.78    8.70
   0   9   6  205.78    8.00
   0   9   6  209.18    8.00
   1   9   6   67.79    4.80
   1   9   6   70.49    4.90
   2   9   6   14.80    2.80
   2   9   6   10.20    2.90
   3   9   6   26.20    4.10
   3   9   6   34.70    3.50
   4   9   6  103.69    6.10
   4   9   6   86.99    6.90
  -3  10   6   21.30    5.60
   2 -10  -6   89.39    6.30
  -2  10   6   79.79    6.60
  -2  10   6   73.39    6.40
  -2  10   6   93.79    8.10
   1 -10  -6   80.29    5.40
  -1  10   6   72.79    6.70
  -1  10   6   72.39    5.80
  -1  10   6   74.79    5.80
   0 -10  -6   62.79    4.60
   0  10   6   58.99    5.20
   0  10   6   68.69    5.30
   0  10   6   73.09    5.70
   1  10   6   11.20    3.10
   1  10   6   15.80    3.30
   2  10   6  117.79    6.30
   2  10   6  117.69    6.30
   3  10   6  512.55   14.70
   4  10   6  430.16   13.10
   2 -11  -6    5.70    3.60
  -2  11   6    1.80    3.20
  -2  11   6   -5.80    3.80
  -2  11   6   -1.10    3.30
   1 -11  -6  101.99    6.40
  -1  11   6   98.19    7.90
  -1  11   6  105.29    7.00
  -1  11   6  114.89    7.30
   0 -11  -6  152.08    6.70
   0  11   6  152.38    7.80
   0  11   6  153.08    8.10
   0  11   6  152.98    7.70
   1  11   6  237.58    9.30
   1  11   6  235.68    9.30
   2  11   6   14.70    3.60
   2  11   6   13.70    3.40
   3  11   6   -2.50    3.00
   1 -12  -6  267.57   10.10
  -1  12   6  246.58   11.10
  -1  12   6  236.38   10.50
  -1  12   6  262.87   12.00
   0 -12  -6  138.29    7.00
   0  12   6  137.49    7.90
   0  12   6  148.19    8.00
   1  12   6   13.30    3.80
   1  12   6   14.10    3.70
   2  12   6    2.70    3.10
   2  12   6    1.00    3.00
   3  12   6   29.50    5.00
   1 -13  -6   52.59    5.60
  -1  13   6   56.39    7.30
   0  13   6   95.59    7.40
   0  13   6  121.99    7.90
   1  13   6    2.70    3.20
   1  13   6    1.30    3.30
   2  13   6   -3.10    3.10
   2  13   6   -2.60    4.90
   0  13  -7  230.28   11.30
   2  12  -7  233.68   10.00
   1  12  -7  104.09    7.10
   0  12  -7   96.99    7.30
   0  12  -7   97.99    6.80
  -1  12  -7    3.90    3.30
  -1  12  -7    3.60    3.20
  -1  12  -7   10.80    4.50
   3  11  -7   -1.90    2.30
   2  11  -7   14.10    3.40
   1  11  -7   35.10    4.40
   0  11  -7   11.50    3.20
   0  11  -7   13.20    3.60
  -1  11  -7   21.40    3.90
  -1  11  -7   18.40    3.90
  -1  11  -7   13.80    3.90
  -2  11  -7   63.79    7.20
   2 -11   7   85.19    8.30
   3  10  -7   96.39    6.30
   2  10  -7   -1.50    1.80
   1  10  -7   36.10    4.00
   0  10  -7    3.90    2.40
   0  10  -7    1.70    2.60
   0  10  -7    0.00    2.30
  -1  10  -7   62.89    5.60
  -1  10  -7   76.69    5.50
  -1  10  -7   72.59    6.50
  -2  10  -7    7.30    3.40
  -2  10  -7    7.80    3.70
   2 -10   7   19.80    5.00
   4   9  -7   16.50    3.90
   4   9  -7   18.10    3.50
  -4  -9   7   17.30    4.40
   3   9  -7   33.50    4.30
   3   9  -7   30.40    4.00
  -3  -9   7   27.40    4.20
   2   9  -7  312.47   10.30
   1   9  -7  569.04   15.10
   1   9  -7  570.24   14.80
   0   9  -7  485.85   14.30
   0   9  -7  485.55   13.20
   0   9  -7  472.95   13.30
  -1   9  -7  168.58    8.20
  -1   9  -7  159.78    7.10
  -1   9  -7  160.88    7.90
  -2   9  -7   19.70    4.30
  -2   9  -7   19.90    4.30
   2  -9   7   21.30    4.60
  -3   9  -7  113.89   12.80
   4   8  -7   89.89    6.70
   4   8  -7   92.79    6.00
  -4  -8   7  105.39    7.60
   3   8  -7  150.18    7.40
   3   8  -7  149.19    7.10
  -3  -8   7  163.28    7.90
   2   8  -7   33.10    3.80
  -2  -8   7   32.70    3.70
   1   8  -7   58.79    4.30
   1   8  -7   52.69    4.00
   0   8  -7  368.06   10.40
   0   8  -7  351.76   10.40
   0   8  -7  360.36   11.40
  -1   8  -7  259.87    9.60
  -1   8  -7  245.08    8.30
  -1   8  -7  255.97   10.00
  -2   8  -7   26.20    4.50
  -2   8  -7   34.00    4.90
   2  -8   7   35.70    5.30
  -3   8  -7    0.60    2.80
  -3   8  -7    7.80    4.00
   3  -8   7    1.40    3.60
   4   7  -7  147.29    7.30
   4   7  -7  131.29    7.70
  -4  -7   7  133.69    8.20
   3   7  -7  494.85   13.80
  -3  -7   7  503.25   14.70
   2   7  -7  101.29    5.30
  -2  -7   7  102.69    5.50
   1   7  -7   62.79    4.20
   1   7  -7   59.39    3.90
  -1  -7   7   53.29    3.60
   0   7  -7  169.48    7.10
   0   7  -7  165.88    6.20
   0   7  -7  170.28    6.40
  -1   7  -7  439.96   12.80
  -1   7  -7  453.85   13.30
  -1   7  -7  439.86   11.30
  -2   7  -7  294.27   10.90
  -2   7  -7  265.67   10.60
   2  -7   7  267.17   11.30
  -3   7  -7   72.49    6.60
  -3   7  -7   60.59    6.70
   3  -7   7   62.69    7.60
   4   6  -7   40.30    5.10
   4   6  -7   48.80    4.90
  -4  -6   7   46.20    5.60
   3   6  -7    4.40    2.00
  -3  -6   7    6.60    2.70
   2   6  -7  248.78    8.10
  -2  -6   7  236.58    8.30
   1   6  -7    5.10    1.80
   1   6  -7    4.30    1.60
  -1  -6   7    3.90    1.60
   0   6  -7    3.70    1.50
   0   6  -7    2.10    1.40
   0   6  -7    3.20    2.00
   0  -6   7    4.10    1.20
  -1   6  -7    1.80    2.10
  -1   6  -7    2.10    1.80
  -1   6  -7    2.30    1.50
   1  -6   7    2.20    1.90
  -2   6  -7    4.50    2.70
  -2   6  -7    3.00    2.30
   2  -6   7    0.60    2.30
  -3   6  -7    9.70    3.30
  -3   6  -7    8.40    3.50
   3  -6   7   18.30    4.70
  -4   6  -7    5.60    3.70
   4   5  -7   25.80    3.70
   4   5  -7   24.70    4.10
  -4  -5   7   20.70    4.10
   3   5  -7    5.40    2.10
  -3  -5   7    5.40    2.60
   2   5  -7  427.46   10.40
   2   5  -7  414.46   11.20
  -2  -5   7  411.16   11.50
   1   5  -7  575.84   13.40
   1   5  -7  577.24   13.60
  -1  -5   7  589.74   13.30
   0   5  -7    7.30    1.80
   0   5  -7    7.10    1.50
   0   5  -7    5.70    1.50
   0  -5   7    8.60    1.40
  -1   5  -7   76.59    4.60
  -1   5  -7   83.69    5.00
  -1   5  -7   82.59    3.70
   1  -5   7   83.89    5.00
   1  -5   7   85.19    3.20
  -2   5  -7   58.89    4.90
  -2   5  -7   58.69    4.80
   2  -5   7   54.49    5.20
  -3   5  -7  217.98   10.00
  -3   5  -7  229.78    9.50
   3  -5   7  231.38   10.70
  -4   5  -7  148.09    9.50
   4  -5   7  149.59   10.00
   4   4  -7  490.55   13.90
   4   4  -7  466.95   14.70
  -4  -4   7  485.45   15.20
   3   4  -7  206.58    7.70
  -3  -4   7  201.58    8.30
   2   4  -7   48.90    3.00
   2   4  -7   50.99    3.50
  -2  -4   7   49.99    3.60
   1   4  -7  121.19    4.70
   1   4  -7  108.79    4.50
   1   4  -7  111.29    3.10
  -1  -4   7  108.89    4.40
   0   4  -7   65.49    3.20
   0   4  -7   62.89    3.10
   0   4  -7   60.49    3.70
   0  -4   7   69.69    3.50
   0  -4   7   66.49    2.90
  -1   4  -7   15.50    2.70
  -1   4  -7   14.60    1.70
  -1   4  -7   12.90    2.30
   1  -4   7   14.90    2.50
   1  -4   7   17.10    1.70
  -2   4  -7   18.50    2.90
  -2   4  -7   18.30    3.10
   2  -4   7   20.30    3.70
   2  -4   7   17.40    2.00
  -3   4  -7  170.78    7.80
  -3   4  -7  170.48    8.60
   3  -4   7  182.68    9.40
  -4   4  -7   -2.80    2.30
   4  -4   7    3.10    3.40
   4   3  -7  285.17   10.00
   4   3  -7  289.57   10.90
  -4  -3   7  286.97   11.20
   3   3  -7  395.46   11.30
  -3  -3   7  384.16   11.90
   2   3  -7  257.27    7.20
   2   3  -7  269.97    8.00
  -2  -3   7  243.38    7.90
   1   3  -7   64.39    3.40
   1   3  -7   68.99    3.40
  -1  -3   7   70.49    3.50
  -1  -3   7   64.59    1.70
   0   3  -7  406.86   10.10
   0   3  -7  397.96    9.10
   0   3  -7  404.26    9.10
   0  -3   7  397.66    9.30
   0  -3   7  402.26    9.00
  -1   3  -7  178.18    4.80
  -1   3  -7  182.38    6.40
  -1   3  -7  189.18    6.50
   1  -3   7  185.08    5.00
   1  -3   7  182.38    6.60
  -2   3  -7  271.07    9.40
  -2   3  -7  266.87    8.80
   2  -3   7  281.17    7.10
   2  -3   7  277.37    9.70
  -3   3  -7   48.20    4.60
  -3   3  -7   46.40    4.60
   3  -3   7   51.39    3.30
   3  -3   7   49.80    5.80
  -4   3  -7  241.38   11.10
   4  -3   7  253.97   11.90
   4   2  -7  567.54   16.10
   4   2  -7  536.35   14.80
  -4  -2   7  532.75   16.00
   3   2  -7  324.27    9.90
  -3  -2   7  318.77   10.40
   2   2  -7  204.08    6.10
   2   2  -7  202.28    6.70
  -2  -2   7  196.48    6.90
   1   2  -7  835.12   17.10
   1   2  -7  838.22   17.20
  -1  -2   7  824.72   17.10
   0   2  -7   15.80    1.60
   0   2  -7   13.30    1.60
   0   2  -7   13.10    1.90
   0  -2   7   14.00    1.60
   0  -2   7   20.20    1.90
  -1   2  -7  379.06    9.90
  -1   2  -7  398.96   10.00
  -1   2  -7  389.06    8.00
   1  -2   7  377.26   10.20
   1  -2   7  405.96    8.60
  -2   2  -7  665.03   15.30
  -2   2  -7  655.63   16.20
   2  -2   7  638.34   16.40
   2  -2   7  637.24   13.60
  -3   2  -7  317.17    9.80
  -3   2  -7  314.87   11.10
   3  -2   7  316.27    8.70
   3  -2   7  297.17   11.30
  -4   2  -7   35.40    5.30
   4  -2   7   25.80    3.20
   4  -2   7   34.80    5.50
  -5  -1   7    9.10    6.40
   4   1  -7   24.00    3.60
   4   1  -7   22.20    3.60
  -4  -1   7   32.40    4.70
   3   1  -7  142.19    5.30
   3   1  -7  133.69    6.10
  -3  -1   7  142.39    6.50
  -3  -1   7  135.39    6.50
   2   1  -7  118.39    4.30
   2   1  -7  121.09    5.00
  -2  -1   7  120.49    5.30
  -2  -1   7  119.49    5.10
   1   1  -7  179.28    5.40
   1   1  -7  171.38    5.50
  -1  -1   7  171.78    5.40
  -1  -1   7  171.98    5.70
   0   1  -7    0.80    0.90
   0   1  -7    1.20    1.30
   0  -1   7    1.60    0.90
   0  -1   7   -0.20    0.80
  -1   1  -7  649.04   11.90
  -1   1  -7  664.83   14.00
  -1   1  -7  646.94   14.10
   1  -1   7  626.24   14.30
   1  -1   7  604.64   12.70
  -2   1  -7  375.36    9.90
  -2   1  -7  368.06   10.70
   2  -1   7  386.76   11.10
   2  -1   7  363.06    8.80
  -3   1  -7  733.93   17.20
  -3   1  -7  765.72   19.40
   3  -1   7  746.33   19.80
   3  -1   7  799.32   16.90
   4  -1   7    2.40    3.20
   4  -1   7    4.70    2.20
   5  -1   7    4.30    2.80
  -5   0   7  281.77   11.90
   4   0  -7  104.09    6.40
   4   0  -7  116.19    6.40
  -4   0   7  107.99    6.70
  -4   0   7  125.59    7.20
   3   0  -7   43.60    3.40
   3   0  -7   48.10    4.00
  -3   0   7   47.80    4.30
  -3   0   7   45.80    4.30
   2   0  -7  177.08    6.20
   2   0  -7  195.68    5.90
  -2   0   7  189.68    6.50
  -2   0   7  179.58    4.80
  -2   0   7  193.98    6.70
   1   0  -7  866.61   17.60
   1   0  -7  840.92   17.20
  -1   0   7  888.71   15.60
  -1   0   7  883.01   17.50
  -1   0   7  846.62   17.70
   0   0  -7 1459.95   27.30
   0   0  -7 1457.65   26.70
   0   0   7 1491.95   26.80
   0   0   7 1464.15   26.90
   0   0   7 1429.66   26.50
  -1   0  -7 1488.75   26.40
  -1   0  -7 1522.05   28.50
   1   0   7 1541.95   27.70
   1   0   7 1479.65   29.00
  -2   0  -7  597.24   13.40
   2   0   7  616.24   12.90
   2   0   7  584.84   14.80
   3   0   7  629.74   17.10
   3   0   7  625.14   14.50
   4   0   7    2.40    2.00
   4   0   7    6.20    3.20
   5   0   7   10.80    3.50
   5  -1  -7    8.40    4.50
  -5   1   7   15.90    4.10
   4  -1  -7    6.80    2.50
   4  -1  -7    3.40    2.40
  -4   1   7    9.00    3.00
  -4   1   7    7.70    3.00
   3  -1  -7    5.60    2.20
   3  -1  -7   10.90    2.30
  -3   1   7    9.10    2.50
  -3   1   7    3.90    2.50
  -3   1   7    5.00    2.50
   2  -1  -7  598.04   13.40
   2  -1  -7  594.04   13.90
  -2   1   7  596.94   14.30
  -2   1   7  633.44   14.50
  -2   1   7  597.94   12.60
  -2   1   7  607.64   14.00
   1  -1  -7 1339.77   26.00
   1  -1  -7 1397.56   26.40
  -1   1   7 1376.96   26.60
  -1   1   7 1380.76   26.10
  -1   1   7 1401.36   24.80
   0  -1  -7  353.16    7.80
   0  -1  -7  354.46    8.30
   0   1   7  352.36    7.80
   0   1   7  359.36    8.00
   0   1   7  350.46    7.70
  -1  -1  -7  564.44   12.10
  -1  -1  -7  573.14   10.60
   1   1   7  585.24   11.80
   1   1   7  573.74   12.90
   1   1   7  573.34   10.70
  -2  -1  -7    3.40    1.30
   2   1   7    2.20    1.10
   2   1   7    3.10    1.70
   3   1   7  786.92   17.30
   3   1   7  768.72   19.40
   4   1   7 1124.99   27.40
   4   1   7 1130.89   24.70
   5   1   7  394.46   14.90
   4  -2  -7  158.08    7.70
   4  -2  -7  156.48    7.60
  -4   2   7  160.38    8.10
  -4   2   7  177.58    8.20
   3  -2  -7  544.55   14.10
   3  -2  -7  535.95   13.30
  -3   2   7  556.04   14.80
  -3   2   7  544.55   14.50
  -3   2   7  530.25   14.10
   2  -2  -7  225.58    6.90
   2  -2  -7  241.18    7.40
  -2   2   7  231.68    7.60
  -2   2   7  224.58    6.50
  -2   2   7  238.88    7.20
  -2   2   7  241.58    8.00
   1  -2  -7   29.00    2.30
   1  -2  -7   29.40    2.40
  -1   2   7   32.50    2.80
  -1   2   7   31.50    2.30
  -1   2   7   31.30    1.90
  -1   2   7   26.20    2.80
   0  -2  -7    9.30    1.60
   0   2   7    5.10    1.10
   0   2   7    7.20    1.40
   0   2   7    5.80    1.30
  -1  -2  -7 1251.27   23.80
   1   2   7 1288.37   23.60
   1   2   7 1273.47   24.70
   1   2   7 1260.47   22.70
  -2  -2  -7  508.45   11.00
   2   2   7  511.95   11.50
   2   2   7  516.95   13.00
   3   2   7   13.70    2.30
   3   2   7   13.30    3.20
   4   2   7    1.40    2.80
   4   2   7    3.00    1.90
   5   2   7   93.89    7.50
   4  -3  -7    1.50    2.40
  -4   3   7    2.60    3.20
  -4   3   7    2.50    2.80
   3  -3  -7   31.30    3.70
   3  -3  -7   36.60    3.70
  -3   3   7   27.00    3.30
  -3   3   7   23.30    3.90
  -3   3   7   37.70    4.30
   2  -3  -7    6.50    1.80
   2  -3  -7    5.70    1.80
  -2   3   7    9.70    2.40
  -2   3   7    9.80    1.90
  -2   3   7    9.70    2.60
  -2   3   7    6.10    1.60
   1  -3  -7    0.80    1.20
  -1   3   7   -0.10    1.10
  -1   3   7    1.20    1.50
  -1   3   7   -0.30    0.90
  -1   3   7   -0.10    1.60
   0  -3  -7   29.90    2.30
   0   3   7   32.70    2.40
   0   3   7   32.30    2.10
   0   3   7   32.40    2.30
  -1  -3  -7   79.29    3.20
   1   3   7   85.49    3.90
   1   3   7   90.89    2.90
   1   3   7   89.09    3.20
  -2  -3  -7   92.39    3.30
   2   3   7   98.09    4.90
   2   3   7   98.19    4.00
   3   3   7   48.50    4.30
   3   3   7   45.20    3.50
   4   3   7  150.58    8.00
   4   3   7  145.19    6.60
   5   3   7  455.15   15.60
   4  -4  -7  233.48    9.60
   4  -4  -7  236.58    9.20
  -4   4   7  229.18   10.70
  -4   4   7  230.98   10.00
   3  -4  -7    4.00    2.10
   3  -4  -7    0.60    2.00
  -3   4   7    1.10    1.70
  -3   4   7   -1.00    2.40
  -3   4   7   -1.50    2.40
   2  -4  -7  413.96   11.00
  -2   4   7  423.96   12.40
  -2   4   7  430.06   10.60
  -2   4   7  429.36   11.00
  -2   4   7  435.16   11.70
   1  -4  -7  483.15   11.30
  -1   4   7  500.95   11.80
  -1   4   7  466.65   10.40
  -1   4   7  489.85   12.60
  -1   4   7  484.65   11.00
   0  -4  -7 1077.49   21.30
   0   4   7 1086.39   22.20
   0   4   7 1124.19   20.50
   0   4   7 1096.99   21.50
   0   4   7 1113.89   21.40
  -1  -4  -7  248.18    6.30
   1   4   7  249.88    6.20
   1   4   7  244.78    7.10
   1   4   7  265.17    6.30
   2   4   7  137.39    4.90
   2   4   7  143.89    5.80
   3   4   7  196.38    6.90
   3   4   7  205.28    8.10
   4   4   7  174.78    8.30
   4   4   7  163.58    7.20
   5   4   7   12.40    3.80
   4  -5  -7   67.49    5.90
   4  -5  -7   68.29    6.20
  -4   5   7   57.49    6.00
  -4   5   7   71.89    7.10
   3  -5  -7   -1.20    2.20
   3  -5  -7    1.60    2.30
  -3   5   7   -4.50    2.30
  -3   5   7    4.80    3.20
  -3   5   7   -0.80    1.80
   2  -5  -7   13.60    2.60
  -2   5   7   19.90    3.70
  -2   5   7   13.50    2.50
  -2   5   7   18.50    3.20
   1  -5  -7  105.49    4.70
  -1   5   7  110.19    4.60
  -1   5   7  111.79    3.80
  -1   5   7  113.69    5.70
  -1   5   7  124.79    5.30
   0  -5  -7   21.20    2.20
   0   5   7   15.20    1.60
   0   5   7   21.80    2.40
   0   5   7   14.30    2.10
   0   5   7   17.90    2.60
  -1  -5  -7  157.18    4.70
   1   5   7  154.98    5.50
   1   5   7  161.38    5.00
   1   5   7  164.18    4.60
   2   5   7   18.90    2.10
   2   5   7   23.20    2.90
   3   5   7   15.70    3.10
   3   5   7    7.60    1.80
   4   5   7   34.60    4.50
   4   5   7   36.00    4.00
   5   5   7   13.60    3.60
   4  -6  -7  311.37   11.70
   4  -6  -7  317.57   11.40
  -4   6   7  319.87   13.20
  -4   6   7  299.57   12.10
   3  -6  -7  286.07   10.20
   3  -6  -7  292.17   10.00
  -3   6   7  276.77   11.40
  -3   6   7  280.07   10.50
  -3   6   7  278.27   10.30
   2  -6  -7   53.79    4.40
  -2   6   7   60.29    4.30
  -2   6   7   57.69    5.60
  -2   6   7   61.29    4.90
   1  -6  -7   51.19    3.50
  -1   6   7   56.09    4.60
  -1   6   7   50.49    4.00
  -1   6   7   48.40    3.50
   0  -6  -7   70.39    3.60
   0   6   7   67.39    3.80
   0   6   7   68.99    2.70
   0   6   7   64.49    4.20
   0   6   7   73.59    4.00
  -1  -6  -7   91.29    3.70
   1   6   7   92.59    4.60
   1   6   7   92.39    4.20
   1   6   7   94.79    4.20
   1   6   7   94.19    3.40
   2   6   7  302.27    9.20
   2   6   7  311.47    8.20
   3   6   7  214.18    8.30
   3   6   7  201.18    7.20
   4   6   7   33.80    4.10
   4   6   7   44.00    5.10
   5   6   7  114.89   10.30
   4  -7  -7   11.10    3.90
  -4   7   7   14.20    4.30
   3  -7  -7  110.39    6.60
  -3   7   7  107.19    7.90
  -3   7   7   94.19    6.80
  -3   7   7  103.79    6.70
   2  -7  -7   37.00    4.00
  -2   7   7   49.30    4.90
  -2   7   7   33.50    4.00
  -2   7   7   35.20    4.80
   1  -7  -7   -0.90    1.80
  -1   7   7   -5.20    2.10
  -1   7   7    0.40    1.80
  -1   7   7    1.70    2.20
   0  -7  -7  232.88    7.10
   0   7   7  228.98    7.60
   0   7   7  242.78    7.70
   0   7   7  229.58    8.10
  -1  -7  -7  244.68    6.70
   1   7   7  253.07    7.60
   1   7   7  243.68    7.50
   1   7   7  236.48    7.80
   1   7   7  250.47    6.30
   2   7   7  762.32   16.40
   2   7   7  782.82   18.00
   3   7   7  135.69    5.90
   3   7   7  144.79    7.10
   4   7   7   67.49    5.10
   4   7   7   71.99    5.90
   3  -8  -7   66.09    5.90
  -3   8   7   62.39    6.60
  -3   8   7   73.79    6.60
  -3   8   7   76.89    6.40
   2  -8  -7  127.39    6.60
  -2   8   7  117.79    7.80
  -2   8   7  129.09    6.90
  -2   8   7  119.29    6.90
   1  -8  -7  211.28    7.50
  -1   8   7  202.38    7.90
  -1   8   7  190.28    8.60
  -1   8   7  210.48    8.10
   0  -8  -7    2.40    1.90
   0   8   7    1.90    2.10
   0   8   7    0.30    2.30
   0   8   7    3.90    2.20
  -1  -8  -7  859.71   17.70
   1   8   7  876.11   19.00
   1   8   7  844.22   19.20
   2   8   7 1427.76   29.40
   2   8   7 1405.76   27.40
   3   8   7  437.66   11.70
   3   8   7  408.26   12.60
   4   8   7   79.19    5.50
   4   8   7   74.89    6.40
   3  -9  -7  236.68   10.10
  -3   9   7  216.68   10.50
  -3   9   7  237.38   11.80
  -3   9   7  219.38   10.30
   2  -9  -7  206.48    8.60
  -2   9   7  207.68    9.30
  -2   9   7  203.78   10.20
  -2   9   7  205.88    9.10
   1  -9  -7  128.59    6.30
  -1   9   7  118.19    6.60
  -1   9   7  120.69    6.60
  -1   9   7  120.49    7.50
   0  -9  -7   19.40    3.00
   0   9   7   21.00    3.40
   0   9   7   19.60    3.50
   0   9   7   16.20    3.10
   1   9   7   -2.60    2.20
   1   9   7    0.90    2.10
   2   9   7   29.70    4.00
   3   9   7   21.10    4.10
   3   9   7   14.90    2.50
   4   9   7    7.80    4.20
   4   9   7   10.70    2.80
   2 -10  -7    5.50    3.10
  -2  10   7    9.90    4.40
  -2  10   7    5.60    3.40
  -2  10   7   10.80    3.60
   1 -10  -7   72.99    5.40
  -1  10   7   63.29    6.30
  -1  10   7   63.39    5.60
  -1  10   7   77.59    5.90
   0 -10  -7  113.29    5.80
   0  10   7  119.09    6.30
   0  10   7  118.89    6.60
   0  10   7  117.79    6.80
   1  10   7   75.79    5.50
   1  10   7   86.09    5.50
   2  10   7   25.90    3.90
   3  10   7   31.80    4.80
   4  10   7   12.10    3.10
   4  10   7   10.40    4.30
   2 -11  -7  158.88    8.50
  -2  11   7  174.78   10.40
  -2  11   7  157.68    9.10
  -2  11   7  142.59    8.70
   1 -11  -7    9.20    3.40
  -1  11   7    5.20    3.30
  -1  11   7    6.40    3.50
  -1  11   7    5.50    4.10
   0 -11  -7    3.40    2.70
   0  11   7    3.00    2.70
   0  11   7    4.70    3.30
   0  11   7    5.80    3.40
   1  11   7   28.40    3.90
   1  11   7   38.40    4.70
   2  11   7   77.09    6.10
   3  11   7   27.60    4.80
   1 -12  -7  169.98    8.30
  -1  12   7  146.59    8.60
  -1  12   7  166.18    9.20
  -1  12   7  160.68    9.70
   0 -12  -7    5.70    3.00
   0  12   7    4.60    3.50
   0  12   7    6.40    3.10
   1  12   7   68.89    6.00
   1  12   7   70.09    6.10
   3  12   7  115.59    7.60
   1 -13  -7  280.57   11.70
  -1  13   7  308.87   18.20
   0  13   7  126.99    8.20
   1  13   7    6.70    3.80
   1  13   7    2.50    3.40
   2  13   7   19.10    4.40
   0  13  -8   12.20    4.20
   1  12  -8    1.10    2.80
   0  12  -8   67.69    6.30
   0  12  -8   59.99    6.30
  -1  12  -8  140.69    8.40
   2  11  -8  500.05   15.00
   1  11  -8  662.93   17.80
   0  11  -8  266.47   10.20
   0  11  -8  270.57   11.10
  -1  11  -8   37.80    5.50
  -1  11  -8   45.90    5.50
  -1  11  -8   52.59    5.50
  -2  11  -8    1.00    3.90
   3  10  -8   75.29    5.80
   2  10  -8  171.58    7.90
   1  10  -8  162.08    7.40
   0  10  -8    5.90    3.00
   0  10  -8    1.60    2.30
  -1  10  -8   45.10    5.80
  -1  10  -8   47.70    5.40
  -1  10  -8   33.80    4.30
  -2  10  -8  123.99    8.40
  -2  10  -8  121.09    8.30
   2 -10   8  129.99    9.20
   4   9  -8   37.20    5.60
   3   9  -8   -0.60    2.10
   3   9  -8    0.00    2.10
  -3  -9   8    2.00    2.50
   2   9  -8    1.60    2.00
   1   9  -8   52.29    4.50
   1   9  -8   48.60    4.40
   0   9  -8  238.98    8.50
   0   9  -8  217.78    9.30
  -1   9  -8  253.87    9.00
  -1   9  -8  241.08    9.80
  -1   9  -8  241.18   10.40
   1  -9   8  253.87   10.70
  -2   9  -8   13.70    4.00
  -2   9  -8    4.30    2.90
   2  -9   8   10.60    4.00
   4   8  -8   31.40    4.90
   4   8  -8   30.40    4.20
  -4  -8   8   24.20    4.70
   3   8  -8   -0.50    1.80
  -3  -8   8    3.20    2.70
   2   8  -8    1.80    2.00
  -2  -8   8    0.40    1.80
   1   8  -8  387.96   11.10
   1   8  -8  370.36   11.30
   0   8  -8  228.28    8.20
   0   8  -8  260.07    9.50
   0   8  -8  245.68    8.20
  -1   8  -8  149.19    7.60
  -1   8  -8  136.29    7.00
  -1   8  -8  154.58    6.40
   1  -8   8  138.19    7.60
  -2   8  -8    3.90    2.80
  -2   8  -8    6.00    3.10
   2  -8   8    7.80    3.30
  -3   8  -8    5.50    3.80
  -3   8  -8    5.60    3.40
   3  -8   8    7.70    4.40
   4   7  -8   31.40    4.30
   4   7  -8   18.30    3.80
  -4  -7   8   30.90    4.80
   3   7  -8   73.99    5.20
  -3  -7   8   74.49    5.80
   2   7  -8    3.50    1.90
  -2  -7   8    3.00    2.00
   1   7  -8   46.40    3.70
   1   7  -8   48.70    4.00
  -1  -7   8   46.40    3.40
   0   7  -8  111.29    6.00
   0   7  -8  100.09    5.00
   0   7  -8  107.39    5.00
  -1   7  -8    1.60    2.00
  -1   7  -8    3.20    1.80
  -1   7  -8   -1.40    1.90
   1  -7   8    1.20    2.00
  -2   7  -8   54.59    5.30
  -2   7  -8   58.39    5.30
   2  -7   8   68.29    6.30
  -3   7  -8   43.70    5.70
  -3   7  -8   69.49    7.10
   3  -7   8   55.49    7.00
   4   6  -8  158.28    7.50
   4   6  -8  145.19    8.10
  -4  -6   8  145.29    8.50
   3   6  -8  335.87   10.70
  -3  -6   8  329.47   11.30
   2   6  -8  109.09    5.40
  -2  -6   8  112.59    5.70
   1   6  -8    9.00    2.10
   1   6  -8   13.40    2.50
  -1  -6   8    9.70    2.00
   0   6  -8   63.39    3.80
   0   6  -8   66.29    3.80
   0   6  -8   60.09    4.40
   0  -6   8   60.39    3.20
  -1   6  -8  480.25   11.50
  -1   6  -8  464.25   13.10
  -1   6  -8  490.05   13.70
   1  -6   8  482.15   13.80
  -2   6  -8  273.17   10.50
  -2   6  -8  285.47   10.60
   2  -6   8  266.67   11.00
  -3   6  -8   24.20    4.40
  -3   6  -8   20.20    4.00
   3  -6   8   26.50    5.20
  -4   6  -8   -1.30    3.30
   4   5  -8  163.68    8.50
   4   5  -8  164.98    7.70
  -4  -5   8  168.38    8.80
   3   5  -8   70.59    4.80
  -3  -5   8   70.79    5.50
   2   5  -8  205.48    6.80
   2   5  -8  219.58    7.50
  -2  -5   8  192.38    7.50
   1   5  -8 1684.23   33.40
   1   5  -8 1704.23   33.20
  -1  -5   8 1741.83   33.10
   0   5  -8 1643.54   31.20
   0   5  -8 1589.34   32.40
   0   5  -8 1605.14   30.90
   0  -5   8 1627.84   30.40
   0  -5   8 1632.64   31.60
  -1   5  -8 2111.99   42.20
  -1   5  -8 2185.48   42.00
  -1   5  -8 2141.19   39.60
   1  -5   8 2159.88   42.50
   1  -5   8 2141.79   39.00
  -2   5  -8   74.49    5.50
  -2   5  -8   70.89    5.10
   2  -5   8   70.89    5.90
  -3   5  -8   55.39    5.70
  -3   5  -8   58.79    5.50
   3  -5   8   68.89    7.20
  -4   5  -8   93.99    8.00
   4  -5   8   96.89    8.30
   4   4  -8   -1.20    1.90
   4   4  -8    1.90    2.30
  -4  -4   8    5.40    3.10
   3   4  -8   51.19    4.30
  -3  -4   8   55.89    4.70
   2   4  -8  110.39    5.20
   2   4  -8  115.99    4.70
  -2  -4   8  108.29    5.30
   1   4  -8   87.19    4.20
   1   4  -8   77.49    3.90
  -1  -4   8   73.49    3.80
   0   4  -8  147.49    5.90
   0   4  -8  148.29    5.00
   0   4  -8  153.08    5.10
   0  -4   8  150.28    4.80
   0  -4   8  154.18    5.30
  -1   4  -8  511.55   13.50
  -1   4  -8  544.15   11.50
  -1   4  -8  543.85   13.50
   1  -4   8  555.24   11.50
   1  -4   8  517.05   13.70
  -2   4  -8   26.60    3.80
  -2   4  -8   18.40    3.20
   2  -4   8   24.50    2.40
   2  -4   8   23.10    4.00
  -3   4  -8   63.19    6.50
  -3   4  -8   45.20    4.80
   3  -4   8   55.19    6.30
  -4   4  -8   48.30    6.60
   4  -4   8   52.29    7.20
   4   3  -8   13.20    3.10
   4   3  -8   12.80    2.90
  -4  -3   8   13.60    3.50
   3   3  -8  229.18    8.30
  -3  -3   8  225.38    8.70
   2   3  -8  201.58    7.00
   2   3  -8  207.78    6.50
  -2  -3   8  203.38    7.30
   1   3  -8  897.01   18.70
   1   3  -8  909.81   18.70
  -1  -3   8  868.31   18.50
   0   3  -8 1059.99   20.70
   0   3  -8 1072.39   22.00
   0   3  -8 1097.39   20.90
   0  -3   8 1049.49   20.90
   0  -3   8 1056.19   20.70
  -1   3  -8  864.81   19.10
  -1   3  -8  889.51   19.40
  -1   3  -8  874.51   16.90
   1  -3   8  872.11   19.50
   1  -3   8  893.41   17.30
  -2   3  -8  299.27    9.50
  -2   3  -8  292.67    9.90
   2  -3   8  292.47   10.30
   2  -3   8  294.47    7.60
  -3   3  -8    0.90    2.00
  -3   3  -8   -0.10    2.20
   3  -3   8    0.30    2.70
   3  -3   8    2.60    1.70
  -4   3  -8   16.40    4.20
   4  -3   8   17.80    4.60
   4   2  -8  162.18    8.20
   4   2  -8  157.48    7.50
  -4  -2   8  180.28    8.60
   3   2  -8  624.14   15.70
  -3  -2   8  629.54   16.40
   2   2  -8  138.89    5.10
   2   2  -8  138.29    5.60
  -2  -2   8  126.19    5.50
   1   2  -8   68.29    3.60
   1   2  -8   69.59    3.60
  -1  -2   8   69.59    3.50
   0   2  -8  151.98    5.40
   0   2  -8  150.88    4.70
   0   2  -8  149.49    4.50
   0  -2   8  155.28    4.70
   0  -2   8  156.58    4.70
  -1   2  -8  204.68    6.80
  -1   2  -8  200.88    4.90
  -1   2  -8  194.78    6.50
   1  -2   8  203.18    5.40
   1  -2   8  204.48    6.90
  -2   2  -8   11.30    2.40
  -2   2  -8   10.40    2.50
   2  -2   8   11.70    1.80
   2  -2   8    8.80    2.50
  -3   2  -8  198.78    7.80
  -3   2  -8  217.38    9.00
   3  -2   8  202.38    9.20
   3  -2   8  206.18    6.80
  -4   2  -8    8.90    3.20
   4  -2   8   12.10    2.70
   4  -2   8   14.30    4.20
   4   1  -8   19.80    3.40
   4   1  -8   10.90    2.80
  -4  -1   8   14.70    3.60
   3   1  -8  196.38    6.50
   3   1  -8  192.98    7.50
  -3  -1   8  184.28    7.80
  -3  -1   8  184.48    7.80
   2   1  -8  211.68    6.40
   2   1  -8  215.48    7.10
  -2  -1   8  196.68    6.90
  -2  -1   8  203.48    7.20
   1   1  -8  834.02   17.10
   1   1  -8  835.12   17.30
  -1  -1   8  819.22   17.10
  -1  -1   8  819.82   17.50
   0   1  -8 4436.56   77.59
   0   1  -8 4405.16   76.69
   0  -1   8 4324.47   76.59
   0  -1   8 4318.17   76.39
  -1   1  -8  338.37    8.90
  -1   1  -8  329.97    8.80
  -1   1  -8  321.37    6.80
   1  -1   8  329.07    7.70
   1  -1   8  331.57    9.10
  -2   1  -8   61.89    3.80
  -2   1  -8   58.09    4.20
   2  -1   8   62.99    3.20
   2  -1   8   67.89    4.70
  -3   1  -8  334.77   10.10
  -3   1  -8  349.17   11.80
   3  -1   8  338.57   12.10
   3  -1   8  355.56    9.50
   4  -1   8   19.40    3.10
   4  -1   8   25.00    5.10
   4   0  -8  180.98    8.40
   4   0  -8  188.98    8.10
  -4   0   8  180.08    8.60
  -4   0   8  182.78    8.60
   3   0  -8   63.59    4.00
   3   0  -8   60.39    4.70
  -3   0   8   64.29    4.90
  -3   0   8   66.99    5.00
   2   0  -8   96.09    4.10
   2   0  -8   89.79    4.50
  -2   0   8   91.09    4.60
  -2   0   8   93.99    4.90
   1   0  -8    7.40    1.60
   1   0  -8   11.00    1.80
  -1   0   8    9.50    1.80
  -1   0   8    9.10    0.90
  -1   0   8   11.90    2.10
   0   0  -8   98.49    3.90
   0   0  -8   90.59    3.40
   0   0   8   90.99    3.50
   0   0   8   92.49    3.20
   0   0   8   95.29    3.40
  -1   0  -8  365.36    7.40
  -1   0  -8  374.66    9.30
   1   0   8  390.06    8.60
   1   0   8  355.96    9.50
  -2   0  -8  368.86    9.60
   2   0   8  364.56   10.90
   2   0   8  380.46    9.10
   3   0   8 1036.80   21.50
   3   0   8 1011.60   24.40
   4   0   8 1303.77   31.50
   4   0   8 1344.67   28.00
  -5   1   8    7.50    5.00
   4  -1  -8   14.70    3.20
   4  -1  -8   23.90    3.80
  -4   1   8   17.10    3.70
  -4   1   8   13.00    3.50
   3  -1  -8  162.48    6.30
   3  -1  -8  150.78    6.70
  -3   1   8  152.18    6.90
  -3   1   8  152.58    7.10
  -3   1   8  137.19    6.90
   2  -1  -8  302.27    8.80
   2  -1  -8  302.67    8.30
  -2   1   8  302.77    8.80
  -2   1   8  294.47    9.00
  -2   1   8  308.37    7.30
   1  -1  -8   68.59    3.40
   1  -1  -8   66.09    3.40
  -1   1   8   73.39    3.80
  -1   1   8   71.29    2.40
  -1   1   8   67.29    3.30
   0  -1  -8  414.16    9.10
   0  -1  -8  417.56    9.60
   0   1   8  410.96    9.10
   0   1   8  414.86    8.90
   0   1   8  407.16    9.30
  -1  -1  -8  818.42   15.10
  -1  -1  -8  814.92   16.70
   1   1   8  856.81   16.30
   1   1   8  818.32   15.10
   1   1   8  785.42   17.20
  -2  -1  -8    1.90    1.40
   2   1   8    3.40    1.30
   2   1   8    1.10    1.90
   3   1   8  333.87   11.60
   3   1   8  357.66    9.60
   4   1   8  265.57   11.40
   4   1   8  295.47    9.60
   4  -2  -8   16.70    3.30
   4  -2  -8    9.90    2.90
  -4   2   8   16.70    3.80
  -4   2   8   14.60    3.50
   3  -2  -8  559.24   14.40
   3  -2  -8  550.44   13.70
  -3   2   8  531.55   14.20
  -3   2   8  532.95   14.80
  -3   2   8  524.45   14.50
   2  -2  -8  247.28    7.80
   2  -2  -8  260.07    7.60
  -2   2   8  247.38    8.50
  -2   2   8  249.88    6.80
  -2   2   8  254.97    7.80
  -2   2   8  235.08    8.00
   1  -2  -8  647.04   14.00
   1  -2  -8  638.54   14.10
  -1   2   8  648.54   12.90
  -1   2   8  651.63   13.80
  -1   2   8  640.14   14.30
   0  -2  -8  190.78    5.60
   0  -2  -8  197.78    5.30
   0   2   8  178.78    5.10
   0   2   8  184.08    5.40
   0   2   8  195.58    5.20
  -1  -2  -8  163.48    5.10
  -1  -2  -8  166.68    4.00
   1   2   8  160.68    4.10
   1   2   8  156.18    5.50
   1   2   8  163.58    4.80
  -2  -2  -8   48.00    2.90
   2   2   8   49.00    3.90
   2   2   8   47.90    2.90
   3   2   8  280.37   10.20
   3   2   8  283.47    8.50
   4   2   8   56.09    6.10
   4   2   8   52.79    4.40
   4  -3  -8   90.49    6.20
  -4   3   8   78.49    6.90
  -4   3   8   76.49    6.40
   3  -3  -8   99.29    5.80
   3  -3  -8   93.49    5.30
  -3   3   8   90.89    6.40
  -3   3   8   92.09    5.30
  -3   3   8  104.79    6.20
   2  -3  -8  648.84   15.20
   2  -3  -8  625.84   14.60
  -2   3   8  635.54   15.40
  -2   3   8  637.84   16.00
  -2   3   8  631.64   14.60
  -2   3   8  648.84   14.20
   1  -3  -8   34.90    2.70
   1  -3  -8   38.80    2.90
  -1   3   8   37.60    2.50
  -1   3   8   37.00    3.50
  -1   3   8   40.50    3.30
  -1   3   8   35.20    2.30
   0  -3  -8  512.95   11.40
   0   3   8  511.95   10.80
   0   3   8  514.15   11.20
   0   3   8  518.15   11.40
  -1  -3  -8  721.03   15.00
   1   3   8  748.23   14.30
   1   3   8  732.73   15.80
   1   3   8  746.83   14.80
  -2  -3  -8   44.90    2.60
   2   3   8   42.00    3.50
   2   3   8   45.20    2.90
   3   3   8   27.70    4.10
   3   3   8   25.60    2.90
   4   3   8   18.40    4.00
   4   3   8   15.50    2.90
   5   3   8   25.90    6.10
   4  -4  -8    6.90    3.10
   4  -4  -8    4.00    2.80
  -4   4   8    1.10    3.40
  -4   4   8    5.60    3.40
   3  -4  -8    0.80    2.20
   3  -4  -8    1.40    2.20
  -3   4   8    6.20    3.30
  -3   4   8   -1.60    2.40
   2  -4  -8    7.80    2.30
   2  -4  -8    7.40    2.20
  -2   4   8    8.90    1.90
  -2   4   8   10.20    2.60
  -2   4   8    5.40    2.70
  -2   4   8    7.00    1.80
   1  -4  -8  248.58    7.30
  -1   4   8  254.47    6.80
  -1   4   8  255.97    8.50
  -1   4   8  261.17    7.10
  -1   4   8  274.07    8.00
   0  -4  -8  493.15   11.30
   0   4   8  498.85   11.40
   0   4   8  498.85   10.50
   0   4   8  503.85   11.20
   0   4   8  497.35   12.10
  -1  -4  -8    5.50    1.40
   1   4   8    7.00    1.30
   1   4   8    8.90    2.00
   1   4   8    9.90    1.50
   2   4   8   35.50    3.70
   2   4   8   35.00    2.70
   3   4   8    3.90    1.60
   3   4   8    5.30    2.40
   4   4   8   73.09    5.10
   4   4   8   78.29    6.10
   4  -5  -8    5.50    3.20
   4  -5  -8    3.60    3.20
  -4   5   8   -0.30    3.70
  -4   5   8   -0.30    3.20
   3  -5  -8   28.90    3.80
   3  -5  -8   21.60    3.60
  -3   5   8   23.90    3.90
  -3   5   8   26.30    3.80
  -3   5   8   24.90    4.40
   2  -5  -8  345.67   10.00
  -2   5   8  329.77    9.80
  -2   5   8  348.87   10.70
  -2   5   8  343.57   11.50
   1  -5  -8 1251.67   24.80
  -1   5   8 1196.38   23.50
  -1   5   8 1241.58   24.60
  -1   5   8 1212.58   25.20
  -1   5   8 1266.77   26.50
   0  -5  -8  669.93   14.80
   0   5   8  707.63   15.00
   0   5   8  701.83   13.90
   0   5   8  702.23   15.90
   0   5   8  672.03   15.00
  -1  -5  -8  887.51   17.90
   1   5   8  938.31   18.10
   1   5   8  917.61   17.80
   1   5   8  876.41   19.00
   2   5   8  241.68    7.00
   2   5   8  248.88    8.20
   3   5   8   32.10    4.10
   3   5   8   21.10    2.70
   4   5   8   77.09    6.00
   4   5   8   73.89    5.20
   4  -6  -8    1.30    3.20
   4  -6  -8    0.90    3.00
  -4   6   8    6.10    4.30
  -4   6   8    5.00    3.50
   3  -6  -8   69.59    5.80
   3  -6  -8   78.19    5.90
  -3   6   8   68.39    6.00
  -3   6   8   59.39    6.30
  -3   6   8   72.79    5.50
   2  -6  -8  516.95   13.50
  -2   6   8  515.95   15.20
  -2   6   8  501.45   14.10
  -2   6   8  524.75   13.70
   1  -6  -8  186.38    6.60
  -1   6   8  186.78    7.90
  -1   6   8  184.78    7.00
  -1   6   8  169.78    6.30
   0  -6  -8   15.10    2.20
   0   6   8   13.90    1.60
   0   6   8   15.10    2.20
   0   6   8   13.40    2.70
   0   6   8   16.80    2.60
  -1  -6  -8  587.24   12.80
   1   6   8  588.94   12.40
   1   6   8  597.64   13.20
   1   6   8  590.64   14.00
   2   6   8  176.18    5.80
   2   6   8  179.38    7.10
   3   6   8   -0.80    2.30
   3   6   8    1.40    1.70
   4   6   8  184.58    7.90
   4   6   8  183.88    8.70
   3  -7  -8    4.40    2.80
   3  -7  -8   -0.50    2.60
  -3   7   8    1.90    2.40
  -3   7   8   -1.00    2.90
  -3   7   8    1.60    3.50
   2  -7  -8    1.90    2.40
  -2   7   8   -2.80    2.50
  -2   7   8    1.00    2.20
  -2   7   8   -2.00    2.50
   1  -7  -8   11.20    2.60
  -1   7   8   13.40    2.50
  -1   7   8   17.90    3.30
  -1   7   8    9.80    3.20
   0  -7  -8   21.00    2.70
   0   7   8   17.30    2.70
   0   7   8   18.50    3.10
   0   7   8   23.40    3.10
  -1  -7  -8  130.09    4.80
   1   7   8  122.19    5.50
   1   7   8  137.79    4.40
   1   7   8  141.99    5.50
   1   7   8  134.29    5.90
   2   7   8  195.68    7.80
   2   7   8  189.08    6.10
   3   7   8    5.10    3.20
   3   7   8    7.10    2.10
   4   7   8  108.39    6.00
   4   7   8  114.09    7.10
   3  -8  -8   92.99    6.80
  -3   8   8   98.99    7.00
  -3   8   8  106.79    8.40
  -3   8   8   97.69    7.50
   2  -8  -8   29.70    4.10
  -2   8   8   30.60    4.10
  -2   8   8   40.70    5.00
  -2   8   8   28.90    4.50
   1  -8  -8  116.79    5.90
  -1   8   8  120.49    6.10
  -1   8   8  113.49    6.30
  -1   8   8  127.69    7.30
   0  -8  -8  257.67    8.10
   0   8   8  248.88    8.30
   0   8   8  246.08    9.10
   0   8   8  255.47    8.50
  -1  -8  -8   56.89    3.60
   1   8   8   58.89    4.40
   1   8   8   58.99    4.60
   2   8   8   -0.40    2.70
   2   8   8   -1.40    1.30
   3   8   8    0.30    1.70
   3   8   8   -2.10    3.00
   4   8   8    4.90    2.40
   4   8   8    3.40    3.80
   3  -9  -8    0.50    3.80
  -3   9   8    1.00    3.60
  -3   9   8   -0.40    3.00
  -3   9   8    3.30    4.80
   2  -9  -8   58.99    5.60
  -2   9   8   56.99    5.70
  -2   9   8   56.99    5.70
  -2   9   8   65.09    7.00
   1  -9  -8   21.90    3.60
  -1   9   8   17.70    3.50
  -1   9   8   22.30    4.60
  -1   9   8   17.70    3.30
   0  -9  -8   43.70    4.10
   0   9   8   37.20    4.70
   0   9   8   41.90    4.20
   0   9   8   48.80    4.60
   1   9   8    2.30    2.30
   1   9   8    3.20    2.60
   2   9   8   82.79    5.80
   3   9   8   97.49    6.80
   3   9   8  115.89    5.50
   4   9   8   -6.20    3.50
   4   9   8   -0.70    2.20
   2 -10  -8  847.22   21.00
  -2  10   8  838.02   21.70
  -2  10   8  800.12   21.90
  -2  10   8  838.42   23.20
   1 -10  -8   62.69    5.40
  -1  10   8   81.69    7.00
  -1  10   8   65.99    5.80
  -1  10   8   70.99    5.80
   0 -10  -8   32.40    3.80
   0  10   8   46.00    4.90
   0  10   8   39.10    4.50
   0  10   8   29.10    4.50
   1  10   8    0.90    2.70
   1  10   8    1.20    2.40
   2  10   8   28.40    4.10
   3  10   8   35.70    5.00
   4  10   8   19.00    3.60
   4  10   8   11.20    4.90
   2 -11  -8    2.20    3.60
  -2  11   8   -0.50    4.40
  -2  11   8   -0.30    3.20
  -2  11   8    0.60    3.70
   1 -11  -8  199.58    8.80
  -1  11   8  207.88    9.40
  -1  11   8  202.78    9.30
  -1  11   8  234.08   10.80
   0 -11  -8  335.27   10.60
   0  11   8  347.57   11.90
   0  11   8  327.27   11.60
   0  11   8  349.77   12.50
   1  11   8  583.74   16.10
   1  11   8  580.84   15.90
   2  11   8  822.92   20.60
   3  11   8  152.38    8.40
   1 -12  -8   27.40    4.50
  -1  12   8   23.60    4.40
  -1  12   8   22.50    4.60
  -1  12   8   31.70    5.60
   0 -12  -8    4.60    2.90
   0  12   8    3.80    3.10
   0  12   8    4.80    3.40
   1  12   8   19.00    4.20
   1  12   8    9.80    3.50
   3  12   8  157.38   11.80
   0  13   8   24.40    4.70
   0  13   8   33.30    5.30
   1  13   8   12.00    4.20
   1  13   8    9.40    4.00
   1  12  -9   24.40    4.30
   0  12  -9   10.80    3.90
   0  12  -9   12.20    3.50
  -1  12  -9  113.99    7.60
   2  11  -9    6.00    2.90
   1  11  -9    2.40    2.50
   0  11  -9    2.40    3.00
   0  11  -9    1.70    2.50
  -1  11  -9   69.19    6.00
  -1  11  -9   56.29    6.50
   1 -11   9   62.49    7.10
   3  10  -9    0.40    2.30
   2  10  -9   29.50    4.10
   1  10  -9   69.79    7.90
   1  10  -9   85.59    5.80
   0  10  -9  119.99    6.70
   0  10  -9  106.09    7.30
  -1  10  -9   17.20    4.20
  -1  10  -9   17.90    3.70
  -1  10  -9   18.00    3.90
   1 -10   9   12.60    3.70
  -2  10  -9   12.60    4.30
  -2  10  -9    6.40    3.20
   2 -10   9    5.70    3.90
   3   9  -9    7.50    2.70
  -3  -9   9    8.40    3.20
   2   9  -9   73.39    5.20
   1   9  -9    0.40    1.90
   1   9  -9   -1.40    1.90
   0   9  -9   40.10    5.00
   0   9  -9   32.30    3.60
  -1   9  -9   37.40    4.10
  -1   9  -9   30.50    4.70
  -1   9  -9   35.80    4.50
   1  -9   9   34.90    4.90
  -2   9  -9   73.39    7.00
  -2   9  -9   76.29    6.60
   2  -9   9   78.69    7.40
   4   8  -9   43.50    5.60
   4   8  -9   47.30    5.30
  -4  -8   9   52.09    7.00
   3   8  -9  408.26   12.80
  -3  -8   9  394.96   13.30
   2   8  -9  269.27    9.50
  -2  -8   9  276.47    9.70
   1   8  -9  152.88    6.70
   1   8  -9  166.78    7.30
   0   8  -9    9.60    3.00
   0   8  -9   12.00    2.50
  -1   8  -9   75.29    5.50
  -1   8  -9   79.39    4.70
  -1   8  -9   74.89    6.10
   1  -8   9   78.99    6.10
  -2   8  -9  302.47   11.90
  -2   8  -9  293.77   12.00
   2  -8   9  294.57   12.60
  -3   8  -9   75.09    7.10
  -3   8  -9   60.39    6.80
   3  -8   9   81.79    8.80
   4   7  -9  153.18    8.50
   4   7  -9  145.29    7.80
  -4  -7   9  151.48    8.60
   3   7  -9    7.30    2.70
  -3  -7   9    2.80    2.50
   2   7  -9   88.89    5.20
  -2  -7   9   83.89    5.30
   1   7  -9  384.46   10.90
   1   7  -9  395.16   11.50
  -1  -7   9  362.56   10.40
   0   7  -9  293.97    8.80
   0   7  -9  290.27   10.10
   0   7  -9  276.77    9.50
   0  -7   9  295.97    9.50
  -1   7  -9   81.39    4.40
  -1   7  -9   72.59    5.10
  -1   7  -9   77.69    5.70
   1  -7   9   72.09    5.60
  -2   7  -9   29.10    4.60
  -2   7  -9   24.10    4.20
   2  -7   9   30.10    5.00
  -3   7  -9   22.30    4.70
  -3   7  -9   13.30    4.00
   3  -7   9   18.40    4.70
   4   6  -9   13.90    3.10
   4   6  -9   19.70    3.90
  -4  -6   9   28.20    4.80
   3   6  -9   15.50    3.00
  -3  -6   9   13.50    3.40
   2   6  -9  311.47    9.90
  -2  -6   9  313.47   10.10
   1   6  -9 1108.59   24.00
   1   6  -9 1081.49   23.40
  -1  -6   9 1142.69   23.30
   0   6  -9 1479.05   28.70
   0   6  -9 1455.55   30.40
   0   6  -9 1417.86   28.80
   0  -6   9 1461.95   29.40
   0  -6   9 1425.66   27.90
  -1   6  -9    9.90    2.90
  -1   6  -9    6.20    2.20
  -1   6  -9    8.00    1.90
   1  -6   9    9.90    2.70
  -2   6  -9    2.50    2.20
  -2   6  -9    0.60    2.60
   2  -6   9    2.40    2.80
  -3   6  -9  386.26   13.50
  -3   6  -9  386.06   14.30
   3  -6   9  376.66   14.90
  -4   6  -9  182.48   10.90
   4   5  -9   35.40    4.90
   4   5  -9   45.50    4.90
  -4  -5   9   42.60    5.60
   3   5  -9    3.90    2.20
  -3  -5   9    0.20    2.20
   2   5  -9  496.95   13.20
   2   5  -9  517.95   12.80
  -2  -5   9  500.85   13.50
   1   5  -9  456.45   11.90
   1   5  -9  450.35   11.60
  -1  -5   9  447.56   11.40
   0   5  -9  264.47    7.70
   0   5  -9  264.87    7.60
   0   5  -9  263.27    8.80
   0  -5   9  271.17    7.40
   0  -5   9  266.37    8.00
  -1   5  -9   29.30    3.80
  -1   5  -9   28.80    3.40
  -1   5  -9   30.10    2.60
   1  -5   9   30.20    2.40
   1  -5   9   29.70    3.80
  -2   5  -9   20.30    3.40
  -2   5  -9   22.00    3.70
   2  -5   9   28.40    4.50
  -3   5  -9  103.19    6.90
  -3   5  -9  104.09    7.30
   3  -5   9   90.29    7.70
   4   4  -9  185.38    8.40
  -4  -4   9  203.58    9.70
   3   4  -9  190.88    7.70
  -3  -4   9  181.18    8.20
   2   4  -9  139.69    5.90
   2   4  -9  138.89    5.60
  -2  -4   9  132.69    6.10
   1   4  -9  258.47    7.80
   1   4  -9  254.17    7.90
  -1  -4   9  252.37    7.60
   0   4  -9  629.64   13.80
   0   4  -9  627.14   15.10
   0   4  -9  642.94   13.90
   0  -4   9  640.24   13.70
   0  -4   9  616.34   14.00
  -1   4  -9  765.92   15.80
  -1   4  -9  792.12   18.40
  -1   4  -9  780.72   18.00
   1  -4   9  767.42   18.30
   1  -4   9  787.32   15.90
  -2   4  -9 1008.00   24.00
  -2   4  -9 1015.60   23.40
   2  -4   9 1051.59   20.60
   2  -4   9 1031.50   24.60
  -3   4  -9  137.89    8.00
  -3   4  -9  125.09    7.10
   3  -4   9  125.99    8.40
  -4   4  -9   73.89    7.20
   4  -4   9   68.89    7.80
   4   3  -9    2.90    2.60
   4   3  -9   -0.10    2.10
  -4  -3   9   -2.10    2.50
   3   3  -9   11.80    2.70
  -3  -3   9   14.80    3.30
   2   3  -9   96.99    4.60
   2   3  -9   82.99    4.70
  -2  -3   9   94.39    4.90
   1   3  -9  124.69    5.00
   1   3  -9  129.49    5.10
  -1  -3   9  116.29    4.80
   0   3  -9  286.97    7.50
   0   3  -9  290.17    7.40
   0   3  -9  302.67    8.70
   0  -3   9  289.07    7.50
   0  -3   9  281.77    7.50
  -1   3  -9  415.86    9.20
  -1   3  -9  413.96   11.10
  -1   3  -9  421.46   11.40
   1  -3   9  433.66    9.70
   1  -3   9  416.06   11.50
  -2   3  -9  445.96   12.60
  -2   3  -9  443.66   13.10
   2  -3   9  458.75   13.70
   2  -3   9  468.65   10.80
  -3   3  -9  112.59    6.30
  -3   3  -9   96.79    6.70
   3  -3   9  108.79    5.10
   3  -3   9  122.49    7.60
  -4   3  -9   71.49    6.90
   4  -3   9   83.09    7.80
   4   2  -9    4.40    2.50
   4   2  -9    0.20    2.20
  -4  -2   9    0.70    2.40
   3   2  -9    0.70    1.90
  -3  -2   9    3.60    2.30
   2   2  -9   61.09    4.00
   2   2  -9   54.19    3.40
  -2  -2   9   51.49    3.90
   1   2  -9  144.59    5.30
   1   2  -9  140.89    5.30
  -1  -2   9  142.69    5.20
   0   2  -9   84.19    3.50
   0   2  -9   85.59    4.10
   0  -2   9   78.19    3.40
   0  -2   9   86.89    3.60
  -1   2  -9  110.69    5.00
  -1   2  -9  102.99    3.30
  -1   2  -9   99.79    4.70
   1  -2   9  101.79    3.80
   1  -2   9  106.79    5.00
  -2   2  -9 1376.46   29.00
  -2   2  -9 1367.06   28.20
   2  -2   9 1328.87   26.10
   2  -2   9 1350.66   29.30
  -3   2  -9  388.06   11.90
  -3   2  -9  428.26   13.60
   3  -2   9  394.36   10.50
   3  -2   9  399.66   13.70
  -4   2  -9   12.50    4.00
   4  -2   9   14.10    4.40
   4  -2   9    7.30    2.50
   4   1  -9  176.18    8.10
   4   1  -9  153.58    8.00
  -4  -1   9  173.68    8.70
   3   1  -9  298.87    8.80
   3   1  -9  293.17    9.70
  -3  -1   9  296.57   10.20
  -3  -1   9  278.17   10.00
   2   1  -9   12.20    2.30
   2   1  -9   11.60    2.00
  -2  -1   9   15.00    2.60
  -2  -1   9    9.20    2.30
   1   1  -9  705.23   15.70
   1   1  -9  732.43   15.80
  -1  -1   9  754.22   12.90
  -1  -1   9  722.03   16.10
  -1  -1   9  728.13   15.70
   0   1  -9 1060.69   21.50
   0   1  -9 1080.89   20.60
   0  -1   9 1062.49   20.60
   0  -1   9 1020.90   20.20
  -1   1  -9  128.39    3.50
  -1   1  -9  123.29    5.10
   1  -1   9  117.79    5.10
   1  -1   9  118.89    4.20
  -2   1  -9    8.70    2.20
  -2   1  -9   10.10    2.30
   2  -1   9   10.30    2.60
   2  -1   9    9.20    1.80
  -3   1  -9    6.00    2.50
  -3   1  -9    3.40    2.00
   3  -1   9    4.10    3.10
   3  -1   9    8.20    2.10
   4  -1   9    7.90    3.30
   4  -1   9    4.70    2.30
   4   0  -9   35.10    4.50
   4   0  -9   29.90    4.20
  -4   0   9   34.30    4.60
  -4   0   9   39.30    5.00
   3   0  -9    0.00    2.00
   3   0  -9    1.10    1.80
  -3   0   9    3.30    2.00
  -3   0   9    4.60    2.50
   2   0  -9   85.29    4.50
   2   0  -9   83.49    4.10
  -2   0   9   79.29    4.40
  -2   0   9   79.89    4.70
   1   0  -9   16.40    2.20
   1   0  -9   18.70    2.30
  -1   0   9   16.10    2.30
  -1   0   9   15.90    1.10
  -1   0   9   16.90    2.10
   0   0  -9  175.68    5.10
   0   0  -9  169.88    5.60
   0   0   9  170.58    5.10
   0   0   9  160.18    4.70
   0   0   9  168.68    5.20
  -1   0  -9   11.40    2.10
  -1   0  -9   14.30    1.20
   1   0   9   17.50    2.50
   1   0   9   12.10    1.60
  -2   0  -9    3.50    1.70
   2   0   9    5.10    2.30
   2   0   9    4.90    1.50
   3   0   9  283.37    8.60
   3   0   9  309.77   11.20
   4   0   9   70.59    6.70
   4   0   9   64.39    4.80
   4  -1  -9   22.20    3.90
   4  -1  -9   25.30    3.90
  -4   1   9   27.10    4.30
  -4   1   9   29.20    4.40
   3  -1  -9   15.20    2.90
   3  -1  -9   23.60    3.10
  -3   1   9   16.70    3.30
  -3   1   9   15.90    3.30
   2  -1  -9   26.60    3.00
   2  -1  -9   23.80    2.60
  -2   1   9   27.40    3.00
  -2   1   9   26.40    3.20
   1  -1  -9  733.73   15.80
   1  -1  -9  748.63   15.90
  -1   1   9  741.03   15.70
  -1   1   9  722.23   14.00
  -1   1   9  733.43   16.10
   0  -1  -9  519.85   11.20
   0  -1  -9  523.55   11.80
   0   1   9  530.25   10.90
   0   1   9  509.45   11.30
   0   1   9  504.35   11.10
  -1  -1  -9  112.79    4.50
  -1  -1  -9  113.99    3.20
   1   1   9  109.99    4.00
   1   1   9  114.19    4.80
  -2  -1  -9  815.92   17.40
   2   1   9  793.42   18.90
   2   1   9  836.72   17.10
   3   1   9  396.06   10.50
   3   1   9  381.36   12.50
   4   1   9  547.85   14.50
   4   1   9  566.54   17.50
   4  -2  -9    1.80    2.30
   4  -2  -9    2.80    2.50
  -4   2   9    2.00    2.90
  -4   2   9    3.70    2.90
   3  -2  -9  356.56   10.40
   3  -2  -9  370.16   11.20
  -3   2   9  352.16   11.60
  -3   2   9  334.57   10.80
  -3   2   9  336.97   11.30
   2  -2  -9  885.51   19.00
   2  -2  -9  870.91   19.50
  -2   2   9  870.71   19.80
  -2   2   9  879.11   17.90
  -2   2   9  891.21   19.30
  -2   2   9  909.61   20.50
   1  -2  -9  637.14   14.10
   1  -2  -9  634.94   14.00
  -1   2   9  649.04   13.80
  -1   2   9  611.14   12.60
  -1   2   9  614.34   14.30
   0  -2  -9    4.30    1.50
   0  -2  -9    4.20    1.20
   0   2   9    4.80    1.50
   0   2   9    9.00    1.60
   0   2   9    3.00    1.30
  -1  -2  -9   78.99    2.70
  -1  -2  -9   77.79    3.60
   1   2   9   71.39    3.80
   1   2   9   77.29    2.80
   1   2   9   87.39    3.50
  -2  -2  -9  343.37    8.90
   2   2   9  341.27   10.40
   2   2   9  374.56    9.10
   3   2   9  329.27   11.30
   3   2   9  333.47    9.50
   4   2   9   55.69    4.60
   4   2   9   64.59    6.30
   4  -3  -9   49.99    5.30
  -4   3   9   53.19    6.00
  -4   3   9   41.00    5.60
   3  -3  -9  173.48    7.60
   3  -3  -9  156.28    6.90
  -3   3   9  163.28    8.10
  -3   3   9  163.58    7.10
  -3   3   9  178.08    8.10
   2  -3  -9  498.95   12.80
   2  -3  -9  510.35   12.60
  -2   3   9  486.85   13.10
  -2   3   9  503.05   12.40
  -2   3   9  490.95   13.70
  -2   3   9  491.55   11.70
   1  -3  -9  818.52   17.60
   1  -3  -9  847.02   17.80
  -1   3   9  816.12   16.50
  -1   3   9  820.62   18.70
  -1   3   9  810.62   17.00
  -1   3   9  843.42   18.00
   0  -3  -9  954.00   19.50
   0   3   9  985.50   19.20
   0   3   9  948.21   19.40
   0   3   9  985.70   18.90
  -1  -3  -9   38.30    2.70
   1   3   9   33.80    2.40
   1   3   9   35.30    2.20
   1   3   9   30.80    2.90
  -2  -3  -9  427.26   10.20
   2   3   9  452.45   10.60
   2   3   9  443.56   12.00
   3   3   9   66.49    4.10
   3   3   9   62.29    5.20
   4   3   9    8.60    3.30
   4   3   9   10.90    2.80
   4  -4  -9   16.10    3.90
   4  -4  -9   17.70    3.70
  -4   4   9   17.90    4.50
  -4   4   9   17.00    4.40
   3  -4  -9    2.00    2.20
   3  -4  -9    2.20    2.30
  -3   4   9    4.70    3.10
  -3   4   9   -1.30    2.70
   2  -4  -9   -1.10    1.90
   2  -4  -9    0.10    1.70
  -2   4   9   -3.30    2.30
  -2   4   9   -0.30    1.40
  -2   4   9    1.90    1.70
  -2   4   9   -0.10    2.00
   1  -4  -9   35.10    3.20
  -1   4   9   38.40    3.70
  -1   4   9   36.10    3.90
  -1   4   9   31.30    2.50
  -1   4   9   34.30    2.70
   0  -4  -9   27.80    2.60
   0   4   9   27.10    2.60
   0   4   9   28.90    2.20
   0   4   9   26.70    2.60
  -1  -4  -9  270.67    7.20
   1   4   9  278.87    7.00
   1   4   9  281.67    6.90
   1   4   9  267.07    7.90
   2   4   9  525.45   13.50
   2   4   9  536.55   12.20
   3   4   9  467.35   13.80
   3   4   9  496.75   12.50
   4   4   9  526.95   14.40
   4   4   9  545.15   16.20
   4  -5  -9   44.80    5.40
   4  -5  -9   49.70    5.50
  -4   5   9   56.49    6.50
  -4   5   9   58.49    7.00
   3  -5  -9  293.07   10.80
   3  -5  -9  327.07   10.60
  -3   5   9  324.47   12.30
  -3   5   9  309.17   11.20
   2  -5  -9  404.56   11.60
   2  -5  -9  395.76   11.20
  -2   5   9  399.86   11.00
  -2   5   9  408.96   13.00
  -2   5   9  399.96   12.00
   1  -5  -9  241.48    7.50
  -1   5   9  228.58    7.90
  -1   5   9  230.28    7.10
  -1   5   9  234.68    8.60
  -1   5   9  220.78    6.40
   0  -5  -9   26.70    2.60
   0   5   9   30.40    2.90
   0   5   9   27.50    2.30
   0   5   9   27.20    2.60
   0   5   9   35.10    3.70
  -1  -5  -9  324.87    8.30
   1   5   9  333.97    8.10
   1   5   9  330.87    8.30
   1   5   9  343.97    9.40
   2   5   9  388.36   10.90
   2   5   9  376.16    9.50
   3   5   9    5.40    2.80
   3   5   9    6.80    2.10
   4   5   9  123.29    7.40
   4   5   9  111.59    6.10
   4  -6  -9   -0.50    3.40
   4  -6  -9    3.00    3.50
  -4   6   9    8.80    4.50
  -4   6   9    3.20    3.70
   3  -6  -9    6.10    2.90
   3  -6  -9   11.30    3.50
  -3   6   9    8.60    3.60
  -3   6   9    8.10    4.20
   2  -6  -9   26.60    3.40
  -2   6   9   36.80    4.20
  -2   6   9   37.20    4.90
  -2   6   9   30.50    3.60
   1  -6  -9  104.99    5.20
  -1   6   9  105.09    5.00
  -1   6   9  104.79    6.30
  -1   6   9  102.89    5.60
   0  -6  -9   47.40    3.40
   0   6   9   43.20    3.60
   0   6   9   42.20    2.60
   0   6   9   43.10    4.20
   0   6   9   42.10    3.40
  -1  -6  -9   63.49    3.50
   1   6   9   63.59    4.10
   1   6   9   67.09    3.80
   1   6   9   72.29    3.40
   2   6   9   31.30    2.90
   2   6   9   27.10    3.60
   3   6   9   71.99    5.60
   3   6   9   74.69    4.60
   4   6   9   44.30    5.20
   4   6   9   35.20    4.10
   3  -7  -9    6.80    3.20
   3  -7  -9    4.90    3.20
  -3   7   9    3.30    3.40
  -3   7   9    3.20    2.80
  -3   7   9    2.00    3.50
   2  -7  -9   39.40    4.50
  -2   7   9   46.10    5.80
  -2   7   9   26.10    4.30
  -2   7   9   36.00    4.10
   1  -7  -9  124.59    5.90
  -1   7   9  121.99    5.80
  -1   7   9  122.69    6.20
  -1   7   9  110.59    6.90
   0  -7  -9  122.29    5.30
   0   7   9  108.69    5.50
   0   7   9  117.69    6.20
   0   7   9  112.49    5.20
  -1  -7  -9   82.99    4.20
   1   7   9   93.09    3.80
   1   7   9   90.89    5.20
   1   7   9   98.09    4.60
   2   7   9  263.57    9.30
   2   7   9  266.77    7.60
   3   7   9  205.58    7.40
   3   7   9  202.88    8.80
   4   7   9   64.29    6.10
   4   7   9   65.89    5.10
   3  -8  -9   -0.30    2.80
   3  -8  -9   -1.20    2.80
  -3   8   9   -0.30    2.70
  -3   8   9   -3.50    3.10
  -3   8   9   -0.40    3.60
   2  -8  -9  248.98    9.50
  -2   8   9  254.17   11.20
  -2   8   9  256.47    9.80
  -2   8   9  228.28    9.80
   1  -8  -9  322.37   10.10
  -1   8   9  308.77   11.50
  -1   8   9  336.17   10.80
  -1   8   9  318.97   10.30
   0  -8  -9  228.18    7.60
   0   8   9  223.88    8.10
   0   8   9  230.98    8.30
   0   8   9  230.98    8.90
  -1  -8  -9  196.68    6.50
   1   8   9  199.78    7.20
   1   8   9  197.28    7.70
   2   8   9   45.50    3.50
   2   8   9   45.50    4.60
   3   8   9  340.07   10.10
   3   8   9  340.27   11.70
   4   8   9  152.78    8.70
   4   8   9  167.48    7.60
  -3   9   9  109.49    7.90
  -3   9   9  100.39   11.10
   2  -9  -9   20.30    4.20
  -2   9   9   23.90    4.40
  -2   9   9   16.90    4.80
  -2   9   9   18.30    3.90
   1  -9  -9  217.48    8.50
  -1   9   9  226.08   10.10
  -1   9   9  224.18    9.00
  -1   9   9  218.58    9.00
   0  -9  -9  920.81   20.30
   0   9   9  906.31   21.20
   0   9   9  923.81   22.20
   0   9   9  937.21   21.30
   1   9   9  808.92   18.50
   1   9   9  780.02   18.90
   2   9   9   14.30    3.60
   3   9   9    3.40    2.10
   3   9   9   -1.40    3.30
   4   9   9   22.10    3.50
   4   9   9   34.00    5.30
   2 -10  -9   79.99    6.70
  -2  10   9   94.49    8.40
  -2  10   9   76.29    6.70
  -2  10   9   80.09    7.10
   1 -10  -9   29.00    4.40
  -1  10   9   20.20    4.50
  -1  10   9   28.30    4.30
  -1  10   9   22.00    4.10
   0 -10  -9   46.70    4.50
   0  10   9   53.79    5.20
   0  10   9   54.19    5.60
   0  10   9   66.69    5.70
   1  10   9  162.78    7.50
   1  10   9  171.58    7.80
   2  10   9  121.89    7.10
   3  10   9    0.80    3.70
   4  10   9  171.58    8.80
  -2  11   9   17.90    4.60
   1 -11  -9   30.00    4.50
  -1  11   9   33.30    5.00
  -1  11   9   21.60    4.00
  -1  11   9   35.70    5.70
   0 -11  -9   28.00    3.90
   0  11   9   30.80    4.60
   0  11   9   24.20    4.20
   0  11   9   14.60    4.10
   1  11   9   95.19    6.50
   1  11   9  102.39    6.40
   2  11   9   83.09    6.50
   3  11   9   -1.00    3.50
   1 -12  -9   -4.20    2.90
  -1  12   9   -1.70    3.50
  -1  12   9    0.40    3.20
  -1  12   9    5.20    3.90
   0 -12  -9  297.97   12.90
   0  12   9  302.07   11.70
   0  12   9  316.37   11.90
   1  12   9  256.57   10.20
   1  12   9  236.68   10.10
   2  12   9   37.70    5.10
   0  13   9   46.60    8.50
   1  13   9  113.49    7.80
   1  13   9  104.99    9.60
   0  12 -10   32.60    4.80
   0  12 -10   26.20    4.90
   2  11 -10    0.70    2.50
   1  11 -10   90.69    6.30
   0  11 -10   60.59    6.60
   0  11 -10   62.19    5.60
  -1  11 -10   -0.50    3.00
  -1  11 -10    6.20    4.00
   2  10 -10  498.45   14.90
   1  10 -10   11.70    3.10
   1  10 -10    7.60    3.70
   0  10 -10   10.30    2.90
   0  10 -10   15.10    3.60
  -1  10 -10    4.00    2.70
  -1  10 -10    4.70    3.30
   1 -10  10    4.00    3.10
  -2  10 -10   66.39    6.70
   2 -10  10   67.09    8.00
   3   9 -10  188.68    8.70
  -3  -9  10  187.98    9.30
   2   9 -10  265.47    9.90
   1   9 -10   20.30    3.30
   1   9 -10   20.40    3.50
   0   9 -10  209.88    9.30
   0   9 -10  201.88    8.10
  -1   9 -10  257.07   10.90
  -1   9 -10  252.17    9.10
  -1   9 -10  251.17   10.20
   1  -9  10  246.48   10.70
  -2   9 -10  102.29    7.50
  -2   9 -10  121.19    8.50
   2  -9  10  113.29    8.60
   3   8 -10  144.89    7.40
  -3  -8  10  129.89    7.70
   2   8 -10  511.55   14.40
  -2  -8  10  507.45   14.40
   1   8 -10  199.48    7.70
   1   8 -10  179.28    8.00
   0   8 -10   65.89    4.50
   0   8 -10   63.49    5.40
  -1   8 -10  177.08    7.00
  -1   8 -10  176.38    8.60
  -1   8 -10  179.88    8.30
   1  -8  10  176.78    8.60
  -2   8 -10  472.55   15.70
  -2   8 -10  474.55   15.90
   2  -8  10  477.95   16.60
  -3   8 -10   98.79    8.70
  -3   8 -10   94.19    9.00
   3  -8  10  102.69   11.70
   4   7 -10   47.50    5.30
   4   7 -10   38.40    5.20
  -4  -7  10   32.30    5.00
   3   7 -10    6.20    2.60
  -3  -7  10    6.20    2.90
   2   7 -10  308.27   10.20
  -2  -7  10  298.37   10.20
   1   7 -10  152.68    6.90
   1   7 -10  149.88    6.50
  -1  -7  10  145.49    6.20
   0   7 -10  208.48    7.40
   0   7 -10  219.98    8.90
  -1   7 -10    0.60    2.40
  -1   7 -10    1.70    1.70
  -1   7 -10    1.50    1.90
   1  -7  10   -1.10    1.90
  -2   7 -10   48.20    5.60
  -2   7 -10   39.60    5.00
   2  -7  10   47.60    6.10
  -3   7 -10   -0.40    2.70
  -3   7 -10    4.40    3.40
   3  -7  10    0.00    3.40
   4   6 -10   82.19    6.40
   4   6 -10   94.99    6.30
  -4  -6  10   88.49    7.20
   3   6 -10   79.99    5.50
  -3  -6  10   75.49    6.00
   2   6 -10   10.20    2.50
   2   6 -10    8.00    2.30
  -2  -6  10   10.60    2.70
   1   6 -10  373.86   10.70
   1   6 -10  379.56   11.30
  -1  -6  10  393.46   10.70
   0   6 -10  101.39    4.70
   0   6 -10   90.99    5.60
   0  -6  10   91.19    4.80
   0  -6  10   95.39    4.30
  -1   6 -10  250.67    9.20
  -1   6 -10  261.77    9.90
  -1   6 -10  254.07    7.70
   1  -6  10  257.07    9.60
  -2   6 -10   72.29    5.70
  -2   6 -10   84.59    6.40
   2  -6  10   75.29    6.60
  -3   6 -10   38.70    5.60
  -3   6 -10   42.90    5.40
   3  -6  10   38.70    6.10
   4   5 -10    2.10    2.40
  -4  -5  10   -1.50    2.90
   3   5 -10   16.00    3.10
  -3  -5  10   18.10    3.50
   2   5 -10   34.60    3.70
   2   5 -10   36.50    3.60
  -2  -5  10   31.10    3.70
   1   5 -10 1410.76   28.40
   1   5 -10 1396.86   28.80
  -1  -5  10 1373.06   28.10
   0   5 -10 3618.84   64.09
   0   5 -10 3527.35   65.99
   0   5 -10 3498.35   63.99
   0  -5  10 3486.45   64.39
   0  -5  10 3546.25   63.69
  -1   5 -10 1129.19   25.40
  -1   5 -10 1123.89   22.30
  -1   5 -10 1119.09   24.60
   1  -5  10 1114.39   25.10
   1  -5  10 1125.09   22.20
  -2   5 -10   22.10    3.60
  -2   5 -10   15.60    3.30
   2  -5  10   24.50    4.30
  -3   5 -10   31.80    4.80
  -3   5 -10   21.70    4.20
   3  -5  10   34.00    5.70
   4   4 -10   -0.10    2.40
  -4  -4  10    0.70    2.90
   3   4 -10  227.08    8.70
  -3  -4  10  215.58    9.10
   2   4 -10  487.65   12.40
   2   4 -10  488.45   13.00
  -2  -4  10  480.25   13.20
   1   4 -10   35.50    3.40
   1   4 -10   36.70    3.70
  -1  -4  10   29.20    3.00
   0   4 -10   17.20    2.20
   0   4 -10   20.40    3.10
   0   4 -10   19.10    2.30
   0  -4  10   18.40    2.30
   0  -4  10   18.20    2.30
  -1   4 -10  254.37    8.50
  -1   4 -10  247.18    6.70
  -1   4 -10  255.97    9.00
   1  -4  10  245.38    8.70
   1  -4  10  262.87    7.10
  -2   4 -10    0.00    1.80
  -2   4 -10   -0.60    2.10
   2  -4  10   -0.80    2.30
   2  -4  10   -1.80    1.50
  -3   4 -10   25.80    4.40
  -3   4 -10   28.90    4.30
   3  -4  10   35.80    5.60
  -4   4 -10  279.57   12.80
   4  -4  10  278.97   13.40
   4   3 -10  142.89    7.40
  -4  -3  10  145.59    8.50
   3   3 -10   20.50    3.40
  -3  -3  10   21.40    3.70
   2   3 -10  325.77    9.30
   2   3 -10  314.47    9.70
  -2  -3  10  314.37    9.80
   1   3 -10   34.40    3.40
   1   3 -10   31.90    3.10
  -1  -3  10   29.70    2.90
   0   3 -10    7.80    2.10
   0   3 -10    7.70    1.60
   0   3 -10    5.80    1.40
   0  -3  10    7.00    1.60
   0  -3  10    8.70    1.80
  -1   3 -10  134.29    4.30
  -1   3 -10  131.29    6.10
  -1   3 -10  138.39    5.80
   1  -3  10  129.99    5.90
   1  -3  10  143.89    4.90
  -2   3 -10   40.50    4.40
  -2   3 -10   45.00    4.70
   2  -3  10   46.50    5.20
   2  -3  10   44.00    3.30
  -3   3 -10   15.10    3.40
  -3   3 -10   21.50    4.00
   3  -3  10   14.60    3.80
   3  -3  10   16.00    2.70
  -4   3 -10   11.30    3.90
   4  -3  10   16.60    5.00
   4   2 -10   90.39    6.20
  -4  -2  10   94.19    6.70
   3   2 -10  270.27    9.60
  -3  -2  10  294.17   10.30
   2   2 -10  551.24   14.10
   2   2 -10  563.14   13.50
  -2  -2  10  565.24   14.30
   1   2 -10  466.55   11.90
   1   2 -10  477.85   11.80
  -1  -2  10  481.35   11.70
   0   2 -10  504.95   11.40
   0   2 -10  499.15   12.50
   0  -2  10  504.65   11.40
   0  -2  10  496.35   11.10
  -1   2 -10  216.38    7.50
  -1   2 -10  213.98    7.10
  -1   2 -10  218.18    5.50
   1  -2  10  225.98    6.30
   1  -2  10  215.28    7.40
  -2   2 -10   -0.70    1.80
  -2   2 -10   -0.40    1.60
   2  -2  10    1.60    1.60
   2  -2  10   -0.80    2.20
  -3   2 -10   31.10    4.40
  -3   2 -10   30.50    3.90
   3  -2  10   36.60    4.90
   3  -2  10   20.20    2.80
   4  -2  10  197.58   10.50
   4  -2  10  169.78    7.30
   4   1 -10  136.89    7.40
  -4  -1  10  131.49    7.90
   3   1 -10    6.50    2.40
   3   1 -10    5.10    2.10
  -3  -1  10    4.40    2.60
  -3  -1  10    2.30    2.60
   2   1 -10   51.09    3.70
   2   1 -10   53.69    4.00
  -2  -1  10   53.09    4.30
  -2  -1  10   57.09    4.10
   1   1 -10  139.09    5.40
   1   1 -10  142.19    5.40
  -1  -1  10  148.49    5.80
  -1  -1  10  147.79    5.40
   0   1 -10   59.89    3.80
   0   1 -10   57.09    3.10
   0  -1  10   59.29    3.10
   0  -1  10   55.29    2.80
  -1   1 -10   33.40    1.90
  -1   1 -10   33.30    3.20
   1  -1  10   36.20    2.60
   1  -1  10   37.50    3.20
  -2   1 -10    1.20    1.80
   2  -1  10    3.70    2.30
   2  -1  10    2.80    1.70
  -3   1 -10   99.79    5.50
   3  -1  10   92.19    4.80
   3  -1  10   92.89    6.80
   4  -1  10   95.59    5.60
   4  -1  10  124.59    8.50
   4   0 -10  307.47   11.10
  -4   0  10  302.67   11.60
  -4   0  10  294.97   11.40
   3   0 -10  447.76   12.20
   3   0 -10  463.95   13.30
  -3   0  10  476.35   13.80
  -3   0  10  482.85   13.80
   2   0 -10  575.44   13.50
   2   0 -10  571.64   14.10
  -2   0  10  567.64   14.40
  -2   0  10  543.25   14.00
   1   0 -10  366.66    9.70
   1   0 -10  366.26    9.60
  -1   0  10  367.56    7.30
  -1   0  10  354.76    9.70
  -1   0  10  374.46    9.60
   0   0 -10  119.59    4.90
   0   0 -10  112.09    4.20
   0   0  10  116.49    4.30
   0   0  10  112.99    4.30
   0   0  10  110.09    3.80
  -1   0 -10  442.56   11.10
  -1   0 -10  437.16    9.00
   1   0  10  434.86   10.10
   1   0  10  428.86   11.10
  -2   0 -10  185.78    6.80
   2   0  10  174.98    7.50
   2   0  10  192.18    6.20
   3   0  10   -0.60    1.70
   3   0  10   -2.70    2.20
   4   0  10  103.09    5.80
   4   0  10  114.09    8.10
   4  -1 -10    1.10    2.50
   4  -1 -10    1.60    2.30
  -4   1  10    2.40    2.90
  -4   1  10   -3.50    2.50
   3  -1 -10   -2.60    1.80
   3  -1 -10    0.90    2.10
  -3   1  10    0.30    2.10
  -3   1  10   -0.60    2.30
   2  -1 -10   27.00    3.10
   2  -1 -10   31.70    3.40
  -2   1  10   25.60    3.40
  -2   1  10   24.90    3.20
   1  -1 -10   72.49    3.90
   1  -1 -10   74.09    3.90
  -1   1  10   78.69    3.90
  -1   1  10   75.39    2.70
  -1   1  10   76.69    4.20
   0  -1 -10  849.91   17.10
   0  -1 -10  853.61   17.80
   0   1  10  845.52   16.70
   0   1  10  835.02   17.20
   0   1  10  833.92   17.10
  -1  -1 -10  830.42   15.80
  -1  -1 -10  834.32   17.70
   1   1  10  814.82   17.90
   1   1  10  854.81   17.00
  -2  -1 -10  341.97    9.50
   2   1  10  371.46    9.20
   2   1  10  328.77   10.50
   3   1  10  287.67    8.70
   3   1  10  273.87   10.60
   4   1  10   -0.70    2.00
   4   1  10    6.50    3.50
   4  -2 -10   62.19    5.40
   4  -2 -10   69.49    5.90
  -4   2  10   82.09    6.60
  -4   2  10   79.49    6.40
   3  -2 -10    6.90    2.60
   3  -2 -10   11.80    2.80
  -3   2  10   11.30    2.90
  -3   2  10    1.60    2.50
   2  -2 -10  467.15   12.50
   2  -2 -10  477.45   12.20
  -2   2  10  476.65   12.30
  -2   2  10  462.35   12.80
   1  -2 -10  468.35   11.40
   1  -2 -10  461.05   11.30
  -1   2  10  451.95    9.80
  -1   2  10  459.85   11.00
  -1   2  10  443.36   11.50
   0  -2 -10   29.60    2.90
   0  -2 -10   25.10    2.20
   0   2  10   22.20    2.10
   0   2  10   22.70    2.30
   0   2  10   24.20    2.50
  -1  -2 -10  429.56    9.10
  -1  -2 -10  435.16   10.60
   1   2  10  418.36    9.20
   1   2  10  433.86   10.90
   1   2  10  445.86   10.10
  -2  -2 -10  914.91   19.00
   2   2  10  930.01   18.90
   2   2  10  875.91   20.40
   3   2  10  604.34   16.70
   3   2  10  611.34   14.50
   4   2  10    8.40    2.60
   4   2  10    5.30    3.40
   4  -3 -10  152.58    8.20
  -4   3  10  137.49    8.70
  -4   3  10  165.18    8.90
   3  -3 -10   55.89    5.10
   3  -3 -10   58.39    5.40
  -3   3  10   50.39    4.70
  -3   3  10   56.69    5.80
  -3   3  10   53.59    5.40
   2  -3 -10   59.09    4.10
   2  -3 -10   54.99    4.10
  -2   3  10   54.69    4.80
  -2   3  10   59.39    4.10
  -2   3  10   63.19    4.80
   1  -3 -10  108.89    4.90
   1  -3 -10  107.99    4.80
  -1   3  10  107.79    4.00
  -1   3  10  107.49    5.10
  -1   3  10  111.19    4.50
   0  -3 -10   13.90    1.90
   0  -3 -10   15.90    2.30
   0   3  10   14.10    1.90
   0   3  10   18.00    2.30
   0   3  10   14.80    2.00
  -1  -3 -10   52.29    2.50
  -1  -3 -10   56.59    3.20
   1   3  10   57.19    3.60
   1   3  10   54.49    2.70
   1   3  10   52.99    3.00
  -2  -3 -10    3.70    1.50
   2   3  10    1.50    1.60
   2   3  10    1.30    2.00
   3   3  10   11.00    2.20
   3   3  10   22.50    3.80
   4   3  10   22.30    4.10
   4   3  10   19.30    3.30
   4  -4 -10   51.09    5.60
   4  -4 -10   69.59    6.20
  -4   4  10   52.99    6.20
  -4   4  10   48.20    6.20
   3  -4 -10   16.90    3.70
   3  -4 -10   15.30    3.40
  -3   4  10   17.40    4.10
  -3   4  10   20.70    4.10
   2  -4 -10   69.29    4.60
   2  -4 -10   67.29    4.40
  -2   4  10   73.39    5.20
  -2   4  10   65.89    4.30
  -2   4  10   66.89    5.50
  -2   4  10   73.89    4.10
   1  -4 -10   17.80    2.70
   1  -4 -10   19.40    2.70
  -1   4  10   17.40    2.20
  -1   4  10   19.40    3.10
  -1   4  10   20.10    2.40
  -1   4  10   20.20    3.20
   0  -4 -10   74.59    3.90
   0   4  10   87.59    4.20
   0   4  10   82.29    3.50
   0   4  10   75.99    3.80
  -1  -4 -10   65.19    3.60
   1   4  10   63.09    3.20
   1   4  10   68.49    3.30
   1   4  10   60.69    3.90
   2   4  10    2.00    1.50
   2   4  10    0.70    2.00
   3   4  10    3.40    1.90
   3   4  10    3.00    2.60
   4   4  10   66.19    6.10
   4   4  10   58.19    4.60
   4  -5 -10   -1.90    3.00
   4  -5 -10   -0.50    3.00
  -4   5  10   -1.60    3.50
  -4   5  10   -1.80    3.80
   3  -5 -10   -0.60    2.40
   3  -5 -10    2.80    2.80
  -3   5  10    2.40    3.40
  -3   5  10   -2.50    2.90
   2  -5 -10   13.60    2.80
   2  -5 -10   16.90    2.90
  -2   5  10   16.20    3.50
  -2   5  10   19.40    2.70
  -2   5  10   16.50    3.20
   1  -5 -10   98.49    5.10
  -1   5  10   98.99    5.90
  -1   5  10  102.49    4.40
  -1   5  10  105.59    5.60
  -1   5  10   98.69    4.60
   0  -5 -10   -0.20    1.50
   0   5  10   -1.30    1.10
   0   5  10   -2.90    1.50
   0   5  10    0.70    1.40
  -1  -5 -10  129.89    4.90
   1   5  10  121.39    5.60
   1   5  10  125.29    4.50
   1   5  10  133.49    4.80
   2   5  10   81.29    4.00
   2   5  10   81.19    4.90
   3   5  10   94.59    5.00
   3   5  10   95.39    6.10
   4   5  10   20.90    4.10
   4   5  10   19.20    3.30
   3  -6 -10  777.12   19.10
   3  -6 -10  732.13   19.50
  -3   6  10  750.32   21.10
  -3   6  10  732.33   19.90
   2  -6 -10  926.91   20.80
  -2   6  10  905.81   20.70
  -2   6  10  873.71   21.50
  -2   6  10  902.11   22.80
   1  -6 -10  859.61   18.80
  -1   6  10  800.22   19.10
  -1   6  10  848.12   20.40
  -1   6  10  818.72   18.40
   0  -6 -10  225.68    7.40
   0   6  10  232.88    7.80
   0   6  10  242.98    6.50
   0   6  10  221.38    8.40
   0   6  10  234.88    7.50
  -1  -6 -10   -2.10    1.40
   1   6  10    0.20    1.30
   1   6  10    0.30    1.60
   1   6  10   -0.20    2.20
   2   6  10  249.97    7.40
   2   6  10  240.78    8.70
   3   6  10  144.99    7.40
   3   6  10  137.89    6.10
   4   6  10    4.80    2.50
   4   6  10    8.90    3.30
   3  -7 -10   -0.70    2.80
   3  -7 -10    3.60    3.10
  -3   7  10    2.00    3.90
  -3   7  10    4.30    3.50
   2  -7 -10   51.39    5.00
  -2   7  10   31.10    4.90
  -2   7  10   49.10    5.40
  -2   7  10   48.00    4.70
   1  -7 -10  561.44   14.10
  -1   7  10  555.54   14.10
  -1   7  10  517.55   14.40
  -1   7  10  553.64   15.80
   0  -7 -10  480.75   12.40
   0   7  10  513.95   12.80
   0   7  10  492.25   12.90
   0   7  10  496.15   13.80
  -1  -7 -10   25.80    2.80
   1   7  10   26.10    2.70
   1   7  10   24.10    2.90
   1   7  10   21.40    3.10
   2   7  10   29.00    3.10
   2   7  10   32.90    4.00
   3   7  10  567.94   14.10
   3   7  10  550.74   15.70
   4   7  10  127.89    7.90
   4   7  10  125.19    6.60
   3  -8 -10  100.29    7.20
   3  -8 -10   95.69    7.40
  -3   8  10   98.39    8.60
  -3   8  10  105.19    7.80
   2  -8 -10  121.79    7.10
  -2   8  10  127.09    7.00
  -2   8  10  125.39    8.60
  -2   8  10  127.09    7.70
   1  -8 -10  201.78    8.00
  -1   8  10  207.48    9.50
  -1   8  10  223.48    8.40
  -1   8  10  202.88    8.50
   0  -8 -10  200.68    7.50
   0   8  10  213.88    8.70
   0   8  10  200.78    7.80
   0   8  10  233.18    8.30
  -1  -8 -10    8.00    2.20
   1   8  10   11.70    2.70
   1   8  10    7.70    2.60
   2   8  10  462.75   13.50
   2   8  10  473.25   11.60
   3   8  10 1548.55   31.00
   3   8  10 1498.65   32.90
   4   8  10  389.66   12.20
   2  -9 -10  112.19    7.20
  -2   9  10  105.69    8.30
  -2   9  10   97.89    6.80
  -2   9  10  111.39    7.60
   1  -9 -10  245.88    9.20
  -1   9  10  238.08    9.60
  -1   9  10  243.68   10.70
  -1   9  10  248.08    9.50
   0  -9 -10   10.90    2.90
   0   9  10   18.80    3.80
   0   9  10   13.60    3.20
   0   9  10   14.70    3.20
   1   9  10    8.10    3.00
   1   9  10    6.60    2.70
   2   9  10    0.80    3.00
   3   9  10    3.60    2.30
   3   9  10   -1.60    3.40
   4   9  10   -1.30    2.30
   2 -10 -10   28.00    4.90
  -2  10  10   27.30    5.90
  -2  10  10   23.80    4.70
  -2  10  10   29.90    5.40
   1 -10 -10   20.10    4.00
  -1  10  10   19.60    4.00
  -1  10  10   13.20    3.50
  -1  10  10   19.80    4.60
   0 -10 -10   -0.90    2.30
   0  10  10    0.00    2.50
   0  10  10    2.60    3.30
   0  10  10    4.00    2.90
   1  10  10   55.79    5.00
   1  10  10   56.99    5.20
   2  10  10   89.99    6.60
   3  10  10    9.00    4.10
  -2  11  10   -1.60    3.20
   1 -11 -10   -1.60    3.00
  -1  11  10   -1.20    3.60
  -1  11  10   -5.00    2.80
  -1  11  10   -2.80    2.70
   0 -11 -10    1.80    2.60
   0  11  10    2.60    3.00
   0  11  10    3.70    3.00
   0  11  10    4.70    3.70
   1  11  10   47.10    5.00
   1  11  10   50.99    5.20
   2  11  10   60.99    6.00
   3  11  10    0.90    3.90
   1 -12 -10   70.19    6.70
  -1  12  10   85.99    7.60
  -1  12  10   67.89    7.40
   0  12  10  151.28    8.30
   0  12  10  144.49    8.30
   1  12  10  119.79    7.60
   1  12  10  123.29    7.70
   2  12  10   22.00    4.70
   1  13  10  293.07   11.60
   1  11 -11  114.79    7.20
   0  11 -11  457.75   15.70
   0  11 -11  439.76   13.90
   2  10 -11   20.50    3.70
   1  10 -11  154.28    7.60
   1  10 -11  139.69    8.60
   0  10 -11  228.28   10.50
   0  10 -11  218.68    9.00
  -1  10 -11   56.39    6.70
  -2  10 -11    0.10    2.70
   2 -10  11   -1.60    3.30
   3   9 -11   50.99    5.20
  -3  -9  11   60.49    6.10
   2   9 -11  251.57    9.80
   1   9 -11  433.56   13.80
   1   9 -11  438.26   13.10
   0   9 -11  122.99    7.50
   0   9 -11  126.59    6.50
  -1   9 -11  246.88   12.30
  -1   9 -11  250.57   11.20
   1  -9  11  244.98   11.00
  -2   9 -11  139.89    9.20
  -2   9 -11  150.78    8.90
   2  -9  11  157.08   10.10
   3   8 -11  161.58    8.00
  -3  -8  11  168.48    8.70
   2   8 -11   89.19    5.70
  -2  -8  11   83.59    5.70
   1   8 -11  451.05   13.70
   1   8 -11  443.86   12.80
   0   8 -11   63.99    5.60
   0   8 -11   63.39    4.50
  -1   8 -11  198.08    7.50
  -1   8 -11  191.98    8.60
  -1   8 -11  197.98    9.50
   1  -8  11  206.38    9.40
  -2   8 -11  273.67   11.70
  -2   8 -11  300.67   12.50
   2  -8  11  294.57   12.80
   3   7 -11    0.80    2.30
  -3  -7  11    2.80    2.60
   2   7 -11  158.78    7.30
  -2  -7  11  161.88    7.50
   1   7 -11  432.26   12.20
   1   7 -11  409.76   12.60
  -1  -7  11  421.16   11.80
   0   7 -11    5.50    2.00
   0   7 -11    4.40    2.50
  -1   7 -11    2.10    2.60
  -1   7 -11    1.40    2.00
  -1   7 -11    0.00    1.60
   1  -7  11   -0.80    2.00
  -2   7 -11   12.60    3.60
  -2   7 -11    7.50    3.60
   2  -7  11   13.10    3.90
  -3   7 -11   71.49    7.00
  -3   7 -11   84.19    7.60
   3  -7  11   62.49    7.70
   4   6 -11  229.28    9.80
  -4  -6  11  237.28   11.20
   3   6 -11  228.08    9.10
  -3  -6  11  224.98    9.80
   2   6 -11  107.29    5.80
   2   6 -11  105.69    5.70
  -2  -6  11  105.89    6.10
   1   6 -11   -0.90    1.50
   1   6 -11   -0.10    1.90
  -1  -6  11    1.70    1.70
   0   6 -11  309.27   10.60
   0   6 -11  318.07    9.20
   0  -6  11  306.87    8.70
  -1   6 -11    1.00    1.90
  -1   6 -11    2.00    1.50
  -1   6 -11   -0.50    2.20
   1  -6  11    2.80    2.20
  -2   6 -11  176.38    8.80
  -2   6 -11  176.48    8.60
   2  -6  11  166.18    9.10
  -3   6 -11  320.57   13.30
  -3   6 -11  348.27   13.10
   3  -6  11  332.87   14.30
   4   5 -11  132.69    7.50
  -4  -5  11  124.99    8.20
   3   5 -11  133.09    6.90
  -3  -5  11  122.39    7.30
   2   5 -11   36.10    3.90
   2   5 -11   28.10    3.60
  -2  -5  11   30.90    3.80
   1   5 -11    6.30    2.30
   1   5 -11    4.00    1.80
  -1  -5  11    2.90    1.80
   0   5 -11  408.36   12.20
   0   5 -11  418.86   10.70
   0  -5  11  412.46   10.60
  -1   5 -11    0.40    1.90
  -1   5 -11    0.20    1.60
  -1   5 -11    0.60    1.30
   1  -5  11    0.00    1.40
   1  -5  11    0.80    2.00
  -2   5 -11  160.88    8.00
  -2   5 -11  164.58    8.10
   2  -5  11  174.58    8.80
  -3   5 -11    1.60    2.90
  -3   5 -11    1.70    2.80
   3  -5  11    4.30    3.30
   4   4 -11    5.80    2.90
  -4  -4  11    3.20    3.30
   3   4 -11  204.68    8.50
  -3  -4  11  212.18    9.00
   2   4 -11  331.67    9.80
   2   4 -11  321.27   10.10
  -2  -4  11  308.47   10.10
   1   4 -11  319.57    9.30
   1   4 -11  309.87    9.70
  -1  -4  11  313.27    9.30
   0   4 -11   58.79    4.40
   0   4 -11   59.19    3.50
   0  -4  11   58.49    3.60
   0  -4  11   60.59    3.60
  -1   4 -11  178.28    5.50
  -1   4 -11  168.18    7.30
  -1   4 -11  165.68    6.80
   1  -4  11  181.98    7.40
   1  -4  11  185.18    5.90
  -2   4 -11    9.40    3.00
  -2   4 -11   10.90    2.80
   2  -4  11    9.30    3.10
   2  -4  11    5.60    1.90
  -3   4 -11   14.80    3.80
  -3   4 -11   13.60    3.60
   3  -4  11   16.40    4.40
   4   3 -11   94.69    6.40
  -4  -3  11   72.39    6.80
   3   3 -11    5.90    2.50
  -3  -3  11    2.00    2.40
   2   3 -11  285.87    9.40
   2   3 -11  283.37    9.00
  -2  -3  11  313.57    9.90
   1   3 -11  543.45   13.50
   1   3 -11  563.84   13.90
  -1  -3  11  567.34   13.60
   0   3 -11  329.67    8.60
   0   3 -11  322.67    8.20
   0   3 -11  313.47    9.70
   0  -3  11  318.87    8.60
   0  -3  11  324.87    8.40
  -1   3 -11  186.58    5.40
  -1   3 -11  195.18    7.60
  -1   3 -11  191.08    7.00
   1  -3  11  176.58    7.20
   1  -3  11  184.18    5.90
  -2   3 -11  118.19    6.50
  -2   3 -11  132.79    6.80
   2  -3  11  121.29    5.10
   2  -3  11  117.39    7.00
  -3   3 -11  484.35   14.60
  -3   3 -11  525.95   16.30
   3  -3  11  495.05   12.60
   3  -3  11  489.15   16.40
  -4   3 -11  156.98    9.70
   4  -3  11  168.58   10.60
   4   2 -11  152.18    8.00
  -4  -2  11  163.08    8.90
   3   2 -11    4.20    2.40
  -3  -2  11    1.90    2.50
   2   2 -11  147.59    6.40
   2   2 -11  149.69    6.00
  -2  -2  11  140.69    6.40
   1   2 -11  659.33   15.90
   1   2 -11  697.23   15.80
  -1  -2  11  707.73   15.80
   0   2 -11   72.09    3.50
   0   2 -11   70.89    4.30
   0  -2  11   72.09    3.30
   0  -2  11   65.99    3.60
  -1   2 -11    3.60    1.70
  -1   2 -11    5.40    1.10
  -1   2 -11    4.50    1.70
   1  -2  11    3.10    1.80
   1  -2  11    4.20    1.60
  -2   2 -11  145.49    6.90
  -2   2 -11  140.09    6.70
   2  -2  11  152.58    5.60
   2  -2  11  148.39    7.40
  -3   2 -11   11.10    3.20
  -3   2 -11    5.20    2.60
   3  -2  11    5.70    2.30
   3  -2  11    9.10    3.30
   4  -2  11    5.00    3.90
   4  -2  11    2.70    2.60
   4   1 -11    1.40    2.50
  -4  -1  11    8.70    3.50
   3   1 -11    5.30    2.30
   3   1 -11    1.70    2.00
  -3  -1  11    2.70    2.60
   2   1 -11  130.99    6.00
   2   1 -11  133.49    5.80
  -2  -1  11  123.09    6.30
  -2  -1  11  130.19    6.10
   1   1 -11  495.85   12.40
   1   1 -11  507.05   12.60
  -1  -1  11  525.45   12.60
   0   1 -11  613.94   14.40
   0   1 -11  602.64   13.20
   0  -1  11  590.24   13.30
   0  -1  11  596.64   12.70
  -1   1 -11 1421.76   28.60
  -1   1 -11 1416.96   25.80
   1  -1  11 1369.96   27.00
   1  -1  11 1405.96   28.40
  -2   1 -11  400.86   11.50
   2  -1  11  410.66   12.40
   2  -1  11  397.16   10.20
  -3   1 -11   13.60    2.90
   3  -1  11   14.60    3.80
   3  -1  11   11.30    2.60
   4  -1  11   17.30    3.30
   4  -1  11   18.50    4.50
   4   0 -11   19.70    3.70
  -4   0  11   26.90    4.50
  -4   0  11   29.20    4.60
   3   0 -11  143.89    6.50
   3   0 -11  154.98    7.30
  -3   0  11  151.08    7.60
  -3   0  11  141.59    7.30
   2   0 -11  179.88    7.10
   2   0 -11  189.58    6.90
  -2   0  11  188.28    7.30
  -2   0  11  180.78    7.40
   1   0 -11  116.79    5.00
   1   0 -11  121.99    5.30
  -1   0  11  121.79    5.00
  -1   0  11  121.29    5.40
   0   0 -11  112.69    5.00
   0   0 -11  113.89    4.20
   0   0  11  102.19    3.80
   0   0  11  103.69    4.40
   0   0  11  107.49    4.40
  -1   0 -11  180.08    6.60
  -1   0 -11  182.48    4.80
   1   0  11  183.98    6.60
   1   0  11  184.98    5.80
  -2   0 -11   17.50    2.80
   2   0  11   17.80    3.30
   2   0  11   17.40    2.50
   3   0  11   -1.50    1.70
   3   0  11   -3.60    2.00
   4   0  11    2.80    2.30
   4   0  11    7.10    3.70
   4  -1 -11   72.09    6.10
  -4   1  11   59.39    6.10
  -4   1  11   82.29    6.70
   3  -1 -11  123.89    6.60
   3  -1 -11  129.79    6.30
  -3   1  11  119.39    6.70
  -3   1  11  101.59    6.60
   2  -1 -11   40.60    4.00
   2  -1 -11   38.80    4.00
  -2   1  11   30.90    3.40
  -2   1  11   36.80    4.20
   1  -1 -11  158.58    5.90
   1  -1 -11  163.98    6.10
  -1   1  11  157.68    6.20
  -1   1  11  164.38    4.40
  -1   1  11  167.48    5.90
   0  -1 -11    9.10    2.00
   0  -1 -11    9.80    1.80
   0   1  11    8.80    1.80
   0   1  11   11.10    1.90
   0   1  11    8.60    1.60
  -1  -1 -11  142.29    4.10
  -1  -1 -11  138.39    5.50
   1   1  11  139.49    5.60
   1   1  11  143.49    5.00
  -2  -1 -11  442.06   11.40
   2   1  11  423.76   10.60
   2   1  11  424.36   12.40
   3   1  11   73.89    5.70
   3   1  11   66.89    4.20
   4   1  11   64.09    5.00
   4   1  11   74.49    6.50
   4  -2 -11    1.50    2.70
  -4   2  11   -1.20    3.20
  -4   2  11    1.50    2.80
   3  -2 -11  111.69    6.10
   3  -2 -11  107.29    6.40
  -3   2  11  107.29    6.30
  -3   2  11  111.99    7.00
   2  -2 -11  837.12   19.00
   2  -2 -11  843.92   19.40
  -2   2  11  872.81   19.40
  -2   2  11  830.72   19.80
   1  -2 -11  715.63   16.10
   1  -2 -11  681.33   15.80
  -1   2  11  732.63   14.30
  -1   2  11  691.83   15.60
  -1   2  11  705.93   16.30
   0  -2 -11  449.95   10.60
   0  -2 -11  459.15   11.30
   0   2  11  439.06   10.50
   0   2  11  463.55   10.40
   0   2  11  444.46   10.80
  -1  -2 -11  812.42   17.80
  -1  -2 -11  822.72   16.10
   1   2  11  825.12   18.00
   1   2  11  863.91   17.30
  -2  -2 -11  443.66   11.30
   2   2  11  456.65   11.20
   2   2  11  460.55   12.80
   3   2  11   53.79    5.30
   3   2  11   54.89    4.10
   4   2  11   15.40    3.00
   4   2  11   30.30    4.90
   4  -3 -11  307.27   11.70
  -4   3  11  294.37   12.00
   3  -3 -11  367.96   11.30
   3  -3 -11  348.17   11.80
  -3   3  11  339.47   11.20
  -3   3  11  357.16   12.30
   2  -3 -11    1.30    1.90
   2  -3 -11    0.20    2.10
  -2   3  11    1.90    1.90
  -2   3  11   -3.10    2.00
   1  -3 -11  337.27    9.50
   1  -3 -11  344.07    9.50
  -1   3  11  336.57    9.90
  -1   3  11  343.67    8.40
  -1   3  11  322.17    9.00
   0  -3 -11   30.90    3.00
   0  -3 -11   29.80    2.60
   0   3  11   28.90    2.60
   0   3  11   27.10    2.80
   0   3  11   35.70    3.20
  -1  -3 -11  372.86    9.80
  -1  -3 -11  381.26    8.60
   1   3  11  394.76    9.50
   1   3  11  395.46    9.50
   1   3  11  372.16   10.10
  -2  -3 -11  336.27    9.10
   2   3  11  350.36    9.30
   2   3  11  338.57   10.40
   3   3  11  110.39    6.70
   3   3  11  116.49    5.60
   4   3  11    6.20    3.20
   4   3  11   -0.80    2.20
   4  -4 -11  180.18    9.20
   4  -4 -11  175.58    8.60
  -4   4  11  153.48    9.30
  -4   4  11  157.48    9.70
   3  -4 -11  226.48    9.10
   3  -4 -11  242.28    9.80
  -3   4  11  225.88    9.90
  -3   4  11  245.88   10.70
   2  -4 -11  282.47    9.50
   2  -4 -11  269.57    9.20
  -2   4  11  284.37   10.70
  -2   4  11  283.87   10.00
  -2   4  11  279.77    8.90
   1  -4 -11  100.19    5.00
   1  -4 -11   94.39    5.00
  -1   4  11   97.29    4.30
  -1   4  11   95.29    4.50
  -1   4  11   90.89    5.20
   0  -4 -11   -0.60    1.50
   0   4  11    2.40    1.70
   0   4  11    2.00    1.60
   0   4  11    1.50    1.40
  -1  -4 -11  612.84   14.00
   1   4  11  602.14   14.30
   1   4  11  621.64   13.50
   1   4  11  614.44   13.20
   2   4  11    0.00    1.70
   2   4  11   -1.60    1.90
   3   4  11   56.39    4.30
   3   4  11   59.19    5.10
   4   4  11   27.10    4.70
   4   4  11   16.20    3.10
   4  -5 -11   87.39    6.90
  -4   5  11   59.99   10.30
  -4   5  11   84.99    8.10
   3  -5 -11  119.79    7.10
   3  -5 -11  115.69    6.90
  -3   5  11  112.09    7.50
  -3   5  11  114.39    8.10
   2  -5 -11  244.48    8.90
   2  -5 -11  245.98    9.00
  -2   5  11  246.18   10.20
  -2   5  11  229.38    9.30
  -2   5  11  240.68    8.10
   1  -5 -11   -1.00    1.90
  -1   5  11   -0.60    1.40
  -1   5  11    2.40    2.30
  -1   5  11   -1.80    2.30
  -1   5  11    2.30    1.70
   0  -5 -11  361.56   10.10
   0   5  11  386.36    9.40
   0   5  11  377.76   10.00
   0   5  11  398.56   10.40
  -1  -5 -11 1222.08   24.60
   1   5  11 1237.48   24.10
   1   5  11 1219.58   24.00
   1   5  11 1228.58   25.30
   2   5  11 1229.38   24.40
   2   5  11 1182.08   25.90
   3   5  11  349.57   11.70
   3   5  11  341.07   10.10
   4   5  11    8.90    3.50
   4   5  11    1.00    2.30
   3  -6 -11   55.99    6.00
   3  -6 -11   54.29    5.80
  -3   6  11   67.49    7.40
  -3   6  11   50.89    6.00
   2  -6 -11   20.10    3.30
   2  -6 -11   14.50    3.10
  -2   6  11   13.60    2.70
  -2   6  11   19.80    4.00
  -2   6  11   21.40    3.80
   1  -6 -11  207.58    7.80
  -1   6  11  189.18    8.10
  -1   6  11  218.28    9.10
  -1   6  11  214.38    7.30
   0  -6 -11   65.29    4.40
   0   6  11   74.99    3.70
   0   6  11   65.89    4.70
   0   6  11   71.49    4.40
  -1  -6 -11   38.90    3.20
   1   6  11   36.30    3.90
   1   6  11   38.80    3.10
   1   6  11   37.60    3.40
   2   6  11  669.83   15.20
   2   6  11  678.73   16.90
   3   6  11  153.18    6.50
   3   6  11  146.89    7.60
   4   6  11  114.09    7.50
   4   6  11   94.69    6.00
   3  -7 -11  166.88    8.50
   3  -7 -11  165.38    8.80
  -3   7  11  173.98   10.00
  -3   7  11  163.28    9.20
   2  -7 -11   57.39    4.90
  -2   7  11   51.79    6.00
  -2   7  11   56.59    5.70
  -2   7  11   57.09    4.90
   1  -7 -11    3.00    2.40
  -1   7  11    5.90    2.30
  -1   7  11    7.30    3.30
  -1   7  11    6.30    2.70
   0  -7 -11  237.28    8.10
   0   7  11  250.57    9.40
   0   7  11  235.08    8.30
   0   7  11  240.78    8.20
  -1  -7 -11  294.37    8.60
   1   7  11  300.37    8.10
   1   7  11  303.07    9.00
   1   7  11  307.07    9.80
   2   7  11  660.63   16.80
   2   7  11  648.74   14.90
   3   7  11  157.98    8.20
   3   7  11  141.59    6.40
   4   7  11   47.30    4.90
   4   7  11   50.19    5.80
   3  -8 -11    1.70    3.20
   3  -8 -11    3.50    3.70
  -3   8  11    3.00    3.90
  -3   8  11   12.60    5.30
   2  -8 -11   -0.10    2.90
  -2   8  11    0.40    3.10
  -2   8  11   -0.70    3.60
  -2   8  11    0.30    2.20
   1  -8 -11   -0.80    2.30
  -1   8  11    6.40    3.00
  -1   8  11    7.80    3.60
  -1   8  11    2.70    2.40
   0  -8 -11   75.79    5.00
   0   8  11   80.59    6.00
   0   8  11   75.79    4.90
   0   8  11   80.39    5.50
  -1  -8 -11    6.80    2.60
   1   8  11    6.60    3.10
   1   8  11    8.40    2.40
   2   8  11    5.60    2.20
   2   8  11    4.20    3.40
   3   8  11   47.90    4.40
   3   8  11   53.79    6.00
   4   8  11  151.08    7.50
   2  -9 -11    1.20    3.30
  -2   9  11    0.60    3.50
  -2   9  11    5.30    4.20
  -2   9  11   -1.00    2.60
   1  -9 -11   -3.10    2.40
  -1   9  11   -2.50    2.70
  -1   9  11   -1.20    2.30
  -1   9  11   -3.00    3.10
   0  -9 -11   35.90    4.20
   0   9  11   34.90    4.40
   0   9  11   30.90    4.50
   0   9  11   31.80    4.30
   1   9  11  144.99    7.00
   1   9  11  154.68    7.00
   2   9  11   41.00    5.00
   3   9  11  103.69    5.70
   3   9  11  100.89    7.40
   2 -10 -11  314.47   11.70
  -2  10  11  289.57   12.00
  -2  10  11  318.87   12.60
  -2  10  11  306.97   13.70
   1 -10 -11  617.44   16.60
  -1  10  11  615.24   17.40
  -1  10  11  612.14   17.30
  -1  10  11  640.14   19.00
   0 -10 -11  230.38    8.90
   0  10  11  230.78    9.40
   0  10  11  222.18    9.90
   0  10  11  222.88    9.20
   1  10  11   38.60    4.40
   1  10  11   40.00    4.90
   2  10  11    5.30    3.30
   3  10  11    9.50    4.50
   1 -11 -11  109.89    7.00
  -1  11  11  100.99    7.50
  -1  11  11   92.89    7.10
  -1  11  11   86.89    8.30
   0 -11 -11   72.19    5.70
   0  11  11   57.59    6.60
   0  11  11   67.39    6.10
   0  11  11   73.59    6.40
   1  11  11   52.39    5.20
   1  11  11   39.00    5.10
   2  11  11  100.19    7.20
   1 -12 -11  144.19    8.40
  -1  12  11  158.98   12.70
   0  12  11  145.99    8.60
   0  12  11  161.78    8.90
   1  12  11   18.00    4.50
   1  12  11   19.70    4.30
   2  12  11   -0.20    5.00
   1  11 -12   -0.60    2.30
   0  11 -12   36.20    4.50
   0  11 -12   44.80    6.10
   2  10 -12  380.56   13.00
   1  10 -12    1.60    2.50
   1  10 -12    1.20    2.60
   0  10 -12   76.09    5.80
   0  10 -12   70.89    6.60
  -1  10 -12  388.56   14.90
  -3  -9  12   13.10    3.80
   2   9 -12   89.39    6.30
   1   9 -12  202.28    9.30
   1   9 -12  203.78    8.50
   0   9 -12  140.09    8.20
   0   9 -12  138.89    6.90
  -1   9 -12  233.08   10.80
  -2   9 -12    0.70    2.60
  -2   9 -12   -1.60    5.20
   2  -9  12   -1.30    3.10
   3   8 -12    1.00    2.30
  -3  -8  12   -1.50    2.30
   2   8 -12  226.38    9.10
  -2  -8  12  208.18    8.90
   1   8 -12   54.79    5.50
   1   8 -12   68.29    5.00
   0   8 -12   14.90    3.70
   0   8 -12   17.30    3.00
  -1   8 -12  165.98    8.70
  -2   8 -12  213.28   10.30
  -2   8 -12  226.08   11.20
   2  -8  12  242.78   11.60
   3   7 -12  226.48    9.70
  -3  -7  12  245.98   10.50
   2   7 -12    9.70    2.70
  -2  -7  12   15.80    3.10
   1   7 -12   12.80    2.80
   1   7 -12   11.70    3.00
  -1  -7  12   11.90    2.80
   0   7 -12    5.20    2.00
   0   7 -12    6.60    2.80
  -1   7 -12  423.76   16.50
  -1   7 -12  425.36   14.20
   1  -7  12  444.86   14.00
  -2   7 -12   82.09    6.50
  -2   7 -12   88.29    7.20
   2  -7  12   89.19    7.40
  -3   7 -12   34.10    5.40
  -3   7 -12   44.70    6.30
   3  -7  12   31.80    5.70
   3   6 -12  142.89    7.40
  -3  -6  12  136.79    7.90
   2   6 -12   93.89    5.70
   2   6 -12   86.69    5.50
  -2  -6  12   89.09    5.90
   1   6 -12   41.20    3.70
   1   6 -12   51.19    5.00
  -1  -6  12   36.80    3.80
   0   6 -12   18.30    2.60
   0   6 -12   24.30    3.70
   0  -6  12   13.00    2.30
  -1   6 -12  416.16   12.70
  -1   6 -12  427.06   13.80
   1  -6  12  424.66   13.20
  -2   6 -12   16.60    3.90
  -2   6 -12   12.20    3.40
   2  -6  12   20.40    4.40
  -3   6 -12    5.30    3.40
  -3   6 -12    6.00    3.10
   3  -6  12    8.40    3.90
   4   5 -12   10.20    3.20
  -4  -5  12    7.10    4.20
   3   5 -12   59.69    5.70
  -3  -5  12   61.89    5.40
   2   5 -12   25.10    3.50
   2   5 -12   24.00    3.50
  -2  -5  12   19.40    3.30
   1   5 -12   48.30    4.30
   1   5 -12   55.89    4.10
  -1  -5  12   50.49    4.10
   0   5 -12  104.09    6.10
   0   5 -12  107.69    4.90
   0  -5  12  111.09    5.10
  -1   5 -12  145.69    7.50
  -1   5 -12  151.68    6.80
   1  -5  12  149.79    7.20
   1  -5  12  147.49    5.60
  -2   5 -12  139.19    7.60
  -2   5 -12  143.99    7.90
   2  -5  12  154.08    8.50
  -3   5 -12  178.18    9.30
  -3   5 -12  176.08    9.70
   3  -5  12  182.08   10.50
   4   4 -12  111.09    7.20
  -4  -4  12  115.69    8.10
   3   4 -12  505.75   14.70
  -3  -4  12  495.45   15.20
   2   4 -12 1311.77   28.10
   2   4 -12 1323.07   27.70
  -2  -4  12 1280.37   28.20
   1   4 -12 1012.70   22.50
   1   4 -12  979.60   21.70
  -1  -4  12 1008.10   21.90
   0   4 -12   15.90    3.10
   0   4 -12   15.60    2.20
   0  -4  12   13.60    2.30
  -1   4 -12  210.78    7.80
  -1   4 -12  215.88    8.70
   1  -4  12  206.78    8.20
   1  -4  12  211.08    6.80
  -2   4 -12   26.10    4.00
  -2   4 -12   16.80    3.30
   2  -4  12   17.70    3.80
   2  -4  12   22.30    2.80
  -3   4 -12  136.79    8.20
  -3   4 -12  126.19    7.70
   3  -4  12  113.59    8.40
   4   3 -12   29.20    4.30
  -4  -3  12   17.80    4.00
   3   3 -12   18.20    3.40
  -3  -3  12   23.40    4.10
   2   3 -12   93.29    5.50
   2   3 -12   91.99    5.30
  -2  -3  12   91.69    5.40
   1   3 -12  129.29    5.80
   1   3 -12  124.59    5.60
  -1  -3  12  125.49    5.50
   0   3 -12  234.48    8.40
   0   3 -12  254.07    7.40
   0  -3  12  245.58    7.50
   0  -3  12  232.78    7.10
  -1   3 -12   -2.60    1.80
  -1   3 -12    2.30    1.70
   1  -3  12   -0.30    1.50
   1  -3  12    0.70    1.80
  -2   3 -12   19.20    3.40
  -2   3 -12   13.10    3.00
   2  -3  12   18.60    2.70
   2  -3  12   13.60    3.40
  -3   3 -12  233.28   10.40
  -3   3 -12  218.18    9.50
   3  -3  12  226.68   10.90
   3  -3  12  201.98    7.60
   4   2 -12   17.20    3.50
  -4  -2  12   22.30    4.60
   3   2 -12   20.80    3.60
  -3  -2  12   24.00    4.20
   2   2 -12   12.50    2.70
   2   2 -12    8.20    2.40
  -2  -2  12   16.10    3.10
   1   2 -12   43.80    3.80
   1   2 -12   44.00    3.50
  -1  -2  12   42.10    3.60
   0   2 -12    7.30    2.20
   0   2 -12    6.40    1.60
   0  -2  12    5.70    1.50
   0  -2  12    7.30    1.90
  -1   2 -12   61.69    4.50
   1  -2  12   65.99    4.50
   1  -2  12   65.89    3.80
  -2   2 -12   58.19    4.70
   2  -2  12   48.90    5.00
   2  -2  12   52.99    3.90
  -3   2 -12  312.37   11.10
   3  -2  12  321.97    9.70
   3  -2  12  334.87   12.80
   4  -2  12  358.76   11.60
   4  -2  12  436.16   16.20
   4   1 -12   71.29    6.10
  -4  -1  12   64.89    6.50
   3   1 -12  247.98    8.60
   3   1 -12  223.48    9.10
  -3  -1  12  228.38    9.50
   2   1 -12  787.72   18.20
   2   1 -12  779.92   18.60
  -2  -1  12  792.92   18.80
  -2  -1  12  778.32   19.10
   1   1 -12  218.58    7.30
   1   1 -12  209.48    7.40
  -1  -1  12  213.88    7.20
   0   1 -12    3.40    1.70
   0   1 -12    0.90    1.20
   0  -1  12    2.20    1.20
   0  -1  12    0.00    1.20
  -1   1 -12  536.75   13.80
   1  -1  12  538.15   12.50
   1  -1  12  537.25   13.50
  -2   1 -12  328.17   10.30
   2  -1  12  309.77    8.90
   2  -1  12  323.77   11.00
  -3   1 -12   20.70    3.90
   3  -1  12   22.30    3.30
   3  -1  12   28.00    4.70
   4  -1  12   31.10    5.80
   4   0 -12    1.60    2.70
  -4   0  12   -1.60    2.80
  -4   0  12    0.70    2.90
   3   0 -12   22.50    3.40
   3   0 -12   20.20    3.70
  -3   0  12   26.40    4.00
  -3   0  12   28.00    4.40
   2   0 -12    1.70    2.00
   2   0 -12    3.60    2.00
  -2   0  12    1.60    2.30
  -2   0  12    3.40    2.00
   1   0 -12   -1.70    1.40
   1   0 -12   -3.00    1.50
  -1   0  12   -0.90    1.50
  -1   0  12    0.60    1.70
   0   0 -12   59.79    3.90
   0   0 -12   61.89    3.40
   0   0  12   58.89    3.50
   0   0  12   64.39    3.10
  -1   0 -12    1.40    1.80
   1   0  12    3.00    1.50
   1   0  12    1.20    1.60
  -2   0 -12   13.70    2.70
   2   0  12   14.90    2.60
   2   0  12   17.30    3.40
   3   0  12    6.90    3.10
   3   0  12   -0.40    2.10
   4   0  12   90.39    7.70
   4   0  12   64.99    5.20
   4  -1 -12  164.48    8.70
  -4   1  12  157.88    9.00
  -4   1  12  179.18    9.30
   3  -1 -12   49.30    4.60
   3  -1 -12   59.39    5.70
  -3   1  12   48.90    5.10
  -3   1  12   51.79    5.60
   2  -1 -12   94.49    5.40
   2  -1 -12  103.09    5.50
  -2   1  12  100.59    5.60
  -2   1  12   91.59    5.70
   1  -1 -12    4.00    2.00
   1  -1 -12   -1.30    1.40
  -1   1  12    4.40    2.10
  -1   1  12    6.20    2.00
   0  -1 -12  240.68    7.70
   0  -1 -12  246.78    7.00
   0   1  12  244.08    6.50
   0   1  12  241.98    7.20
   0   1  12  213.08    6.80
  -1  -1 -12   38.00    3.40
   1   1  12   40.10    3.40
   1   1  12   35.60    2.80
  -2  -1 -12    9.30    2.30
   2   1  12   10.60    2.90
   2   1  12    5.40    2.10
   3   1  12   20.20    4.20
   3   1  12    7.40    2.50
   4   1  12   65.89    6.70
   4   1  12   54.19    5.00
   4  -2 -12  119.69    7.70
  -4   2  12  117.09    7.60
  -4   2  12  120.69    8.10
   3  -2 -12  106.59    6.20
   3  -2 -12   96.09    6.40
  -3   2  12   96.29    6.20
  -3   2  12  106.79    7.00
   2  -2 -12   21.60    3.20
   2  -2 -12   27.60    3.50
  -2   2  12   22.70    3.10
  -2   2  12   36.10    4.30
   1  -2 -12  663.93   15.60
   1  -2 -12  665.23   15.70
  -1   2  12  637.34   15.90
  -1   2  12  694.83   13.80
  -1   2  12  670.23   15.40
   0  -2 -12 1505.35   28.40
   0  -2 -12 1439.16   29.20
   0   2  12 1508.25   28.00
   0   2  12 1416.26   28.30
   0   2  12 1472.25   28.70
  -1  -2 -12   62.49    4.10
  -1  -2 -12   61.29    3.50
   1   2  12   68.79    3.80
   1   2  12   64.89    4.10
  -2  -2 -12   67.49    4.20
   2   2  12   68.19    3.90
   2   2  12   62.89    4.90
   3   2  12    2.60    2.80
   3   2  12   -2.30    1.80
   4   2  12   11.10    3.00
   4   2  12   22.60    4.70
   4  -3 -12   36.20    5.10
  -4   3  12   49.70    6.00
   3  -3 -12  217.28    9.30
   3  -3 -12  232.08    9.00
  -3   3  12  209.48    8.70
  -3   3  12  224.18    9.90
   2  -3 -12   89.79    5.50
   2  -3 -12   85.99    5.30
  -2   3  12   83.79    5.20
  -2   3  12   87.99    5.90
   1  -3 -12 1021.10   21.80
   1  -3 -12 1011.10   21.60
  -1   3  12  980.20   21.10
  -1   3  12 1002.90   22.10
  -1   3  12 1034.30   20.10
   0  -3 -12 3248.07   58.69
   0  -3 -12 3175.28   59.39
   0   3  12 3283.67   59.19
   0   3  12 3214.58   58.59
   0   3  12 3285.77   58.49
  -1  -3 -12 1951.50   36.10
  -1  -3 -12 1963.70   37.80
   1   3  12 2029.00   37.10
   1   3  12 1956.20   37.90
  -2  -3 -12  460.85   11.90
   2   3  12  485.35   11.80
   2   3  12  476.05   13.20
   3   3  12   96.39    6.50
   3   3  12   90.99    5.20
   4   3  12  141.29    7.00
   4   3  12  155.78    8.70
   4  -4 -12   98.69    7.10
  -4   4  12   88.19   10.80
   3  -4 -12    8.40    3.30
   3  -4 -12    1.50    2.80
  -3   4  12    8.30    3.80
   2  -4 -12   60.19    4.90
   2  -4 -12   72.39    5.20
  -2   4  12   51.29    4.40
  -2   4  12   61.09    5.50
   1  -4 -12    0.10    1.80
   1  -4 -12    1.70    2.00
  -1   4  12    3.40    1.80
  -1   4  12   -2.40    2.00
  -1   4  12    0.40    1.40
   0  -4 -12   47.10    3.30
   0  -4 -12   49.60    3.90
   0   4  12   55.39    3.40
   0   4  12   46.80    3.60
   0   4  12   52.59    3.90
  -1  -4 -12   44.50    3.70
  -1  -4 -12   42.80    2.80
   1   4  12   48.90    3.40
   1   4  12   43.10    4.00
   2   4  12   96.19    5.70
   2   4  12   88.49    4.70
   3   4  12   96.29    6.10
   3   4  12   89.39    5.20
   4   4  12  196.08    9.70
   3  -5 -12    1.30    2.90
   3  -5 -12    3.10    3.10
  -3   5  12   -2.80    3.00
  -3   5  12    1.30    3.60
   2  -5 -12   13.40    3.10
   2  -5 -12    7.60    2.90
  -2   5  12   10.20    3.30
  -2   5  12    6.70    3.50
   1  -5 -12    3.10    2.10
   1  -5 -12    4.90    2.10
  -1   5  12    5.20    2.80
  -1   5  12    8.40    2.10
  -1   5  12    2.10    1.70
   0  -5 -12   26.00    3.30
   0   5  12   19.80    2.70
   0   5  12   22.20    3.00
   0   5  12   20.80    2.50
  -1  -5 -12  232.38    7.60
   1   5  12  247.98    7.20
   1   5  12  244.48    8.30
   2   5  12    4.30    2.40
   2   5  12    4.40    2.00
   3   5  12  114.99    5.80
   3   5  12  121.29    7.00
   4   5  12    2.70    2.60
   4   5  12    6.20    3.10
   3  -6 -12   28.80    4.70
   3  -6 -12   38.80    5.10
  -3   6  12   39.40    6.20
  -3   6  12   27.30    4.80
   2  -6 -12    3.50    2.70
   2  -6 -12   -0.90    2.20
  -2   6  12   -1.20    3.10
  -2   6  12    2.90    2.90
   1  -6 -12    4.30    2.50
  -1   6  12   12.30    3.60
  -1   6  12   10.50    3.10
  -1   6  12    6.80    2.20
   0  -6 -12   78.19    4.80
   0   6  12   76.39    5.00
   0   6  12   78.19    4.70
   0   6  12   77.79    4.10
  -1  -6 -12   42.90    3.60
   1   6  12   41.10    3.30
   1   6  12   44.30    4.30
   2   6  12  410.06   10.80
   2   6  12  407.16   12.30
   3   6  12  133.39    6.10
   3   6  12  148.89    7.70
   4   6  12   53.89    6.10
   4   6  12   52.09    5.10
   3  -7 -12  232.08   10.40
   3  -7 -12  231.68   10.10
  -3   7  12  251.17   12.00
  -3   7  12  221.58   10.80
   2  -7 -12  129.59    7.40
   2  -7 -12  151.78    7.60
  -2   7  12  140.79    7.00
  -2   7  12  154.68    8.30
  -2   7  12  153.08    9.00
   1  -7 -12   70.49    5.40
  -1   7  12   79.99    6.50
  -1   7  12   67.09    5.70
  -1   7  12   74.09    4.90
   0  -7 -12  312.47    9.90
   0   7  12  331.27   10.30
   0   7  12  333.87   10.00
  -1  -7 -12  210.38    7.40
   1   7  12  220.28    6.90
   1   7  12  226.28    8.40
   2   7  12   42.40    3.70
   2   7  12   40.20    4.80
   3   7  12  110.79    5.90
   3   7  12   94.89    7.00
   4   7  12   -4.30    2.10
   4   7  12    4.40    4.10
   2  -8 -12  214.28    9.30
  -2   8  12  192.48    9.70
  -2   8  12  218.28   10.70
  -2   8  12  205.98    9.00
   1  -8 -12    1.70    2.70
  -1   8  12    3.00    3.40
  -1   8  12    3.30    3.10
  -1   8  12   -0.70    2.10
   0  -8 -12   64.29    5.20
   0   8  12   65.89    5.10
   0   8  12   60.19    5.80
   0   8  12   66.99    5.20
   1   8  12    5.10    3.00
   2   8  12   -0.10    3.20
   2   8  12    2.40    2.20
   3   8  12  180.38    7.50
   3   8  12  196.58    9.40
   2  -9 -12  284.77   11.00
  -2   9  12  298.07   12.10
  -2   9  12  254.47   12.20
  -2   9  12  281.67   11.20
   1  -9 -12   21.00    3.90
  -1   9  12   24.90    3.90
  -1   9  12   36.70    4.80
  -1   9  12   18.20    4.60
   0  -9 -12  246.88    9.10
   0   9  12  236.48   10.10
   0   9  12  235.48    9.20
   0   9  12  244.18    9.20
   1   9  12  490.75   14.10
   2   9  12  593.14   16.50
   3   9  12   27.10    3.90
   3   9  12   25.90    5.10
  -2  10  12   -3.80    2.60
   1 -10 -12    2.40    3.20
  -1  10  12   -0.50    3.10
  -1  10  12    1.20    3.00
  -1  10  12    4.40    4.10
   0 -10 -12    1.50    2.80
   0  10  12    3.50    3.00
   0  10  12   -1.10    3.30
   0  10  12   -0.80    2.80
   1  10  12    5.90    3.30
   2  10  12   68.19    6.30
   3  10  12   45.00    6.10
   1 -11 -12   45.70    5.60
  -1  11  12   32.90    5.80
  -1  11  12   56.59    6.40
  -1  11  12   38.60    5.40
   0 -11 -12  165.98    8.00
   0  11  12  170.28   13.60
   0  11  12  149.09    8.30
   0  11  12  171.28    8.60
   1  11  12  188.38    9.10
   2  11  12   22.60    4.70
   0  12  12   97.99    7.60
   0  12  12  113.89    8.10
   1  12  12    0.40    3.60
   0  11 -13  220.58    9.70
   1  10 -13   86.89    6.20
   1  10 -13   92.39    7.00
   0  10 -13   19.00    3.70
   0  10 -13   22.90    4.50
  -3  -9  13   18.90    4.10
   2   9 -13    2.40    2.40
   1   9 -13   22.00    3.50
   1   9 -13   25.00    4.30
   0   9 -13   34.80    5.10
   0   9 -13   30.40    3.90
  -1   9 -13   -1.30    2.90
   2  -9  13   25.50    5.30
   3   8 -13   94.79    6.70
  -3  -8  13  110.79    7.60
   2   8 -13  109.79    6.50
  -2  -8  13   91.99    6.40
   1   8 -13  193.98    9.00
   1   8 -13  197.38    8.30
   0   8 -13  450.15   12.80
   0   8 -13  453.55   15.00
  -1   8 -13   89.89    7.10
  -2   8 -13   53.99    6.20
  -2   8 -13   48.50    6.10
   2  -8  13   43.70    6.00
   3   7 -13    3.30    2.60
  -3  -7  13    3.50    2.90
   2   7 -13    7.50    2.70
  -2  -7  13    1.90    2.30
   1   7 -13  213.18    9.20
   1   7 -13  217.08    8.40
  -1  -7  13  233.08    8.60
   0   7 -13   53.89    4.30
   0   7 -13   60.19    5.60
  -1   7 -13    1.10    2.60
  -2   7 -13   44.00    6.10
  -2   7 -13   41.20    5.30
   2  -7  13   35.40    5.50
   3   6 -13  298.67   11.00
  -3  -6  13  289.47   11.60
   2   6 -13   94.09    5.80
   2   6 -13  107.89    6.10
  -2  -6  13   94.19    6.20
   1   6 -13   21.30    3.20
   1   6 -13   29.80    4.00
  -1  -6  13   25.90    3.50
   0   6 -13   82.29    4.70
   0   6 -13   80.69    6.00
   0  -6  13   75.69    4.50
  -1   6 -13    5.80    2.90
   1  -6  13    9.90    3.00
  -2   6 -13  115.99    7.30
  -2   6 -13  115.09    7.60
   2  -6  13  117.49    7.90
  -3   6 -13   70.49    7.00
  -3   6 -13   75.49    7.20
   3  -6  13   82.09    8.00
   3   5 -13   20.80    3.80
  -3  -5  13   24.50    4.40
   2   5 -13   51.69    4.60
   2   5 -13   51.69    4.50
  -2  -5  13   57.49    5.10
   1   5 -13   85.89    5.60
   1   5 -13   81.69    4.90
  -1  -5  13   84.09    4.90
   0   5 -13  122.19    5.40
   0   5 -13  113.89    6.50
   0  -5  13  117.39    5.40
  -1   5 -13  908.11   21.40
  -1   5 -13  923.51   22.70
   1  -5  13  895.01   19.60
   1  -5  13  934.31   22.00
  -2   5 -13  755.22   20.60
  -2   5 -13  796.32   21.10
   2  -5  13  797.72   21.50
  -3   5 -13   58.49    6.50
  -3   5 -13   56.39    6.50
   3  -5  13   75.79    8.20
   4   4 -13   15.60    3.90
   3   4 -13   15.70    3.50
  -3  -4  13   10.30    3.30
   2   4 -13   15.50    3.00
   2   4 -13   11.30    2.60
  -2  -4  13   18.50    3.50
   1   4 -13   98.99    5.70
   1   4 -13  102.39    5.30
  -1  -4  13   92.79    5.20
   0   4 -13    3.20    2.00
   0   4 -13   -0.20    1.40
   0  -4  13    4.30    1.90
  -1   4 -13    5.10    2.70
  -1   4 -13    4.50    1.90
   1  -4  13    5.20    2.40
   1  -4  13    3.30    1.80
  -2   4 -13  240.18   10.10
  -2   4 -13  249.38   10.00
   2  -4  13  244.28   10.40
   2  -4  13  238.18    7.80
  -3   4 -13  331.47   13.00
  -3   4 -13  311.77   12.20
   3  -4  13  318.67   13.50
   4   3 -13  374.56   13.20
  -4  -3  13  362.06   13.90
   3   3 -13  797.82   20.30
  -3  -3  13  802.52   20.90
   2   3 -13  264.37    9.00
   2   3 -13  232.38    8.80
  -2  -3  13  230.08    9.00
   1   3 -13    9.90    2.60
   1   3 -13    5.90    1.90
  -1  -3  13    5.90    2.30
   0   3 -13    4.00    2.10
   0   3 -13    1.90    1.50
   0  -3  13    5.40    1.90
  -1   3 -13    3.20    2.30
   1  -3  13    1.10    1.60
   1  -3  13    2.00    2.00
  -2   3 -13   21.50    3.60
  -2   3 -13   24.60    4.00
   2  -3  13   24.40    3.00
   2  -3  13   27.20    4.30
  -3   3 -13   -1.20    2.50
  -3   3 -13   -1.60    2.40
   3  -3  13   -2.80    2.10
   3  -3  13    1.40    3.20
   4   2 -13    5.30    3.10
  -4  -2  13    7.10    3.60
   3   2 -13   53.89    6.90
   3   2 -13   40.80    4.60
  -3  -2  13   56.59    5.60
   2   2 -13  314.57   10.50
   2   2 -13  332.67   10.40
  -2  -2  13  338.77   10.90
   1   2 -13   91.69    4.90
   1   2 -13   88.99    5.30
  -1  -2  13   95.19    5.10
   0   2 -13  211.78    7.90
   0   2 -13  221.28    6.90
   0  -2  13  218.58    7.20
  -1   2 -13  294.77   10.00
   1  -2  13  300.17    9.50
   1  -2  13  314.57    8.70
  -2   2 -13  389.66   12.30
   2  -2  13  394.76   12.80
   2  -2  13  392.86   10.60
  -3   2 -13   29.70    4.40
   3  -2  13   20.90    3.30
   3  -2  13   24.00    4.70
   4  -2  13   23.30    4.10
   4   1 -13   21.20    4.10
  -4  -1  13   25.10    4.70
   3   1 -13   39.10    4.70
   3   1 -13   28.90    3.90
  -3  -1  13   28.30    4.40
   2   1 -13  205.68    8.10
   2   1 -13  198.78    7.70
  -2  -1  13  199.48    8.10
   1   1 -13   30.70    3.60
   1   1 -13   33.50    3.60
  -1  -1  13   31.90    3.60
   0   1 -13    0.00    1.30
   0   1 -13   -0.40    1.80
   0  -1  13    0.70    1.40
   0  -1  13    0.20    1.20
  -1   1 -13   -0.50    1.60
   1  -1  13   -0.90    1.60
   1  -1  13    2.70    2.00
  -2   1 -13   10.60    2.80
   2  -1  13   12.60    3.30
   2  -1  13    5.70    2.20
   3  -1  13    0.40    2.40
   3  -1  13    5.00    3.20
   4  -1  13   46.20    6.40
   4  -1  13   37.50    4.50
   4   0 -13   57.39    6.00
  -4   0  13   65.19    6.50
   3   0 -13  319.47   10.50
   3   0 -13  306.77   11.10
  -3   0  13  317.87   11.50
  -3   0  13  310.47   11.60
   2   0 -13 1244.88   26.70
   2   0 -13 1218.88   26.30
  -2   0  13 1233.28   26.70
  -2   0  13 1206.58   26.90
   1   0 -13 1355.56   28.10
   1   0 -13 1368.26   28.40
  -1   0  13 1400.66   28.20
  -1   0  13 1376.46   28.50
   0   0 -13  402.06   11.20
   0   0 -13  394.86   10.00
   0   0  13  393.16    9.30
   0   0  13  371.76   10.00
  -1   0 -13    7.00    2.30
   1   0  13    3.60    2.00
   1   0  13    6.90    2.10
  -2   0 -13  386.96   11.50
   2   0  13  387.16   10.40
   2   0  13  359.06   11.80
   3   0  13  205.88    9.80
   3   0  13  217.88    8.00
   4   0  13   34.50    5.80
   4   0  13   19.30    3.50
   4  -1 -13  230.08   10.30
  -4   1  13  238.98   10.90
  -4   1  13  218.68   10.40
   3  -1 -13   13.40    3.20
   3  -1 -13   18.20    3.60
  -3   1  13   10.00    3.40
  -3   1  13   13.40    3.30
   2  -1 -13   29.20    3.60
   2  -1 -13   28.20    3.80
  -2   1  13   33.20    4.00
  -2   1  13   29.60    3.90
   1  -1 -13  516.55   13.50
   1  -1 -13  526.65   13.20
  -1   1  13  518.85   13.60
  -1   1  13  532.75   13.30
   0  -1 -13   43.60    3.10
   0  -1 -13   41.70    3.60
   0   1  13   38.40    3.30
   0   1  13   40.50    2.90
   0   1  13   41.80    3.40
  -1  -1 -13   20.20    3.00
   1   1  13   22.30    2.80
   1   1  13   25.40    3.10
  -2  -1 -13  276.57    9.10
   2   1  13  286.27    9.90
   2   1  13  274.57    8.50
   3   1  13   57.79    5.50
   3   1  13   58.39    4.70
   4   1  13   47.50    6.20
   4   1  13   24.10    3.90
   4  -2 -13    3.90    3.00
  -4   2  13    4.00    3.30
  -4   2  13   -0.50    3.30
   3  -2 -13   52.59    5.50
   3  -2 -13   47.50    5.00
  -3   2  13   48.80    5.30
  -3   2  13   48.10    5.60
   2  -2 -13   26.30    3.60
   2  -2 -13   29.50    3.70
  -2   2  13   32.30    3.90
  -2   2  13   38.90    4.70
   1  -2 -13 1518.55   30.90
   1  -2 -13 1557.64   31.20
  -1   2  13 1476.95   30.50
  -1   2  13 1593.04   31.50
   0  -2 -13 1058.59   21.60
   0  -2 -13 1037.80   22.50
   0   2  13 1070.09   22.00
   0   2  13 1102.99   21.20
   0   2  13 1007.40   21.60
  -1  -2 -13  256.47    8.40
   1   2  13  267.67    7.80
   1   2  13  263.07    8.30
  -2  -2 -13   26.10    3.20
   2   2  13   22.20    3.00
   2   2  13   30.70    4.00
   3   2  13  469.55   12.80
   3   2  13  500.65   15.20
   4   2  13  512.95   15.00
   4   2  13  614.74   18.30
   3  -3 -13   75.29    6.00
   3  -3 -13   82.49    6.10
  -3   3  13   65.09    5.70
  -3   3  13   72.89    6.60
   2  -3 -13    4.00    2.30
   2  -3 -13   12.40    3.10
  -2   3  13    7.40    2.70
  -2   3  13    5.40    3.00
   1  -3 -13   -3.50    1.40
   1  -3 -13    1.20    2.10
  -1   3  13    0.20    1.70
  -1   3  13   -0.90    1.50
  -1   3  13    3.80    2.40
   0  -3 -13  680.83   15.40
   0  -3 -13  698.33   16.40
   0   3  13  691.23   15.20
   0   3  13  706.73   15.90
   0   3  13  686.43   15.50
  -1  -3 -13 1189.98   25.20
   1   3  13 1221.58   25.20
   1   3  13 1242.38   24.50
  -2  -3 -13  169.08    6.60
   2   3  13  181.98    7.70
   2   3  13  190.18    6.80
   3   3  13  105.29    5.50
   3   3  13  106.89    6.90
   4   3  13   14.10    3.30
   4   3  13   21.30    4.50
   3  -4 -13   43.50    5.20
   3  -4 -13   50.59    5.50
  -3   4  13   63.89    6.50
   2  -4 -13   87.89    5.80
   2  -4 -13   86.69    5.60
  -2   4  13   90.99    6.30
  -2   4  13   88.69    5.50
   1  -4 -13  102.39    5.50
   1  -4 -13  117.79    5.70
  -1   4  13  109.19    5.20
  -1   4  13   97.89    4.50
  -1   4  13  106.39    6.10
   0  -4 -13   43.40    3.50
   0  -4 -13   48.90    4.20
   0   4  13   49.20    3.90
   0   4  13   50.59    3.80
   0   4  13   51.79    3.60
  -1  -4 -13  156.88    6.30
   1   4  13  147.39    5.50
   1   4  13  146.39    6.40
   2   4  13    0.90    2.20
   2   4  13   -0.20    2.00
   3   4  13   11.70    3.30
   3   4  13    5.70    2.60
   4   4  13   29.70    4.80
   4   4  13   19.70    3.30
   3  -5 -13   85.79    6.90
   3  -5 -13   83.59    6.50
  -3   5  13   62.79    6.30
   2  -5 -13   24.00    3.80
   2  -5 -13   21.90    3.70
  -2   5  13   19.70    3.80
   1  -5 -13   34.20    3.90
   1  -5 -13   30.60    3.90
  -1   5  13   35.60    3.30
  -1   5  13   35.70    3.50
  -1   5  13   36.30    4.30
   0  -5 -13   84.49    5.10
   0  -5 -13   81.69    4.60
   0   5  13   82.99    4.60
   0   5  13   80.39    4.90
   0   5  13   86.69    4.40
  -1  -5 -13  360.76   10.40
   1   5  13  383.06   11.00
   1   5  13  372.96    9.80
   2   5  13   45.50    4.00
   2   5  13   51.99    4.90
   3   5  13   27.50    3.60
   3   5  13   43.30    4.90
   4   5  13  126.99    7.90
   4   5  13   98.79    6.50
   3  -6 -13   -0.90    3.20
   3  -6 -13   -0.60    2.90
  -3   6  13   -1.00    4.00
  -3   6  13   -2.50    3.30
   2  -6 -13  290.97   10.70
   2  -6 -13  286.07   10.50
  -2   6  13  306.47   11.40
  -2   6  13  286.17   12.00
   1  -6 -13  560.24   15.10
   1  -6 -13  570.64   15.10
  -1   6  13  567.04   14.20
  -1   6  13  609.84   15.90
   0  -6 -13  639.14   16.20
   0   6  13  716.93   16.20
   0   6  13  682.63   15.20
   0   6  13  663.63   16.40
  -1  -6 -13  136.19    6.00
   1   6  13  148.49    5.70
   1   6  13  145.19    6.80
   2   6  13    1.10    2.10
   2   6  13    1.30    2.80
   3   6  13   46.50    5.20
   3   6  13   34.70    3.90
   4   6  13  116.69    9.70
   4   6  13   95.49    8.80
   3  -7 -13   82.79    7.70
   3  -7 -13   81.19    9.70
  -3   7  13   88.29    9.40
  -3   7  13  104.99   10.10
   2  -7 -13   31.30    4.70
   2  -7 -13   22.30    3.90
  -2   7  13   28.30    5.40
  -2   7  13   25.70    4.40
   1  -7 -13   71.09    5.50
  -1   7  13   59.89    5.50
  -1   7  13   62.19    4.80
  -1   7  13   53.39    5.80
   0  -7 -13  261.07    9.00
   0   7  13  251.57    9.20
   0   7  13  276.17    9.10
  -1  -7 -13  299.87    9.30
   1   7  13  320.77   10.40
   1   7  13  310.27    8.80
   2   7  13    9.50    2.70
   2   7  13   16.70    4.00
   3   7  13  111.29    6.20
   3   7  13  123.19    7.80
   2  -8 -13   54.09    5.70
   2  -8 -13   45.70    5.50
  -2   8  13   46.00    5.90
  -2   8  13   39.90    5.70
   1  -8 -13  265.97   10.00
  -1   8  13  270.17    9.70
  -1   8  13  271.47   11.50
  -1   8  13  266.67   10.50
   0  -8 -13  274.37    9.50
   0   8  13  262.07    9.40
   0   8  13  263.67    9.70
   1   8  13  283.47    9.90
   2   8  13   37.40    3.80
   2   8  13   33.20    4.90
   3   8  13   26.90    3.90
   3   8  13   21.40    4.60
   2  -9 -13   23.00    4.70
  -2   9  13   20.70    5.20
  -2   9  13   15.90    4.50
  -2   9  13   15.80    4.10
   1  -9 -13   34.80    4.90
  -1   9  13   40.90    5.40
  -1   9  13   36.10    4.70
  -1   9  13   26.90    5.20
   0  -9 -13   26.80    4.10
   0   9  13   36.20    4.60
   0   9  13   29.30    4.20
   1   9  13   43.20    5.10
   2   9  13    1.50    3.20
   3   9  13   11.80    3.40
   3   9  13   12.10    4.60
  -2  10  13  136.19    8.40
   1 -10 -13  115.59    7.40
  -1  10  13  117.89    8.70
  -1  10  13  110.99    7.30
  -1  10  13  110.59    8.20
   0 -10 -13   12.20    3.50
   0  10  13   13.80    4.30
   0  10  13   14.20    3.70
   0  10  13   17.50    3.90
   1  10  13   15.90    4.10
   2  10  13  103.49    7.40
   1 -11 -13    4.00    3.80
  -1  11  13   -2.10    2.90
  -1  11  13   -1.40    6.00
  -1  11  13    4.70    4.30
   0 -11 -13   41.30    5.10
   0  11  13   46.80    5.60
   0  11  13   25.60    4.40
   1  11  13   -3.10    3.30
   2  11  13    8.30    4.00
   0  12  13   21.30    4.60
   1  10 -14  128.59    8.40
   0  10 -14   44.50    6.00
   0  10 -14   33.10    4.40
   2   9 -14   26.30    4.20
   1   9 -14   46.20    5.10
   1   9 -14   65.69    6.10
   0   9 -14  153.08    8.90
   0   9 -14  138.39    7.00
  -1   9 -14   83.59    7.50
  -3  -8  14   28.10    4.80
   2   8 -14  290.27   10.90
  -2  -8  14  289.37   11.00
   1   8 -14   63.89    5.90
   1   8 -14   70.79    5.40
   0   8 -14  145.19    6.90
   0   8 -14  148.79    8.60
  -1   8 -14    1.40    2.80
  -2   8 -14   36.80    8.30
   2  -8  14   29.40    5.30
   3   7 -14    8.30    3.10
  -3  -7  14    3.80    2.90
   2   7 -14    3.20    2.60
  -2  -7  14    4.90    2.80
   1   7 -14  187.58    8.90
   1   7 -14  193.78    8.10
  -1  -7  14  195.08    8.20
   0   7 -14  593.64   17.50
   0   7 -14  572.64   14.90
  -1   7 -14  250.97   11.10
  -2   7 -14  200.98   10.50
  -2   7 -14  197.88    9.80
   2  -7  14  195.48   10.60
   3   6 -14    2.00    2.50
  -3  -6  14    5.10    3.00
   2   6 -14  184.68    8.30
   2   6 -14  202.08    8.50
  -2  -6  14  180.78    8.40
   1   6 -14  169.88    8.10
   1   6 -14  154.48    7.00
  -1  -6  14  151.18    7.00
   0   6 -14  179.78    7.10
   0   6 -14  204.68    9.20
   0  -6  14  191.28    7.30
  -1   6 -14    6.30    3.00
  -2   6 -14   58.89    5.60
  -2   6 -14   49.70    5.80
   2  -6  14   65.59    6.60
  -3   6 -14    3.80    3.80
  -3   6 -14    1.90    2.90
   3  -6  14    2.80    3.90
   3   5 -14   85.69    6.20
  -3  -5  14   92.19    7.00
   2   5 -14   71.49    5.30
   2   5 -14   73.59    5.40
  -2  -5  14   72.19    5.80
   1   5 -14   16.40    2.90
   1   5 -14   20.30    3.70
  -1  -5  14   21.00    3.40
   0   5 -14   -0.30    1.50
   0   5 -14    1.10    2.30
   0  -5  14    0.00    1.70
  -1   5 -14  329.87   12.00
   1  -5  14  308.17   11.90
   1  -5  14  322.07    9.50
  -2   5 -14  179.08    9.20
  -2   5 -14  172.08    8.60
   2  -5  14  195.28    9.60
  -3   5 -14  145.89    8.90
  -3   5 -14  123.79    8.50
   3  -5  14  133.39    9.40
   3   4 -14   31.70    4.30
  -3  -4  14   23.70    4.00
   2   4 -14    4.80    2.50
   2   4 -14    3.40    2.10
  -2  -4  14    3.00    2.60
   1   4 -14  208.08    7.80
   1   4 -14  206.38    8.50
  -1  -4  14  201.88    7.90
   0   4 -14  239.98    7.90
   0   4 -14  265.47    9.80
   0  -4  14  251.57    8.30
  -1   4 -14  239.98   10.80
  -1   4 -14  246.48    9.90
   1  -4  14  228.78    8.80
   1  -4  14  244.88    7.90
  -2   4 -14  256.17   10.40
  -2   4 -14  244.18   10.50
   2  -4  14  260.67   10.80
   2  -4  14  263.07    8.50
  -3   4 -14   21.30    4.40
  -3   4 -14   32.00    5.00
   3  -4  14   37.40    6.00
   3   3 -14  822.12   20.90
  -3  -3  14  802.22   21.30
   2   3 -14  374.16   11.70
   2   3 -14  380.86   11.70
  -2  -3  14  338.77   11.50
   1   3 -14   27.70    3.40
   1   3 -14   15.40    3.00
  -1  -3  14   22.70    3.30
   0   3 -14  144.29    6.90
   0   3 -14  141.09    5.70
   0  -3  14  140.69    5.90
  -1   3 -14   30.70    4.20
   1  -3  14   39.00    4.10
   1  -3  14   38.70    3.60
  -2   3 -14   -0.20    2.40
   2  -3  14    3.50    2.80
   2  -3  14    4.10    2.40
  -3   3 -14    2.70    2.90
   3  -3  14    2.90    2.60
   3  -3  14    7.80    3.90
   3   2 -14  892.61   22.20
   3   2 -14  883.51   22.20
  -3  -2  14  882.21   22.60
   2   2 -14  434.16   12.60
   2   2 -14  413.66   12.60
  -2  -2  14  412.66   12.80
   1   2 -14   31.60    3.60
   1   2 -14   34.20    4.00
  -1  -2  14   29.90    3.60
   0   2 -14   98.09    5.70
   0   2 -14  102.59    4.70
   0  -2  14  104.79    5.20
  -1   2 -14  143.69    7.00
   1  -2  14  145.59    6.50
   1  -2  14  143.59    5.90
  -2   2 -14   34.00    4.40
   2  -2  14   32.90    3.60
   2  -2  14   27.00    4.20
  -3   2 -14    3.40    2.70
   3  -2  14    2.50    2.50
   3  -2  14    4.20    3.30
   4  -2  14   -5.80    2.70
   4   1 -14   25.00    5.00
  -4  -1  14   16.10    4.10
   3   1 -14  265.97    9.70
   3   1 -14  274.27   10.50
  -3  -1  14  266.87   10.80
   2   1 -14  148.79    7.10
   2   1 -14  147.09    6.90
  -2  -1  14  148.99    7.30
   1   1 -14   85.49    5.40
   1   1 -14   80.59    4.80
  -1  -1  14   87.39    5.10
   0   1 -14  437.86   11.00
   0   1 -14  432.76   12.30
   0  -1  14  429.26   11.30
  -1   1 -14 1019.20   22.80
   1  -1  14 1006.50   22.00
   1  -1  14  965.90   20.90
  -2   1 -14  960.40   22.60
   2  -1  14  965.80   20.80
   2  -1  14  951.20   23.10
   3  -1  14  559.74   14.60
   3  -1  14  571.24   17.60
   4  -1  14   42.90    4.80
   4   0 -14  111.79   10.70
  -4   0  14   94.79    7.50
   3   0 -14   86.79    6.20
   3   0 -14   83.89    6.10
  -3   0  14   95.59    6.80
  -3   0  14   87.69    6.80
   2   0 -14  100.19    6.00
   2   0 -14  116.89    6.30
  -2   0  14  108.19    6.10
  -2   0  14  115.09    6.80
   1   0 -14   -0.50    1.90
   1   0 -14    1.30    1.90
  -1   0  14    2.40    2.00
  -1   0  14    1.90    2.30
   0   0 -14   43.00    4.40
   0   0 -14   37.40    3.10
   0   0  14   33.50    3.30
   0   0  14   32.40    2.70
  -1   0 -14   71.39    4.90
   1   0  14   61.99    4.30
   1   0  14   64.69    4.00
  -2   0 -14  183.58    7.70
   2   0  14  181.68    6.90
   2   0  14  171.28    8.00
   3   0  14  123.39    6.40
   3   0  14  141.29    8.30
   4   0  14   30.70    4.40
   4   0  14   42.40    8.00
  -4   1  14    1.50    3.00
   3  -1 -14   11.30    3.20
   3  -1 -14    5.70    2.80
  -3   1  14    3.40    3.10
  -3   1  14   10.20    3.40
   2  -1 -14   12.70    3.30
   2  -1 -14   10.80    2.80
  -2   1  14   17.40    3.70
  -2   1  14   12.10    3.00
   1  -1 -14  473.85   12.70
   1  -1 -14  471.85   13.00
  -1   1  14  488.25   12.90
  -1   1  14  494.35   13.20
   0  -1 -14   40.10    4.30
   0  -1 -14   32.70    3.10
   0   1  14   30.30    2.80
   0   1  14   34.10    3.30
   0   1  14   31.90    3.40
  -1  -1 -14    7.90    2.40
   1   1  14    8.70    2.20
   1   1  14    7.90    2.00
  -2  -1 -14   46.10    4.20
   2   1  14   41.60    4.00
   2   1  14   53.79    5.30
   3   1  14   40.90    4.40
   3   1  14   56.29    6.20
   4   1  14   54.49    5.50
   4   1  14   83.69    7.20
  -4   2  14   19.40    4.20
   3  -2 -14    7.60    3.10
   3  -2 -14    7.20    3.20
  -3   2  14    9.80    3.20
  -3   2  14    6.40    3.50
   2  -2 -14   34.20    4.00
   2  -2 -14   34.20    4.20
  -2   2  14   36.70    4.20
  -2   2  14   36.20    4.60
   1  -2 -14  106.59    5.60
   1  -2 -14  118.19    5.70
  -1   2  14  114.29    6.10
  -1   2  14  100.09    5.40
   0  -2 -14    7.90    1.90
   0  -2 -14   10.50    2.50
   0   2  14    8.40    2.10
   0   2  14    4.90    2.10
   0   2  14    7.60    2.30
  -1  -2 -14   16.30    3.00
   1   2  14   23.00    3.10
   1   2  14   17.90    2.70
  -2  -2 -14   10.50    2.50
   2   2  14    9.10    2.50
   2   2  14    9.00    3.00
   3   2  14  161.88    7.20
   3   2  14  180.98    8.90
   4   2  14    2.60    3.00
   4   2  14   12.80    3.90
   3  -3 -14  232.98   10.00
   3  -3 -14  233.58    9.70
  -3   3  14  223.78    9.60
  -3   3  14  246.88   10.90
   2  -3 -14  207.38    8.50
   2  -3 -14  208.38    8.50
  -2   3  14  204.58    9.00
  -2   3  14  184.28    8.00
   1  -3 -14   19.90    3.30
   1  -3 -14   13.70    2.90
  -1   3  14   21.80    3.10
  -1   3  14   18.50    3.20
   0  -3 -14 1535.05   31.20
   0  -3 -14 1480.05   30.00
   0   3  14 1554.14   30.60
   0   3  14 1524.45   29.70
   0   3  14 1535.15   30.20
  -1  -3 -14   61.39    4.50
   1   3  14   67.29    4.70
   1   3  14   68.19    4.00
  -2  -3 -14    1.50    1.90
   2   3  14    3.60    2.30
   2   3  14    3.80    2.60
   3   3  14   23.50    4.00
   3   3  14   14.80    3.20
   4   3  14    9.00    3.50
   4   3  14   24.40    4.50
   3  -4 -14  224.78   10.30
   3  -4 -14  247.38   10.10
  -3   4  14  245.18   11.20
   2  -4 -14  680.03   17.40
   2  -4 -14  681.73   17.70
  -2   4  14  661.03   18.20
  -2   4  14  663.93   16.90
   1  -4 -14 1033.90   23.30
   1  -4 -14 1040.10   23.10
  -1   4  14 1040.00   22.60
  -1   4  14 1084.09   23.90
   0  -4 -14  318.57    9.30
   0  -4 -14  325.37   10.10
   0   4  14  325.77    9.30
   0   4  14  321.07    9.20
   0   4  14  316.07    9.80
  -1  -4 -14  265.47    8.80
   1   4  14  288.17    9.10
   1   4  14  273.67    8.30
   2   4  14   11.10    2.90
   2   4  14    8.00    2.50
   3   4  14    0.40    2.70
   3   4  14    1.50    2.50
   4   4  14   30.20    5.50
   4   4  14   47.50    7.20
   3  -5 -14  128.59    7.80
   3  -5 -14  126.99    8.00
  -3   5  14  120.89    8.50
   2  -5 -14  166.08    7.90
   2  -5 -14  163.08    7.70
  -2   5  14  148.29    8.40
   1  -5 -14   86.89    5.60
   1  -5 -14   91.29    6.00
  -1   5  14   98.09    5.30
  -1   5  14  103.99    6.40
  -1   5  14   91.99    4.80
   0  -5 -14   -2.50    1.60
   0  -5 -14    0.50    2.20
   0   5  14   -3.10    1.70
   0   5  14   -0.40    2.10
   0   5  14    0.30    1.90
  -1  -5 -14   44.50    4.10
   1   5  14   45.00    3.80
   1   5  14   49.60    4.70
   2   5  14   43.90    4.10
   2   5  14   44.00    4.90
   3   5  14  322.87   11.70
   3   5  14  316.27   10.30
   3  -6 -14   40.20    5.30
   3  -6 -14   36.20    5.30
  -3   6  14   39.20    5.80
   2  -6 -14   18.90    3.90
   2  -6 -14   16.10    3.60
  -2   6  14   14.20    3.90
   1  -6 -14   35.20    4.50
   1  -6 -14   32.40    3.90
  -1   6  14   34.50    4.60
  -1   6  14   34.90    3.70
   0  -6 -14  252.67    9.10
   0   6  14  255.97    8.60
   0   6  14  263.87    8.10
   0   6  14  254.97    9.00
  -1  -6 -14   92.19    5.50
   1   6  14   97.59    4.90
   1   6  14   91.29    6.00
   2   6  14  114.69    7.00
   2   6  14  106.79    5.50
   3   6  14  120.09    6.60
   3   6  14  139.69    8.00
   2  -7 -14   30.00    4.50
   2  -7 -14   38.60    5.10
  -2   7  14   42.20    5.50
  -2   7  14   37.30    6.20
   1  -7 -14  185.28    8.30
   1  -7 -14  181.28    8.10
  -1   7  14  189.08    8.80
  -1   7  14  197.98    7.70
   0  -7 -14   91.59    5.90
   0   7  14   97.59    5.80
   0   7  14   96.49    5.90
  -1  -7 -14  167.48    7.00
   1   7  14  168.68    7.80
   1   7  14  171.48    6.50
   2   7  14   19.40    3.30
   2   7  14   21.10    4.40
   3   7  14  103.89    7.60
   3   7  14   86.09    5.90
   2  -8 -14   99.69    7.30
   2  -8 -14   98.19    7.20
  -2   8  14   99.69    8.50
  -2   8  14  105.79    7.90
   1  -8 -14   83.29    6.00
  -1   8  14   91.59    6.00
  -1   8  14   78.99    6.60
   0  -8 -14    5.00    2.80
   0   8  14    3.30    2.70
   0   8  14    3.90    2.80
   1   8  14  155.88    7.40
   2   8  14   54.69    5.90
   2   8  14   53.59    4.40
   3   8  14   -4.40    2.70
   3   8  14   -3.10    3.90
   1  -9 -14    1.70    3.20
  -1   9  14    0.10    3.70
  -1   9  14   -0.60    2.60
  -1   9  14    1.30    3.40
   0  -9 -14  133.59    7.10
   0   9  14  125.39    7.30
   0   9  14  130.89    7.20
   1   9  14  123.09    7.20
   2   9  14  228.98   10.10
   3   9  14  145.89    7.30
   3   9  14  141.29   11.90
   1 -10 -14  477.15   14.90
  -1  10  14  462.35   15.50
  -1  10  14  481.45   15.00
  -1  10  14  447.86   16.40
   0 -10 -14  481.85   14.20
   0  10  14  458.35   14.30
   0  10  14  452.25   14.40
   1  10  14  253.97   10.40
   2  10  14   13.50    4.60
  -1  11  14   -2.80    3.10
   0 -11 -14   50.29    6.60
   0  11  14   69.69    6.50
   0  11  14   48.20    5.70
   1  11  14  103.89    7.50
   1  10 -15  299.27   16.60
   1  10 -15  301.27   13.70
   0  10 -15  147.79    7.70
   1   9 -15  175.58    8.50
   1   9 -15  177.08    9.50
   0   9 -15    6.70    3.60
   0   9 -15    2.20    2.40
   2   8 -15    1.10    2.50
  -2  -8  15    1.50    2.60
   1   8 -15    3.80    2.30
   1   8 -15    3.90    2.90
   0   8 -15   29.20    5.10
   0   8 -15   28.00    3.70
  -1   8 -15   34.40    5.40
  -3  -7  15  242.58   11.70
   2   7 -15  446.36   13.90
  -2  -7  15  428.46   14.00
   1   7 -15  243.98    9.20
   1   7 -15  231.28   10.20
  -1  -7  15  230.58    9.20
   0   7 -15   15.50    3.80
   0   7 -15   12.40    2.70
  -1   7 -15    2.10    3.00
  -2   7 -15   25.90    5.20
   2  -7  15   22.90    4.90
   3   6 -15   49.20    5.30
  -3  -6  15   43.70    5.50
   2   6 -15    2.80    2.50
   2   6 -15    5.00    2.50
  -2  -6  15    4.50    2.50
   1   6 -15   -0.20    2.30
   1   6 -15    2.00    1.90
  -1  -6  15   -0.10    2.10
   0   6 -15   29.60    3.40
   0   6 -15   26.90    4.30
   0  -6  15   30.40    3.60
  -1   6 -15   -2.50    2.60
  -2   6 -15  167.08    8.80
  -2   6 -15  169.78    9.40
   2  -6  15  156.28    9.20
   3   5 -15    4.80    2.60
  -3  -5  15    2.40    3.10
   2   5 -15   76.89    5.90
   2   5 -15   82.79    5.70
  -2  -5  15   74.19    6.00
   1   5 -15   87.39    6.10
   1   5 -15   85.09    5.30
  -1  -5  15   97.49    5.80
   0   5 -15   63.59    4.30
   0   5 -15   56.79    5.10
   0  -5  15   59.89    4.40
  -1   5 -15  183.58    9.10
   1  -5  15  174.78    6.90
  -2   5 -15   76.99    6.80
  -2   5 -15   76.19    6.10
   2  -5  15   87.49    6.90
  -3   5 -15    0.80    3.00
  -3   5 -15    4.80    3.30
   3  -5  15   -3.50    3.30
   3   4 -15    1.60    2.40
  -3  -4  15    2.60    2.90
   2   4 -15   46.90    5.00
   2   4 -15   39.70    4.70
  -2  -4  15   36.50    4.60
   1   4 -15  496.55   14.70
   1   4 -15  493.35   13.60
  -1  -4  15  520.85   14.20
   0   4 -15  610.44   16.70
   0   4 -15  581.04   14.40
   0  -4  15  578.94   14.80
  -1   4 -15   72.89    6.10
   1  -4  15   63.79    4.40
  -2   4 -15   36.50    5.20
   2  -4  15   39.50    4.00
   2  -4  15   44.20    5.60
  -3   4 -15   72.59    7.50
   3  -4  15   92.49    8.30
   3   3 -15  154.98    8.10
  -3  -3  15  143.89    8.20
   2   3 -15   15.00    3.30
   2   3 -15   13.30    2.90
  -2  -3  15   20.90    3.80
   1   3 -15  181.08    8.00
   1   3 -15  163.68    7.00
  -1  -3  15  175.68    7.50
   0   3 -15  617.14   16.50
   0   3 -15  601.94   14.50
   0  -3  15  602.04   15.00
  -1   3 -15  566.54   16.40
   1  -3  15  601.64   14.50
   1  -3  15  594.34   15.50
  -2   3 -15  410.36   13.90
   2  -3  15  427.96   11.80
   2  -3  15  448.26   14.30
  -3   3 -15   59.69    6.40
   3  -3  15   44.20    4.50
   3  -3  15   56.39    6.70
   3   2 -15   46.10    5.30
   3   2 -15   38.40    4.90
  -3  -2  15   42.90    5.10
   2   2 -15  158.78    7.50
   2   2 -15  156.48    7.50
  -2  -2  15  173.08    7.80
   1   2 -15  212.08    8.60
   1   2 -15  227.48    8.20
  -1  -2  15  227.28    8.40
   0   2 -15  381.76   10.50
   0   2 -15  396.46   12.30
   0  -2  15  398.36   11.10
  -1   2 -15   87.09    5.60
   1  -2  15   80.89    4.80
   1  -2  15   87.19    5.40
  -2   2 -15   10.80    3.10
   2  -2  15   13.90    3.50
   2  -2  15    5.60    2.40
  -3   2 -15   12.40    3.50
   3  -2  15    7.50    3.00
   3  -2  15   13.40    4.30
   3   1 -15   21.30    4.10
   3   1 -15   19.10    3.60
  -3  -1  15   14.50    4.10
   2   1 -15  123.49    6.70
   2   1 -15  129.99    6.70
  -2  -1  15  140.19    7.00
   1   1 -15   67.19    5.10
   1   1 -15   57.09    4.50
  -1  -1  15   64.99    4.80
   0   1 -15   97.19    5.80
   0   1 -15   96.89    4.80
   0  -1  15  103.19    5.30
  -1   1 -15  108.69    6.00
   1  -1  15  106.09    5.40
   1  -1  15  114.09    5.70
  -2   1 -15   55.39    5.20
   2  -1  15   50.69    5.30
   2  -1  15   50.19    4.40
   3  -1  15  234.18   10.70
   3  -1  15  206.98    8.30
   3   0 -15    2.30    2.50
   3   0 -15    3.80    2.60
  -3   0  15    1.30    3.00
  -3   0  15   -1.20    2.90
   2   0 -15  150.98    7.30
   2   0 -15  139.19    7.10
  -2   0  15  144.69    7.70
  -2   0  15  138.49    7.30
   1   0 -15   26.70    3.40
   1   0 -15   31.40    4.20
  -1   0  15   31.10    3.90
  -1   0  15   30.90    3.90
   0   0 -15   20.00    3.40
   0   0 -15   15.90    2.40
   0   0  15   22.30    3.10
  -1   0 -15  172.38    7.60
   1   0  15  182.98    6.70
   1   0  15  187.78    7.30
  -2   0 -15  186.78    8.10
   2   0  15  178.68    7.10
   2   0  15  178.88    8.20
   3   0  15  109.49    6.30
   3   0  15  136.59    8.20
   3  -1 -15  546.85   16.20
   3  -1 -15  541.35   15.60
  -3   1  15  516.45   16.50
  -3   1  15  548.95   16.40
   2  -1 -15   54.99    5.20
   2  -1 -15   46.90    4.80
  -2   1  15   46.40    4.60
  -2   1  15   57.89    5.50
   1  -1 -15    8.50    2.40
   1  -1 -15    8.60    2.80
  -1   1  15    8.70    2.70
  -1   1  15   10.30    2.80
   0  -1 -15   48.90    3.60
   0  -1 -15   50.99    4.70
   0   1  15   53.89    3.90
   0   1  15   51.19    4.00
  -1  -1 -15   35.90    4.10
   1   1  15   36.60    3.70
   1   1  15   31.70    3.60
  -2  -1 -15   -1.80    1.90
   2   1  15    0.20    2.40
   2   1  15    2.20    2.40
   3   1  15    4.50    3.10
   3   1  15   -2.60    2.50
  -4   2  15  118.39    9.50
   3  -2 -15  175.28    8.80
   3  -2 -15  171.48    8.50
  -3   2  15  163.88    8.60
  -3   2  15  173.28    9.30
   2  -2 -15  118.39    6.80
   2  -2 -15  116.39    6.70
  -2   2  15  115.49    6.60
  -2   2  15  100.89    6.90
   1  -2 -15   21.70    3.30
   1  -2 -15   24.70    3.80
  -1   2  15   23.30    3.70
  -1   2  15   24.40    3.40
   0  -2 -15   53.29    4.60
   0  -2 -15   43.30    3.50
   0   2  15   48.80    3.70
   0   2  15   48.80    4.00
   0   2  15   47.30    4.10
  -1  -2 -15  433.16   12.40
   1   2  15  439.66   11.90
   1   2  15  449.46   11.70
  -2  -2 -15    1.10    2.20
   2   2  15    1.70    2.10
   2   2  15    0.20    2.60
   3   2  15   -0.50    2.30
   3   2  15    3.00    3.10
   3  -3 -15  116.89    7.40
   3  -3 -15  103.49    7.20
  -3   3  15  114.49    8.10
  -3   3  15  109.89    7.10
   2  -3 -15  446.26   13.60
   2  -3 -15  461.45   13.60
  -2   3  15  437.56   14.00
  -2   3  15  421.96   13.00
   1  -3 -15   63.79    4.80
   1  -3 -15   69.39    5.10
  -1   3  15   72.29    4.90
  -1   3  15   69.99    5.50
   0  -3 -15    5.00    1.80
   0  -3 -15    7.80    2.70
   0   3  15    4.30    2.20
   0   3  15    2.10    1.90
   0   3  15    5.50    2.20
  -1  -3 -15  279.57    9.50
   1   3  15  292.97    8.90
   1   3  15  299.47    9.30
   2   3  15  701.23   16.40
   2   3  15  666.23   17.50
   3   3  15  614.34   17.50
   3   3  15  588.64   15.40
   3  -4 -15   38.70    5.20
   3  -4 -15   42.60    5.30
  -3   4  15   30.90    5.20
   2  -4 -15   22.30    4.00
   2  -4 -15   23.50    3.80
  -2   4  15   27.10    3.90
  -2   4  15   34.60    5.00
   1  -4 -15  253.87    9.20
   1  -4 -15  259.77    9.40
  -1   4  15  265.17    9.00
  -1   4  15  282.57   10.00
   0  -4 -15  127.29    5.80
   0  -4 -15  139.09    6.80
   0   4  15  135.79    5.80
   0   4  15  144.49    6.40
   0   4  15  140.19    6.00
  -1  -4 -15   -0.30    2.20
   1   4  15    0.80    2.50
   1   4  15    1.90    1.90
   2   4  15  167.08    7.80
   2   4  15  177.58    7.10
   3   4  15   90.79    6.60
   3   4  15   78.39    5.70
   3  -5 -15   -1.20    3.00
   3  -5 -15    0.30    3.00
  -3   5  15   -1.00    3.70
   2  -5 -15  220.68    9.40
   2  -5 -15  198.88    9.00
  -2   5  15  197.48    9.60
   1  -5 -15  117.79    6.40
   1  -5 -15  104.29    6.60
  -1   5  15  115.79    5.90
  -1   5  15  115.29    7.00
   0  -5 -15   16.60    2.80
   0  -5 -15   13.10    3.30
   0   5  15    8.70    2.90
   0   5  15    9.80    2.60
   0   5  15   12.40    2.70
  -1  -5 -15    7.50    2.80
   1   5  15    8.20    3.10
   1   5  15    8.90    2.50
   2   5  15  188.98    8.40
   2   5  15  179.18    7.20
   3   5  15  104.99    7.10
   3   5  15   84.39    5.90
   2  -6 -15   40.70    5.00
   2  -6 -15   52.39    5.70
  -2   6  15   45.70    5.80
   1  -6 -15   73.69    6.00
   1  -6 -15   67.89    5.40
  -1   6  15   70.29    6.00
   0  -6 -15  135.09    6.90
   0  -6 -15  114.69    5.90
   0   6  15  121.69    6.00
   0   6  15  131.19    6.80
   0   6  15  120.79    5.80
  -1  -6 -15    6.80    2.70
   1   6  15    3.80    2.90
   1   6  15    9.10    2.50
   2   6  15   20.40    3.30
   2   6  15   14.50    4.10
   3   6  15   60.59    6.40
   3   6  15   49.40    4.90
   2  -7 -15  137.29    8.10
   2  -7 -15  136.89    8.10
  -2   7  15  155.78    9.10
   1  -7 -15   85.29    6.30
   1  -7 -15   70.69    5.80
  -1   7  15   90.49    5.50
  -1   7  15   78.69    6.50
   0  -7 -15    5.00    3.00
   0   7  15   -2.30    2.70
   0   7  15   -3.90    2.20
  -1  -7 -15  165.48    7.60
   1   7  15  186.08    6.90
   1   7  15  189.38    8.30
   2   7  15  319.47    9.90
   2   7  15  314.77   11.60
   3   7  15   83.19    6.00
   3   7  15   85.69    7.50
   2  -8 -15  210.98   10.00
   2  -8 -15  198.78    9.90
  -2   8  15  201.08   10.50
   1  -8 -15  173.18    8.40
   1  -8 -15  157.68    8.20
  -1   8  15  154.68    7.50
  -1   8  15  142.69    8.60
   0  -8 -15   57.79    5.50
   0   8  15   53.59    5.50
   0   8  15   56.09    5.20
   1   8  15   20.80    4.00
   2   8  15   -8.20    3.30
   2   8  15   -1.50    2.40
   3   8  15   20.20    5.30
   3   8  15   17.40    3.80
   1  -9 -15  369.86   12.90
  -1   9  15  378.86   12.70
  -1   9  15  370.26   13.70
   0  -9 -15  220.08    9.20
   0   9  15  210.38    9.50
   0   9  15  210.08    9.20
   1   9  15    5.30    3.60
   2   9  15   41.30    5.60
   3   9  15  145.69    7.40
   1 -10 -15   95.59    7.40
  -1  10  15   83.29    6.90
  -1  10  15  100.39    8.10
   0 -10 -15    6.20    3.30
   0  10  15   -0.20    3.10
   0  10  15    7.80    3.60
   1  10  15   62.69    6.30
   2  10  15    4.60    4.30
   0  11  15  190.78    9.60
   0  11  15  191.68    9.80
   1   9 -16   54.99    6.50
   1   9 -16   40.50    4.80
   0   9 -16   10.90    4.30
   2   8 -16   20.30    4.30
  -2  -8  16   23.90    4.30
   1   8 -16   22.90    3.80
   1   8 -16   30.50    5.00
   0   8 -16  201.48   10.50
   2   7 -16   35.10    4.80
  -2  -7  16   31.80    4.60
   1   7 -16    0.90    2.10
   1   7 -16    2.10    2.80
  -1  -7  16    1.90    2.40
   0   7 -16   22.90    4.60
   0   7 -16   20.90    3.30
   2   6 -16  848.92   22.10
   2   6 -16  891.51   22.00
  -2  -6  16  861.41   22.30
   1   6 -16  754.42   18.80
   1   6 -16  754.72   20.30
  -1  -6  16  722.63   18.90
   0   6 -16  332.97   12.60
   0   6 -16  334.77   10.30
   0  -6  16  305.97   10.30
  -1   6 -16  311.77   12.60
  -2   6 -16   29.50    4.90
   3   5 -16    1.90    2.60
  -3  -5  16   -2.50    2.70
   2   5 -16   99.99    6.60
   2   5 -16  100.49    6.40
  -2  -5  16  112.89    7.20
   1   5 -16   69.69    5.80
   1   5 -16   57.99    4.70
  -1  -5  16   57.79    5.10
   0   5 -16   36.20    3.70
   0   5 -16   42.40    5.20
   0  -5  16   43.20    4.40
  -1   5 -16   -1.10    2.70
   1  -5  16    0.00    1.80
  -2   5 -16  515.15   16.80
   2  -5  16  477.25   16.20
   3   4 -16    9.60    3.10
  -3  -4  16    2.10    2.90
   2   4 -16   43.60    4.70
   2   4 -16   47.80    5.40
  -2  -4  16   47.40    5.40
   1   4 -16   42.10    4.30
   1   4 -16   40.60    4.80
  -1  -4  16   44.00    4.90
   0   4 -16   87.49    4.80
   0   4 -16   95.29    6.40
   0  -4  16   87.09    5.40
  -1   4 -16  113.29    7.40
   1  -4  16  103.69    5.60
  -2   4 -16   -0.30    2.70
   2  -4  16    0.60    2.40
   2  -4  16    3.20    2.90
  -3   4 -16  127.99    8.60
   3  -4  16  144.39    9.50
   3   3 -16   43.00    4.90
  -3  -3  16   42.40    5.30
   2   3 -16  192.48    8.50
   2   3 -16  196.68    8.90
  -2  -3  16  208.58    9.20
   1   3 -16  168.28    7.30
   1   3 -16  182.58    8.30
  -1  -3  16  181.98    7.90
   0   3 -16  133.19    5.80
   0   3 -16  137.69    7.40
   0  -3  16  131.39    6.40
  -1   3 -16   20.00    4.00
   1  -3  16   13.60    2.80
  -2   3 -16   11.10    3.50
   2  -3  16   17.40    3.80
   2  -3  16   18.20    3.20
  -3   3 -16   87.79    6.90
   3  -3  16   75.49    5.60
   3  -3  16   85.79    7.60
   3   2 -16  104.29    6.90
   3   2 -16   87.79    7.20
  -3  -2  16  100.19    7.40
   2   2 -16   33.90    4.50
   2   2 -16   27.70    4.00
  -2  -2  16   32.50    4.70
   1   2 -16   79.59    5.50
   1   2 -16   80.69    5.10
  -1  -2  16   78.59    5.40
   0   2 -16   74.79    4.40
   0   2 -16   78.39    5.80
   0  -2  16   70.19    4.90
  -1   2 -16   80.09    5.70
   1  -2  16   70.39    5.40
   1  -2  16   75.19    4.90
  -2   2 -16    0.20    2.50
   2  -2  16    0.40    2.40
   2  -2  16    3.10    2.90
   3  -2  16   -2.30    2.50
   3  -2  16    4.70    3.60
   3   1 -16   -0.10    2.40
   3   1 -16    4.30    2.90
  -3  -1  16    5.70    3.40
   2   1 -16   -0.90    2.10
   2   1 -16   -2.60    2.00
  -2  -1  16    2.80    2.70
   1   1 -16   17.10    3.60
   1   1 -16   10.30    2.60
  -1  -1  16   14.00    2.90
   0   1 -16   38.70    3.40
   0   1 -16   42.80    4.70
   0  -1  16   42.40    4.10
  -1   1 -16   20.30    3.70
   1  -1  16   19.00    3.10
   1  -1  16   24.50    3.40
  -2   1 -16    1.90    2.70
   2  -1  16   -1.10    2.20
   2  -1  16    4.10    2.90
   3  -1  16    7.40    3.00
   3  -1  16   13.60    4.00
   3   0 -16    8.40    3.10
   3   0 -16   11.30    3.50
  -3   0  16   11.60    3.80
   2   0 -16  213.48    8.90
   2   0 -16  215.78    9.00
  -2   0  16  208.18    9.10
  -2   0  16  198.28    9.40
   1   0 -16  429.06   13.10
   1   0 -16  445.46   12.60
  -1   0  16  454.75   12.90
   0   0 -16 1007.10   23.00
   0   0 -16  980.60   21.10
   0   0  16  967.90   21.70
  -1   0 -16  330.57   11.20
   1   0  16  331.57   10.10
   1   0  16  358.56   10.50
  -2   0 -16  102.69    6.40
   2   0  16   95.89    5.60
   2   0  16  101.49    6.50
   3   0  16   99.09    7.40
   3   0  16   75.89    5.80
   3  -1 -16   89.59    6.90
   3  -1 -16   76.29    6.40
  -3   1  16   88.19    6.90
  -3   1  16   57.99    6.20
   2  -1 -16    1.40    2.60
   2  -1 -16    0.50    2.50
  -2   1  16    2.60    2.90
  -2   1  16    5.70    2.90
   1  -1 -16   26.80    3.50
   1  -1 -16   19.20    3.60
  -1   1  16   20.60    3.60
  -1   1  16   21.10    3.20
   0  -1 -16  135.19    7.00
   0  -1 -16  146.19    5.90
   0   1  16  139.49    6.30
   0   1  16  142.19    6.40
  -1  -1 -16  278.27   10.00
   1   1  16  296.57    9.40
   1   1  16  288.87    9.10
  -2  -1 -16  312.07   10.60
   2   1  16  301.37   10.70
   2   1  16  287.27    9.40
   3   1  16    0.90    2.70
   3   1  16    5.70    3.10
   3  -2 -16   77.89    6.70
   3  -2 -16   70.99    6.50
  -3   2  16   76.79    6.60
  -3   2  16   67.29    6.60
   2  -2 -16  222.18    9.10
   2  -2 -16  224.68    9.30
  -2   2  16  201.08    9.50
  -2   2  16  192.48    8.70
   1  -2 -16   -1.80    1.90
   1  -2 -16    2.50    2.70
  -1   2  16    2.20    2.40
  -1   2  16    2.90    2.60
   0  -2 -16  225.08    7.60
   0  -2 -16  237.08    8.80
   0   2  16  242.88    8.30
   0   2  16  226.08    8.00
  -1  -2 -16  716.73   18.40
   1   2  16  769.22   17.60
   1   2  16  780.32   17.90
  -2  -2 -16  315.47   10.70
   2   2  16  328.47   10.20
   2   2  16  332.97   11.20
   3   2  16   28.20    4.60
   3  -3 -16   45.50    5.70
   3  -3 -16   33.10    4.80
  -3   3  16   35.10    5.40
  -3   3  16   38.00    5.20
   2  -3 -16    0.90    2.50
   2  -3 -16    2.20    2.60
  -2   3  16    4.10    2.70
  -2   3  16    3.10    3.30
   1  -3 -16    6.10    3.00
   1  -3 -16    4.00    2.30
  -1   3  16    0.60    2.60
  -1   3  16    9.30    2.80
   0  -3 -16   59.19    5.20
   0  -3 -16   57.59    4.00
   0   3  16   52.59    4.50
   0   3  16   49.80    4.10
   0   3  16   51.89    4.30
  -1  -3 -16    3.00    2.40
   1   3  16   -0.50    2.20
   1   3  16   -1.30    2.30
   2   3  16  107.19    6.40
   2   3  16   94.59    5.40
   3   3  16   -0.20    2.50
   3   3  16    6.00    3.40
   3  -4 -16   93.09    7.40
   3  -4 -16   98.39    7.40
  -3   4  16  101.59    8.20
   2  -4 -16  308.07   11.40
   2  -4 -16  328.07   11.60
  -2   4  16  302.27   10.80
  -2   4  16  324.87   12.20
   1  -4 -16  552.34   15.40
   1  -4 -16  520.55   14.70
  -1   4  16  547.45   15.50
  -1   4  16  565.54   14.70
   0  -4 -16   18.20    3.60
   0  -4 -16   21.20    3.00
   0   4  16   15.40    2.80
   0   4  16   15.10    2.90
   0   4  16   14.60    3.00
  -1  -4 -16   88.99    6.00
   1   4  16   89.29    5.20
   1   4  16   93.29    5.80
   2   4  16  101.99    6.50
   2   4  16  101.09    5.80
   3   4  16   52.39    5.30
   2  -5 -16  526.75   15.80
   2  -5 -16  512.35   15.60
  -2   5  16  517.75   16.30
   1  -5 -16  180.08    8.40
   1  -5 -16  182.98    8.00
  -1   5  16  171.58    7.40
  -1   5  16  172.08    8.40
   0  -5 -16   38.70    4.70
   0  -5 -16   29.60    3.50
   0   5  16   42.90    4.10
   0   5  16   39.40    4.40
   0   5  16   33.60    3.70
  -1  -5 -16   35.40    4.20
   1   5  16   35.80    3.90
   1   5  16   29.00    4.10
   2   5  16   34.60    4.70
   2   5  16   26.70    3.70
   3   5  16  117.69    6.50
   3   5  16  146.09    8.20
   2  -6 -16    3.90    3.40
   2  -6 -16    4.90    3.30
  -2   6  16    8.30    4.10
   1  -6 -16   19.00    3.80
   1  -6 -16   24.80    4.30
  -1   6  16   26.80    4.60
   0  -6 -16  185.98    8.30
   0  -6 -16  191.48    7.70
   0   6  16  188.18    8.10
   0   6  16  177.48    7.40
   0   6  16  182.38    7.10
  -1  -6 -16  282.17    9.80
   1   6  16  262.17    9.80
   1   6  16  274.17    9.00
   2   6  16  297.67   11.10
   2   6  16  294.27    9.70
   3   6  16   39.60    5.50
   3   6  16   23.80    3.90
   2  -7 -16  188.48    9.40
   2  -7 -16  184.28    9.40
  -2   7  16  178.88   10.00
   1  -7 -16  296.07   10.90
   1  -7 -16  294.17   10.90
  -1   7  16  292.47   11.50
   0  -7 -16   -1.50    2.20
   0  -7 -16    1.60    2.90
   0   7  16    0.60    2.80
   0   7  16   -4.10    2.10
  -1  -7 -16  163.68   11.90
   1   7  16  182.38    7.20
   1   7  16  170.38    8.10
   2   7  16  385.06   13.00
   2   7  16  363.36   11.20
   3   7  16   42.60    6.20
   3   7  16   51.09    5.40
   1  -8 -16  105.09    7.20
   1  -8 -16  100.69    7.00
  -1   8  16   85.39    7.20
   0  -8 -16  121.49    7.30
   0   8  16  120.99    6.80
   0   8  16  111.09    7.10
   1   8  16  129.99    7.50
   2   8  16   70.29    5.50
   2   8  16   67.09    6.90
   3   8  16   25.60    4.10
   1  -9 -16   62.09    6.60
   1  -9 -16   48.20    5.60
  -1   9  16   41.60    5.10
  -1   9  16   61.19    6.60
   0  -9 -16   89.09    6.70
   0   9  16   96.49    7.30
   0   9  16   86.29    6.70
   1   9  16   46.60    5.60
   2   9  16    0.90    4.00
  -1  10  16  535.05   16.50
   0 -10 -16  589.84   16.90
   0  10  16  564.94   16.90
   0  10  16  628.64   20.60
   1  10  16  366.26   13.00
  -2  -8  17   63.49    6.40
   1   8 -17    0.70    3.10
   1   8 -17   -1.00    2.10
   0   8 -17   28.80    5.40
   2   7 -17    0.60    2.50
  -2  -7  17    3.10    2.80
   1   7 -17   18.10    4.10
   1   7 -17   16.20    3.40
  -1  -7  17   16.30    3.60
   0   7 -17    8.40    3.50
  -1   7 -17  397.16   15.30
   2   6 -17   11.10    3.00
   2   6 -17   12.30    3.60
  -2  -6  17   10.00    3.20
   1   6 -17   58.19    4.80
   1   6 -17   55.99    6.00
  -1  -6  17   60.49    5.60
   0   6 -17   64.49    7.00
   0  -6  17   58.09    4.90
  -1   6 -17    4.90    3.30
  -2   6 -17   29.70    8.80
   2   5 -17   40.10    4.60
   2   5 -17   47.40    5.40
  -2  -5  17   50.39    5.30
   1   5 -17  142.79    8.20
   1   5 -17  144.09    7.10
  -1  -5  17  144.59    7.50
   0   5 -17   32.60    4.90
   0  -5  17   38.70    4.20
  -1   5 -17   43.90    5.80
   1  -5  17   49.70    4.50
   3   4 -17   -2.90    3.20
  -3  -4  17    3.70    4.40
   2   4 -17   -2.80    1.90
   2   4 -17    1.00    2.80
  -2  -4  17    0.40    2.40
   1   4 -17   65.29    4.80
   1   4 -17   66.39    6.30
  -1  -4  17   62.99    5.40
   0   4 -17   65.69    5.60
   0  -4  17   67.69    5.00
  -1   4 -17   70.49    6.10
   1  -4  17   70.59    5.00
  -2   4 -17   42.50    5.90
   2  -4  17   42.80    4.50
   2  -4  17   41.60    5.50
   3   3 -17  118.49    7.50
  -3  -3  17  124.89    8.40
   2   3 -17  188.28    8.90
   2   3 -17  203.18    8.80
  -2  -3  17  213.28    9.50
   1   3 -17   51.29    4.50
   1   3 -17   62.39    5.70
  -1  -3  17   64.29    5.40
   0   3 -17    7.40    2.60
   0   3 -17    4.40    2.50
   0  -3  17    5.60    2.60
  -1   3 -17  100.59    7.10
   1  -3  17  100.09    5.70
  -2   3 -17  158.98    8.80
   2  -3  17  143.69    7.00
   2  -3  17  156.88    8.50
  -3   3 -17    5.60    3.10
   3  -3  17   -4.30    2.60
   3  -3  17   -0.80    3.20
   3   2 -17   33.20    5.00
   3   2 -17   42.80    5.20
  -3  -2  17   52.29    6.30
   2   2 -17  311.97   11.10
   2   2 -17  288.17   11.10
  -2  -2  17  302.77   11.40
   1   2 -17  506.75   15.10
   1   2 -17  500.75   14.00
  -1  -2  17  527.85   14.70
   0   2 -17  288.37   10.70
   0   2 -17  281.47    9.10
   0  -2  17  273.67    9.50
  -1   2 -17   82.59    6.20
   1  -2  17   82.29    5.30
  -2   2 -17    6.20    3.10
   2  -2  17   13.10    3.60
   2  -2  17    7.90    3.00
   3  -2  17    1.40    3.40
   3  -2  17   -6.00    2.30
   3   1 -17   51.99    5.50
   3   1 -17   55.49    6.10
  -3  -1  17   61.59    6.50
   2   1 -17  118.09    7.20
   2   1 -17  127.49    7.20
  -2  -1  17  112.69    7.20
   1   1 -17  319.27   11.30
   1   1 -17  328.27   10.70
  -1  -1  17  335.77   11.10
   0   1 -17  105.39    5.20
   0   1 -17  104.69    6.60
   0  -1  17  112.19    6.10
  -1   1 -17    8.10    3.10
   1  -1  17    3.30    2.20
  -2   1 -17  252.27   10.40
   2  -1  17  256.97   10.30
   2  -1  17  236.98    8.80
   3  -1  17  438.56   15.30
   3  -1  17  416.56   12.90
   3   0 -17   12.30    3.80
   3   0 -17    8.40    3.40
  -3   0  17    5.60    3.20
   2   0 -17   95.49    6.60
   2   0 -17   95.99    6.40
  -2   0  17  105.89    7.00
   1   0 -17   17.50    3.30
   1   0 -17   12.80    3.20
  -1   0  17   20.90    3.50
   0   0 -17   58.09    5.40
   0   0 -17   49.99    3.80
   0   0  17   46.20    4.20
  -1   0 -17  157.68    7.80
   1   0  17  170.38    6.90
   1   0  17  149.09    6.80
  -2   0 -17   15.70    3.70
   2   0  17   18.60    3.70
   2   0  17   15.10    3.30
   3   0  17   30.80    5.00
   3   0  17   19.70    4.00
   3  -1 -17    0.50    2.80
   3  -1 -17    0.20    2.80
  -3   1  17   -0.60    2.90
  -3   1  17    4.10    3.60
   2  -1 -17   62.19    5.80
   2  -1 -17   56.79    5.60
  -2   1  17   60.09    6.30
  -2   1  17   55.69    5.60
   1  -1 -17   71.19    5.20
   1  -1 -17   77.49    5.90
  -1   1  17   81.09    5.90
  -1   1  17   57.09    5.10
   0  -1 -17  251.87    8.30
   0  -1 -17  257.57   10.00
   0   1  17  266.07    9.10
  -1  -1 -17   60.29    5.30
   1   1  17   66.59    4.80
   1   1  17   60.39    4.80
  -2  -1 -17   79.49    5.90
   2   1  17   79.19    5.50
   2   1  17   87.39    6.30
   3   1  17  210.48    8.90
   3   1  17  243.48   10.70
   3  -2 -17    0.50    2.90
   3  -2 -17    2.60    3.10
  -3   2  17    3.80    3.30
  -3   2  17   -1.20    3.50
   2  -2 -17   15.60    3.80
   2  -2 -17   13.70    3.70
  -2   2  17   14.90    3.80
  -2   2  17   15.80    3.90
   1  -2 -17    0.30    2.20
   1  -2 -17    1.50    2.30
  -1   2  17   -0.40    2.10
  -1   2  17   -0.40    2.50
   0  -2 -17   92.89    6.20
   0  -2 -17   96.19    5.10
   0   2  17   96.99    5.40
  -1  -2 -17   11.40    3.00
   1   2  17   17.00    3.00
   1   2  17   13.10    3.10
  -2  -2 -17   66.29    5.30
   2   2  17   71.49    5.70
   2   2  17   63.59    5.20
   3   2  17   29.20    4.80
   3   2  17   29.60    4.30
   3  -3 -17    1.40    3.60
   3  -3 -17   -0.80    3.10
  -3   3  17   -3.60    2.90
  -3   3  17   -2.50    5.10
   2  -3 -17  125.59    7.60
   2  -3 -17  121.69    7.30
  -2   3  17  121.79    7.30
  -2   3  17  131.89    8.10
   1  -3 -17  159.88    7.50
   1  -3 -17  173.38    8.30
  -1   3  17  162.98    7.50
  -1   3  17  165.88    8.10
   0  -3 -17   62.49    5.50
   0  -3 -17   65.49    4.40
   0   3  17   65.59    4.90
  -1  -3 -17  507.35   14.50
   1   3  17  510.25   13.90
   1   3  17  531.95   13.70
   2   3  17  530.15   15.00
   2   3  17  506.75   13.90
   3   3  17  204.38    8.80
   3   3  17  214.08    9.90
   2  -4 -17   56.49    5.90
   2  -4 -17   68.19    6.30
  -2   4  17   74.39    7.10
  -2   4  17   62.89    5.70
   1  -4 -17   42.10    5.10
   1  -4 -17   37.30    4.30
  -1   4  17   50.69    5.50
  -1   4  17   44.10    4.70
   0  -4 -17  256.47   10.00
   0  -4 -17  253.17    8.70
   0   4  17  267.97    9.10
  -1  -4 -17  244.28    9.30
   1   4  17  229.18    8.80
   1   4  17  243.28    8.60
   2   4  17  139.59    7.50
   2   4  17  136.79    6.50
   3   4  17   19.80    4.40
   3   4  17   12.90    3.50
   2  -5 -17    8.90    3.80
   2  -5 -17   10.80    3.50
  -2   5  17   14.50    4.30
   1  -5 -17  306.07   10.90
   1  -5 -17  311.97   11.20
  -1   5  17  316.67   10.50
  -1   5  17  318.27   11.80
   0  -5 -17  261.97   10.10
   0  -5 -17  254.77    8.90
   0   5  17  246.78    8.70
   0   5  17  264.67    9.00
  -1  -5 -17  256.57    9.70
   1   5  17  258.07    9.60
   1   5  17  254.27    8.80
   2   5  17   66.29    5.30
   2   5  17   71.09    6.20
   3   5  17   -1.50    3.10
   3   5  17    9.40    3.70
   2  -6 -17  260.47   11.10
   2  -6 -17  270.47   11.20
  -2   6  17  248.88   11.50
   1  -6 -17  137.19    7.70
   1  -6 -17  160.08    8.40
  -1   6  17  163.68    8.70
   0  -6 -17  114.49    6.10
   0  -6 -17  108.09    7.00
   0   6  17  119.99    6.10
   0   6  17  113.79    6.30
  -1  -6 -17  338.87   11.20
   1   6  17  326.27   10.30
   1   6  17  333.27   11.20
   2   6  17  202.98    9.60
   2   6  17  219.88    8.40
   3   6  17   33.80    5.50
   3   6  17   27.80    4.40
   2  -7 -17  130.19    9.90
  -2   7  17   85.49    9.20
   1  -7 -17   26.80    4.40
   1  -7 -17   37.10    5.40
  -1   7  17   32.00    5.20
   0  -7 -17   -1.60    2.20
   0  -7 -17   -4.40    2.90
   0   7  17    0.50    2.50
   1   7  17   99.69    6.80
   1   7  17   98.09    5.80
   2   7  17  138.69    6.90
   2   7  17  124.29    8.20
   3   7  17   84.39    6.90
   1  -8 -17  161.98    8.90
   1  -8 -17  166.68    8.60
  -1   8  17  154.38    9.10
   0  -8 -17  238.48    9.50
   0  -8 -17  245.58   10.20
   0   8  17  251.57    9.90
   1   8  17    8.60    4.00
   2   8  17   58.89    6.50
   2   8  17   53.99    5.10
   1  -9 -17   14.40    4.50
   1  -9 -17    7.10    3.60
  -1   9  17   -0.30    3.80
   0  -9 -17   13.20    4.30
   0  -9 -17   17.00    4.30
   0   9  17   16.10    3.90
   1   9  17   24.70    4.70
   0 -10 -17  107.29    7.90
   0  10  17   84.69    7.00
   1  10  17   97.89    9.40
   1   8 -18   59.89    5.90
   1   7 -18  292.87   10.80
   1   7 -18  292.27   12.40
  -1  -7  18  268.27   11.00
   0   7 -18  107.49    8.10
   2   6 -18   11.30    3.60
   2   6 -18   13.60    3.50
  -2  -6  18   14.90    4.00
   1   6 -18    1.50    3.00
   1   6 -18    3.50    2.30
  -1  -6  18    4.00    2.50
   0   6 -18   85.19    7.30
   0  -6  18   91.89    6.10
  -1   6 -18    4.70    3.30
   2   5 -18  121.69    7.20
   2   5 -18  115.59    7.60
  -2  -5  18  116.39    7.80
   1   5 -18   54.49    6.20
   1   5 -18   65.09    5.00
  -1  -5  18   67.89    5.80
   0   5 -18    1.80    2.40
   0  -5  18    3.80    2.30
  -1   5 -18    5.50    3.30
   1  -5  18   12.70    3.00
  -2   5 -18   -4.10    2.80
   2   4 -18   82.69    6.60
   2   4 -18   69.59    5.80
  -2  -4  18   86.29    6.80
   1   4 -18    8.20    2.60
   1   4 -18    7.90    3.20
  -1  -4  18   10.60    2.90
   0   4 -18   68.19    6.20
   0  -4  18   70.69    5.30
  -1   4 -18  294.07   12.00
   1  -4  18  304.37   10.20
  -2   4 -18   15.70    4.10
   2  -4  18   26.30    3.90
   2   3 -18  202.18    9.40
   2   3 -18  186.58    8.70
  -2  -3  18  193.18    9.50
   1   3 -18  184.18    7.90
   1   3 -18  172.88    8.80
  -1  -3  18  175.78    8.10
   0   3 -18   25.70    4.60
   0  -3  18   23.70    3.70
  -1   3 -18  297.57   11.80
   1  -3  18  278.47    9.90
  -2   3 -18  415.76   14.70
   2  -3  18  409.76   12.50
  -3   3 -18  213.48   12.20
   3   2 -18  148.49    9.80
   2   2 -18   45.00    5.30
   2   2 -18   51.49    5.70
  -2  -2  18   27.20    4.30
   1   2 -18    5.90    2.30
   1   2 -18    6.80    3.20
  -1  -2  18    9.90    2.90
   0   2 -18   41.80    5.30
   0  -2  18   43.50    4.80
  -1   2 -18  225.58   10.00
   1  -2  18  218.28    8.40
  -2   2 -18   97.69    7.20
   2  -2  18  103.29    7.00
   2  -2  18   94.79    6.10
   3  -2  18   14.30    4.40
   3  -2  18    4.70    3.70
   3   1 -18   12.50    3.60
  -3  -1  18   11.10    4.20
   2   1 -18    7.10    3.10
   2   1 -18   -1.10    2.80
  -2  -1  18   -1.60    2.40
   1   1 -18  175.78    7.80
   1   1 -18  167.08    8.60
  -1  -1  18  178.38    8.20
   0   1 -18   70.19    6.00
   0  -1  18   60.29    5.10
  -1   1 -18   29.60    4.40
   1  -1  18   23.50    3.50
  -2   1 -18    3.10    2.90
   2  -1  18    3.80    2.90
   2  -1  18    8.00    3.20
   3  -1  18    4.30    3.10
   3  -1  18    9.80    3.80
   3   0 -18   68.49    6.40
  -3   0  18   71.09    7.00
   2   0 -18  111.69    7.30
   2   0 -18  108.29    7.00
  -2   0  18  115.79    7.50
   1   0 -18  108.89    6.30
   1   0 -18  112.59    7.20
  -1   0  18  115.09    6.80
   0   0 -18   60.89    6.10
   0   0  18   41.80    4.40
  -1   0 -18   30.10    4.50
   1   0  18   28.80    3.80
  -2   0 -18    2.30    2.80
   2   0  18    9.40    3.20
   2   0  18    4.40    2.90
   3   0  18   56.49    6.50
   3   0  18   26.60    4.30
   3  -1 -18  143.19    8.50
  -3   1  18  151.38    9.00
   2  -1 -18  480.65   15.10
   2  -1 -18  496.05   15.20
  -2   1  18  506.15   15.80
  -2   1  18  460.55   14.90
   1  -1 -18  375.76   12.50
   1  -1 -18  350.66   11.40
  -1   1  18  369.06   12.20
  -1   1  18  325.37   11.30
   0  -1 -18    5.80    2.70
   0   1  18    2.70    2.30
  -1  -1 -18   23.10    4.20
   1   1  18   24.90    5.50
   1   1  18   23.20    3.70
  -2  -1 -18   93.99    6.50
   2   1  18   90.59    6.50
   2   1  18   83.39    5.70
   3   1  18    9.40    3.80
   3   1  18   26.10    4.80
   3  -2 -18   65.19    7.40
  -3   2  18   43.50    5.50
   2  -2 -18  267.97   10.90
   2  -2 -18  280.17   11.30
  -2   2  18  284.87   11.60
  -2   2  18  272.97   10.90
   1  -2 -18  381.16   12.70
   1  -2 -18  368.46   11.90
  -1   2  18  361.86   12.00
  -1   2  18  374.66   12.30
   0  -2 -18  237.38    9.80
   0   2  18  237.68    8.90
  -1  -2 -18   45.00    5.00
   1   2  18   35.90    4.00
   1   2  18   47.30    4.70
  -2  -2 -18  127.89    7.30
   2   2  18  143.39    7.50
   2   2  18  128.79    6.60
   3   2  18   23.20    4.60
   3   2  18   11.20    3.90
  -3   3  18  167.48    9.50
   2  -3 -18  140.39    8.00
   2  -3 -18  146.09    8.20
  -2   3  18  151.98    9.00
  -2   3  18  148.59    8.20
   1  -3 -18  229.58   10.00
   1  -3 -18  227.88    9.20
  -1   3  18  230.28    9.60
  -1   3  18  218.68    9.10
   0  -3 -18  195.48    8.90
   0   3  18  204.38    8.20
  -1  -3 -18    3.60    2.80
   1   3  18    2.40    2.40
   1   3  18    5.10    2.80
   2   3  18  252.77    9.30
   2   3  18  278.47   10.40
   3   3  18  158.48    8.20
   3   3  18  200.78    9.60
   2  -4 -18    2.80    3.50
   2  -4 -18    1.40    3.00
  -2   4  18    3.10    3.00
  -2   4  18    0.60    3.40
   1  -4 -18   24.00    4.00
   1  -4 -18   27.00    4.70
  -1   4  18   18.40    4.10
  -1   4  18   18.50    3.60
   0  -4 -18    5.30    3.10
   0   4  18    4.20    2.60
  -1  -4 -18    6.90    3.10
   1   4  18   -5.50    2.80
   1   4  18    2.00    2.60
   2   4  18   32.60    4.40
   2   4  18   31.30    4.70
   3   4  18    4.90    3.90
   3   4  18    9.20    3.80
   2  -5 -18  399.96   13.90
   2  -5 -18  403.36   14.10
  -2   5  18  437.56   15.20
   1  -5 -18    4.20    3.60
   1  -5 -18    2.10    2.60
  -1   5  18    1.80    3.30
  -1   5  18    9.20    2.90
   0  -5 -18  129.19    7.70
   0   5  18  136.99    6.70
  -1  -5 -18   71.99    5.90
   1   5  18   74.09    6.00
   1   5  18   69.29    5.30
   2   5  18   92.29    6.10
   2   5  18   93.09    7.00
   3   5  18  209.48   13.70
   2  -6 -18    0.90    3.20
  -2   6  18   -0.30    4.10
   1  -6 -18   37.70    5.20
   1  -6 -18   37.90    4.80
  -1   6  18   42.20    5.40
   0  -6 -18  251.27   10.40
   0   6  18  264.17    9.40
  -1  -6 -18  312.57   11.10
   1   6  18  309.37   11.10
   1   6  18  297.67   10.00
   2   6  18  261.37    9.70
   2   6  18  278.07   11.20
   1  -7 -18   27.20    4.50
   1  -7 -18   36.70    5.60
  -1   7  18   29.20    5.10
   0  -7 -18    3.80    3.50
   0   7  18   -0.30    2.70
   1   7  18   -2.30    3.30
   1   7  18    2.70    2.70
   2   7  18  106.39    6.50
   2   7  18  114.49    8.10
   1  -8 -18   34.20    5.60
   1  -8 -18   14.70    3.90
  -1   8  18   22.10    5.20
   0  -8 -18   84.19    7.00
   0   8  18   75.19    6.10
   1   8  18   48.60    5.60
   2   8  18   -3.40    2.80
   2   8  18   -3.20    4.10
   0  -9 -18   64.79    6.60
   0   9  18   53.99    5.80
   1   9  18   32.60    5.10
   0 -10 -18   33.80    7.40
   1   7 -19   14.60    3.40
  -1  -7  19   15.90    3.70
   2   6 -19   12.20    3.90
   1   6 -19  320.57   11.40
   1   6 -19  302.77   12.70
  -1  -6  19  313.27   11.80
   0   6 -19  605.74   19.20
   0  -6  19  593.64   16.80
   2   5 -19   60.79    6.60
   2   5 -19   54.99    5.60
   1   5 -19    9.30    3.60
   1   5 -19    7.10    2.60
  -1  -5  19   11.90    3.50
   0   5 -19  159.88    9.30
   0  -5  19  163.78    7.90
  -1   5 -19   36.20    5.40
   1  -5  19   48.60    5.10
   2   4 -19    9.40    3.20
   2   4 -19    9.80    3.70
  -2  -4  19    5.60    3.30
   1   4 -19  124.79    6.80
   1   4 -19  120.39    7.80
  -1  -4  19  120.49    7.30
   0   4 -19  139.69    8.50
   0  -4  19  140.39    7.30
  -1   4 -19  161.68    9.40
   1  -4  19  151.78    7.40
  -2   4 -19  161.78   10.00
   2  -4  19  159.38    7.80
   2   3 -19   13.90    3.60
   2   3 -19   26.60    4.70
  -2  -3  19   16.50    4.10
   1   3 -19   41.10    4.60
   1   3 -19   45.00    5.50
  -1  -3  19   39.00    5.00
   0   3 -19   58.59    6.20
   0  -3  19   54.59    5.10
  -1   3 -19   26.10    4.60
   1  -3  19   38.80    4.40
  -2   3 -19   94.29    7.60
   2  -3  19   86.29    6.10
   3   2 -19    2.90    4.00
   2   2 -19   73.69    6.60
   2   2 -19   67.99    5.90
  -2  -2  19   76.69    6.70
   1   2 -19  110.19    6.40
   1   2 -19  106.79    7.40
  -1  -2  19  115.29    7.10
   0   2 -19  316.97   12.20
   0  -2  19  310.57   10.90
  -1   2 -19    6.10    3.10
   1  -2  19    9.70    3.00
  -2   2 -19   78.49    7.00
   2  -2  19   73.39    5.80
   3   1 -19  141.09    9.60
   2   1 -19   96.69    6.90
   2   1 -19   93.09    7.10
  -2  -1  19  102.79    7.40
   1   1 -19   26.50    3.90
   1   1 -19   25.50    4.50
  -1  -1  19   30.40    4.40
   0   1 -19    2.70    3.00
   0  -1  19    5.00    2.60
  -1   1 -19   59.59    6.40
   1  -1  19   55.09    5.10
  -2   1 -19   70.59    6.70
   2  -1  19   68.69    5.80
   2  -1  19   89.19    6.50
   2   0 -19  232.28   10.40
   2   0 -19  233.58   10.10
  -2   0  19  213.58   10.20
   1   0 -19   52.19    5.10
   1   0 -19   65.49    6.50
  -1   0  19   52.29    5.40
   0   0 -19   90.99    6.70
   0   0  19   88.29    6.00
  -1   0 -19  488.05   15.10
   1   0  19  458.75   13.30
  -2   0 -19  284.87   11.50
   2   0  19  284.27   10.20
   2   0  19  308.67   11.30
   3   0  19   56.69    8.10
   2  -1 -19  214.88   10.10
   2  -1 -19  232.68   10.00
  -2   1  19  233.28   11.00
  -2   1  19  219.68   10.10
   1  -1 -19  166.58    8.70
   1  -1 -19  166.38    7.80
  -1   1  19  169.58    8.30
   0  -1 -19   31.00    5.00
   0   1  19   30.20    4.20
  -1  -1 -19    7.40    3.40
   1   1  19   14.20    3.30
  -2  -1 -19   24.90    4.30
   2   1  19   31.10    4.50
   2   1  19   35.60    4.50
   3   1  19  113.99    8.40
   2  -2 -19   52.59    6.10
   2  -2 -19   60.09    6.20
  -2   2  19   65.49    6.30
  -2   2  19   61.69    6.70
   1  -2 -19  183.98    8.30
   1  -2 -19  192.68    9.30
  -1   2  19  178.18    8.40
  -1   2  19  181.18    9.00
   0  -2 -19   79.29    6.50
   0   2  19   77.09    5.80
  -1  -2 -19  307.87   11.50
   1   2  19  312.97   10.50
   2   2  19  612.34   16.90
   2   2  19  597.64   16.20
   3   2  19  390.26   16.60
   2  -3 -19  130.49    8.40
   2  -3 -19  129.79    7.90
  -2   3  19  120.39    8.40
  -2   3  19  129.29    8.00
   1  -3 -19   79.79    5.90
   1  -3 -19   83.59    6.90
  -1   3  19   76.19    6.70
  -1   3  19   81.49    6.10
   0  -3 -19   77.29    6.60
   0   3  19   76.99    5.60
  -1  -3 -19  285.97   10.90
   1   3  19  295.67   12.50
   1   3  19  282.47    9.80
   2   3  19   12.00    3.50
   2   3  19    5.00    3.30
   2  -4 -19    9.80    4.00
   2  -4 -19   12.40    4.00
  -2   4  19   14.80    4.10
  -2   4  19   11.60    4.20
   1  -4 -19  211.38    9.20
   1  -4 -19  213.48   10.00
  -1   4  19  212.88    9.10
  -1   4  19  217.98    9.90
   0  -4 -19  502.25   15.40
   0   4  19  513.95   14.40
  -1  -4 -19  265.27   10.70
   1   4  19  277.77    9.80
   1   4  19  262.37    9.80
   2   4  19    1.10    3.10
   2   4  19    4.20    2.90
   2  -5 -19   34.50    5.20
  -2   5  19   43.80    7.10
   1  -5 -19   21.30    4.50
   1  -5 -19   24.10    4.10
  -1   5  19   19.70    4.50
  -1   5  19   30.90    4.30
   0  -5 -19    4.00    3.30
   0   5  19    7.40    2.90
  -1  -5 -19   39.70    5.10
   1   5  19   39.30    4.90
   1   5  19   40.50    4.50
   2   5  19  114.79    7.70
   2   5  19  119.19    6.90
   1  -6 -19   -3.90    3.20
   1  -6 -19   -2.10    2.60
  -1   6  19    1.90    3.40
   0  -6 -19    2.30    3.60
   0   6  19    3.70    2.70
  -1  -6 -19    1.50    3.10
   1   6  19   -2.70    3.20
   1   6  19   -2.40    2.40
   2   6  19   34.30    4.40
   2   6  19   22.70    5.20
   1  -7 -19  118.19    7.70
   1  -7 -19  117.79    8.30
  -1   7  19  126.79    8.50
   0  -7 -19  492.95   15.70
   1   7  19  245.88   10.50
   1   7  19  267.07    9.80
   2   7  19    6.20    4.30
   2   7  19   11.20    3.50
   1  -8 -19    2.80    3.50
  -1   8  19    5.40    7.00
   0  -8 -19   54.09    6.10
   1   8  19   12.80    4.10
   2   8  19   45.10    5.20
   0  -9 -19    2.50    3.80
   0   9  19   -0.30    5.90
   1   6 -20    6.70    2.90
   0  -6  20   15.80    3.80
   1   5 -20    0.50    3.00
   1   5 -20   -1.80    2.00
  -1  -5  20   -2.50    2.30
   0   5 -20   61.19    7.30
   0  -5  20   59.69    5.60
   1  -5  20  135.09    7.40
   2   4 -20   38.50    6.30
   1   4 -20    5.60    3.20
   1   4 -20    1.30    2.10
  -1  -4  20    3.10    2.90
   0   4 -20   43.50    5.60
   0  -4  20   62.19    5.60
  -1   4 -20   27.30    5.10
   1  -4  20   38.40    4.70
   2   3 -20   55.89    6.40
   2   3 -20   59.39    6.20
   1   3 -20  156.48    9.00
   1   3 -20  150.28    7.50
  -1  -3  20  151.68    8.30
   0   3 -20   22.90    4.60
   0  -3  20   26.60    4.20
  -1   3 -20   -2.10    2.80
   1  -3  20    2.10    2.70
  -2   3 -20   77.39   10.10
   2  -3  20  109.09    8.80
   2   2 -20    2.60    2.90
   2   2 -20    2.90    2.60
  -2  -2  20    3.50    3.20
   1   2 -20  154.18    8.90
   1   2 -20  135.79    7.20
  -1  -2  20  148.49    8.20
   0   2 -20  420.56   14.60
   0  -2  20  411.76   13.20
  -1   2 -20  370.06   13.80
   1  -2  20  369.96   12.20
  -2   2 -20   42.20    5.80
   2  -2  20   52.79    5.50
   2   1 -20    9.30    3.80
   2   1 -20    7.60    3.00
  -2  -1  20    7.50    3.50
   1   1 -20   51.99    6.10
   1   1 -20   43.80    4.70
  -1  -1  20   39.60    4.80
   0   1 -20  130.99    8.20
   0  -1  20  131.79    7.20
  -1   1 -20   88.89    7.00
   1  -1  20   97.69    6.50
  -2   1 -20   34.20    5.50
   2  -1  20   29.90    4.20
   2   0 -20   84.69    7.80
   2   0 -20   74.99    6.30
  -2   0  20   75.89    7.00
   1   0 -20   53.19    5.80
   1   0 -20   66.79    5.40
  -1   0  20   70.49    5.80
   0   0 -20  147.79    8.40
   0   0  20  139.99    7.50
  -1   0 -20  137.59    8.20
   1   0  20  140.49    7.30
  -2   0 -20  121.29    8.20
   2   0  20  117.09    7.20
   2  -1 -20  110.69    7.30
   2  -1 -20  108.19    7.90
  -2   1  20  106.49    7.70
   1  -1 -20   36.30    5.10
   1  -1 -20   46.90    5.00
  -1   1  20   44.20    5.20
   0  -1 -20   21.90    4.20
   0   1  20   27.70    4.30
  -1  -1 -20  108.89    7.40
   1   1  20   98.29    6.40
  -2  -1 -20   35.30    5.30
   2   1  20   43.50    5.00
   2   1  20   55.79    5.70
   2  -2 -20   14.80    4.10
   2  -2 -20   13.90    3.80
  -2   2  20   12.70    4.50
  -2   2  20   15.00    4.20
   1  -2 -20  189.38    8.70
   1  -2 -20  217.98   10.10
  -1   2  20  189.08    9.50
  -1   2  20  213.28    9.30
   0  -2 -20  286.97   11.40
   0   2  20  273.67   10.10
  -1  -2 -20   95.49    7.00
   1   2  20   99.49    6.50
   2   2  20    6.50    3.40
   2   2  20   13.00    3.40
   2  -3 -20    7.20    3.40
  -2   3  20    3.10    3.90
  -2   3  20    6.10    3.60
   1  -3 -20    0.50    2.60
   1  -3 -20    1.10    3.40
  -1   3  20    2.00    2.80
  -1   3  20   -0.50    3.00
   0  -3 -20   31.40    5.30
   0   3  20   36.20    4.70
  -1  -3 -20    0.00    2.80
   1   3  20   -0.20    2.50
   2   3  20  330.77   11.60
   2   3  20  354.16   12.20
   2  -4 -20   66.69   10.20
  -2   4  20   55.09    6.30
   1  -4 -20  145.49    7.90
   1  -4 -20  139.89    8.70
  -1   4  20  154.08    8.80
  -1   4  20  142.99    7.80
   0  -4 -20   20.50    4.30
   0   4  20   26.00    4.10
  -1  -4 -20  192.18    9.20
   1   4  20  182.58    8.30
   2   4  20   22.60    4.20
   2   4  20   21.30    4.60
   1  -5 -20  114.69    8.40
   1  -5 -20  120.19    7.50
  -1   5  20  115.49    7.40
  -1   5  20  120.39    8.40
   0  -5 -20   -1.70    3.00
   0   5  20    3.00    2.80
  -1  -5 -20   11.40    3.80
   1   5  20    5.30    3.10
   1   5  20    5.90    5.60
   2   5  20   -0.60    3.10
   2   5  20   -4.00    3.80
   1  -6 -20   72.59    6.60
   1  -6 -20   69.99    8.10
  -1   6  20   90.09    8.10
   0  -6 -20   20.50    4.50
   0   6  20   25.40    4.10
   1   6  20   55.99    5.90
   1   6  20   63.59    5.50
   2   6  20   55.69    6.40
   2   6  20   49.99    6.30
   1  -7 -20   98.69    7.70
  -1   7  20  110.29    8.60
   0  -7 -20   72.69    7.20
   1   7  20  139.89    8.50
   1   7  20  147.19    7.80
   0  -8 -20  167.18    9.60
   1   8  20  367.26   13.10
   1   4 -21  204.08   10.80
   0  -4  21   65.99    6.00
   1   3 -21  370.56   12.50
   1   3 -21  371.76   14.30
  -1  -3  21  362.66   14.30
   0   3 -21  411.66   14.90
   0  -3  21  390.26   13.30
  -1   3 -21  226.18   15.20
   1  -3  21  195.08    9.00
   1   2 -21   30.80    5.10
   1   2 -21   31.40    4.30
  -1  -2  21   24.30    4.20
   0   2 -21    8.60    3.50
   0  -2  21   -2.10    2.10
  -1   2 -21   83.49    7.30
   1  -2  21   71.99    6.10
   2   1 -21   66.89    9.20
   1   1 -21   38.90    4.70
   1   1 -21   44.70    6.10
  -1  -1  21   38.80    5.40
   0   1 -21   76.99    7.50
   0  -1  21   65.39    5.90
  -1   1 -21  149.79    8.90
   1  -1  21  137.59    7.70
  -2   1 -21  130.39    8.80
   2   0 -21   -1.60    2.70
   1   0 -21   16.00    4.50
   1   0 -21   14.30    3.30
  -1   0  21   12.70    3.80
   0   0 -21  214.88   10.30
   0   0  21  199.08    8.90
  -1   0 -21  188.68    9.80
   1   0  21  192.88    8.80
  -2   0 -21  290.47   12.40
   2  -1 -21    1.60    3.30
   1  -1 -21  223.08   10.70
   1  -1 -21  215.98    9.30
  -1   1  21  213.48    9.80
   0  -1 -21  154.08    8.90
   0   1  21  150.18    7.70
  -1  -1 -21    3.50    3.30
   1   1  21    5.00    3.30
  -2  -1 -21  104.69    8.10
   1  -2 -21  102.49    7.90
   1  -2 -21   84.69    6.30
  -1   2  21   85.49    8.90
  -1   2  21   85.29    6.80
   0  -2 -21   36.50    5.40
   0   2  21   43.40    5.10
  -1  -2 -21    3.40    3.10
   1   2  21    3.90    3.30
   1  -3 -21   56.19    5.70
   1  -3 -21   67.29    7.00
  -1   3  21   64.19    6.20
  -1   3  21   58.29    8.40
   0  -3 -21  101.99    7.80
   0   3  21   88.29    6.40
  -1  -3 -21   92.19    7.20
   1   3  21   89.39    6.20
   2   3  21   37.20    5.10
   1  -4 -21    5.00    4.10
   1  -4 -21   13.00    3.70
  -1   4  21   13.60    3.70
  -1   4  21   22.50    6.40
   0  -4 -21   61.29    6.40
   0   4  21   71.79    5.90
  -1  -4 -21    6.00    3.30
   1   4  21    2.80    3.20
   2   4  21   -2.70    3.40
   1  -5 -21  322.47   12.40
  -1   5  21  338.47   12.20
   0  -5 -21  194.98   10.10
   0   5  21  207.48    9.10
  -1  -5 -21   20.70    4.50
   1   5  21   14.50    3.80
   2   5  21   33.50    5.60
   1  -6 -21   82.89    6.90
   0  -6 -21  127.59    8.60
   0   6  21  121.09    7.50
   1   6  21    0.60    2.90
   1   7  21    0.50    3.20
   0   1 -22   34.30    5.90
   0  -1  22   23.30    4.90
  -1   1 -22   10.10    4.20
   0   0 -22   29.10    5.40
   0   0  22   28.40    4.60
  -1   0 -22    5.60    3.50
  -1   1  22  233.78   14.50
   0  -1 -22  179.48    9.90
   0   1  22  214.48    9.70
  -1  -1 -22   81.89    7.30
  -1   2  22    3.00    3.70
   0  -2 -22  189.08   10.20
   0   2  22  211.18    9.50
  -1  -2 -22   24.90    4.90
   1   2  22   27.30    7.70
  -1   3  22   54.49    6.80
   0  -3 -22   36.00    5.50
   0   3  22   36.60    5.10
  -1  -3 -22   20.80    4.50
   1   3  22   26.20    6.70
  -1   4  22    0.90    3.20
   0  -4 -22  200.98   10.60
   0   4  22  206.08    9.50
  -1  -4 -22  412.66   14.70
   0   5  22   73.29    6.40
  -1  -5 -22    4.80    3.60
   0   6  22   21.60    4.50

_computing_structure_solution     'SHELXT 2014/4 (Sheldrick, 2014)'
;
_shelx_hkl_checksum              1663
loop_
_space_group_symop_operation_xyz
'x, y, z'
'-x, -y, -z'
loop_
_atom_site_label
_atom_site_type_symbol
_atom_site_fract_x
_atom_site_fract_y
_atom_site_fract_z
_atom_site_U_iso_or_equiv
_atom_site_adp_type
_atom_site_occupancy
_atom_site_site_symmetry_order
_atom_site_calc_flag
_atom_site_refinement_flags_posn
_atom_site_refinement_flags_adp
P1 P 0.35860(10) 0.70224(4) 0.74682(2) 0.01112(8) Uani 1 1 d . .
S1 S 0.60596(10) 0.48446(4) 0.62706(2) 0.01651(9) Uani 1 1 d . .
S2 S 0.54621(10) 0.62708(4) 0.92864(2) 0.01529(9) Uani 1 1 d . .
S3 S 0.43887(10) 0.99413(4) 0.68431(2) 0.01735(9) Uani 1 1 d . .
C1 C 0.6257(4) 0.55354(14) 0.77821(9) 0.0116(3) Uani 1 1 d . .
C2 C 0.5638(4) 0.73920(15) 0.65418(8) 0.0121(3) Uani 1 1 d . .
C3 C 0.6076(4) 0.77765(14) 0.88561(9) 0.0134(3) Uani 1 1 d . .
C4 C 0.5293(4) 0.81223(14) 0.80772(9) 0.0123(3) Uani 1 1 d . .
C5 C 0.6010(4) 0.86436(15) 0.62957(9) 0.0142(3) Uani 1 1 d . .
C6 C 0.7097(4) 0.52466(14) 0.85630(9) 0.0126(3) Uani 1 1 d . .
C7 C 0.9306(4) 0.34718(15) 0.74950(10) 0.0170(3) Uani 1 1 d . .
H1 H 1.0063 0.2866 0.7129 0.020 Uiso 1 1 calc R U
C8 C 0.8056(4) 0.67296(16) 0.53075(9) 0.0178(3) Uani 1 1 d . .
H2 H 0.8728 0.6074 0.4968 0.021 Uiso 1 1 calc R U
C9 C 0.6703(4) 1.02242(15) 0.82738(10) 0.0180(3) Uani 1 1 d . .
H3 H 0.6949 1.1058 0.8071 0.022 Uiso 1 1 calc R U
C10 C 0.7350(4) 0.46227(14) 0.72518(9) 0.0135(3) Uani 1 1 d . .
C11 C 0.6678(4) 0.64393(15) 0.60357(9) 0.0140(3) Uani 1 1 d . .
C12 C 0.7149(4) 0.86372(16) 0.93385(9) 0.0177(3) Uani 1 1 d . .
H4 H 0.7685 0.8385 0.9866 0.021 Uiso 1 1 calc R U
C13 C 0.7464(4) 0.89286(16) 0.55772(9) 0.0178(3) Uani 1 1 d . .
H5 H 0.7783 0.9778 0.5427 0.021 Uiso 1 1 calc R U
C14 C 0.5609(4) 0.93627(14) 0.77950(9) 0.0137(3) Uani 1 1 d . .
C15 C 1.0140(4) 0.32172(15) 0.82730(10) 0.0187(3) Uani 1 1 d . .
H6 H 1.1464 0.2434 0.8439 0.022 Uiso 1 1 calc R U
C16 C 0.9051(4) 0.41000(15) 0.88096(9) 0.0160(3) Uani 1 1 d . .
H7 H 0.9631 0.3925 0.9342 0.019 Uiso 1 1 calc R U
C17 C 0.7430(4) 0.98628(16) 0.90455(10) 0.0200(3) Uani 1 1 d . .
H8 H 0.8122 1.0455 0.9375 0.024 Uiso 1 1 calc R U
C18 C 0.8442(4) 0.79718(17) 0.50817(9) 0.0202(3) Uani 1 1 d . .
H9 H 0.9378 0.8169 0.4587 0.024 Uiso 1 1 calc R U
loop_
_atom_site_aniso_label
_atom_site_aniso_U_11
_atom_site_aniso_U_22
_atom_site_aniso_U_33
_atom_site_aniso_U_23
_atom_site_aniso_U_13
_atom_site_aniso_U_12
P1 0.00905(17) 0.01283(18) 0.01159(18) -0.00090(14) -0.00009(14) -0.00187(14)
S1 0.0201(2) 0.01690(19) 0.01395(18) -0.00457(14) -0.00053(15) -0.00565(15)
S2 0.01829(19) 0.01667(19) 0.01096(17) -0.00025(14) 0.00233(14) -0.00323(14)
S3 0.0194(2) 0.01289(18) 0.01837(19) 0.00168(14) -0.00135(15) 0.00131(14)
C1 0.0088(6) 0.0116(7) 0.0146(7) 0.0006(5) 0.0002(5) -0.0034(5)
C2 0.0089(7) 0.0165(7) 0.0108(7) 0.0007(5) -0.0022(5) -0.0015(5)
C3 0.0111(7) 0.0141(7) 0.0148(7) -0.0020(6) 0.0023(6) -0.0007(5)
C4 0.0083(7) 0.0135(7) 0.0149(7) -0.0030(6) 0.0015(5) 0.0000(5)
C5 0.0113(7) 0.0166(7) 0.0140(7) 0.0000(6) -0.0026(6) -0.0004(6)
C6 0.0113(7) 0.0125(7) 0.0149(7) -0.0016(6) 0.0021(6) -0.0042(5)
C7 0.0172(8) 0.0124(7) 0.0219(8) -0.0031(6) 0.0029(6) -0.0035(6)
C8 0.0177(8) 0.0238(8) 0.0116(7) -0.0024(6) -0.0013(6) -0.0011(6)
C9 0.0159(8) 0.0138(7) 0.0245(8) -0.0040(6) 0.0027(6) -0.0021(6)
C10 0.0130(7) 0.0141(7) 0.0144(7) -0.0017(6) 0.0015(6) -0.0057(6)
C11 0.0118(7) 0.0175(7) 0.0130(7) -0.0005(6) -0.0031(6) -0.0027(6)
C12 0.0170(8) 0.0214(8) 0.0148(7) -0.0053(6) -0.0005(6) -0.0012(6)
C13 0.0161(8) 0.0195(8) 0.0169(8) 0.0061(6) -0.0026(6) -0.0033(6)
C14 0.0106(7) 0.0142(7) 0.0157(7) -0.0016(6) 0.0011(6) 0.0000(5)
C15 0.0161(8) 0.0132(7) 0.0258(8) 0.0031(6) -0.0010(6) -0.0013(6)
C16 0.0153(7) 0.0164(8) 0.0163(7) 0.0032(6) -0.0009(6) -0.0044(6)
C17 0.0197(8) 0.0194(8) 0.0222(8) -0.0109(7) 0.0006(7) -0.0032(6)
C18 0.0192(8) 0.0282(9) 0.0123(7) 0.0045(6) 0.0001(6) -0.0036(7)
loop_
_atom_type_symbol
_atom_type_description
_atom_type_scat_dispersion_real
_atom_type_scat_dispersion_imag
_atom_type_scat_source
C C 0.0033 0.0016 'International Tables Vol C Tables 4.2.6.8 and 6.1.1.4'
H H 0.0000 0.0000 'International Tables Vol C Tables 4.2.6.8 and 6.1.1.4'
P P 0.1023 0.0942 'International Tables Vol C Tables 4.2.6.8 and 6.1.1.4'
S S 0.1246 0.1234 'International Tables Vol C Tables 4.2.6.8 and 6.1.1.4'
loop_
_geom_angle_atom_site_label_1
_geom_angle_atom_site_label_2
_geom_angle_atom_site_label_3
_geom_angle
C2 P1 C1 99.91(7)
C2 P1 C4 100.20(7)
C1 P1 C4 100.08(7)
C10 S1 C11 101.75(7)
C3 S2 C6 101.91(7)
C14 S3 C5 101.98(7)
C6 C1 C10 118.11(14)
C6 C1 P1 121.00(11)
C10 C1 P1 120.78(12)
C11 C2 C5 118.00(14)
C11 C2 P1 120.75(12)
C5 C2 P1 121.11(11)
C12 C3 C4 121.23(14)
C12 C3 S2 117.27(12)
C4 C3 S2 121.36(12)
C3 C4 C14 117.91(14)
C3 C4 P1 120.80(12)
C14 C4 P1 121.12(12)
C13 C5 C2 121.03(14)
C13 C5 S3 116.96(12)
C2 C5 S3 121.84(12)
C16 C6 C1 121.34(14)
C16 C6 S2 117.36(12)
C1 C6 S2 121.15(11)
C15 C7 C10 119.79(15)
C18 C8 C11 119.98(15)
C17 C9 C14 119.92(15)
C7 C10 C1 120.82(14)
C7 C10 S1 117.96(12)
C1 C10 S1 121.08(12)
C8 C11 C2 120.94(15)
C8 C11 S1 117.73(12)
C2 C11 S1 121.22(12)
C17 C12 C3 119.74(15)
C18 C13 C5 119.96(15)
C9 C14 C4 121.07(15)
C9 C14 S3 116.96(12)
C4 C14 S3 121.85(12)
C16 C15 C7 120.37(15)
C15 C16 C6 119.54(15)
C9 C17 C12 120.12(15)
C8 C18 C13 120.04(15)
loop_
_geom_bond_atom_site_label_1
_geom_bond_atom_site_label_2
_geom_bond_distance
P1 C2 1.8298(15)
P1 C1 1.8310(15)
P1 C4 1.8336(16)
S1 C10 1.7686(16)
S1 C11 1.7703(16)
S2 C3 1.7687(16)
S2 C6 1.7708(15)
S3 C14 1.7658(16)
S3 C5 1.7689(16)
C1 C6 1.397(2)
C1 C10 1.401(2)
C2 C11 1.399(2)
C2 C5 1.399(2)
C3 C12 1.395(2)
C3 C4 1.398(2)
C4 C14 1.399(2)
C5 C13 1.394(2)
C6 C16 1.395(2)
C7 C15 1.388(2)
C7 C10 1.398(2)
C8 C18 1.383(2)
C8 C11 1.397(2)
C9 C17 1.385(2)
C9 C14 1.395(2)
C12 C17 1.387(2)
C13 C18 1.386(2)
C15 C16 1.387(2)
