#------------------------------------------------------------------------------
#$Date: 2016-03-04 10:37:22 +0200 (Fri, 04 Mar 2016) $
#$Revision: 177348 $
#$URL: svn://www.crystallography.net/cod/cif/1/54/26/1542699.cif $
#------------------------------------------------------------------------------
#
# This file is available in the Crystallography Open Database (COD),
# http://www.crystallography.net/
#
# All data on this site have been placed in the public domain by the
# contributors.
#
data_1542699
loop_
_publ_author_name
'Wang, Yi-Feng'
'Hu, Ming'
'Hayashi, Hirohito'
'Xing, Bengang'
'Chiba, Shunsuke'
_publ_contact_author
;
Dr Shunsuke Chiba
Division of Chemistry and Biological Chemistry
School of Physical and Mathematical Sciences
Nanyang Technological University
21 Nanyang Link
Singapore 637371
Singapore
;
_publ_section_title
;
 Linking of Alcohols with Vinyl Azides.
;
_journal_issue                   5
_journal_name_full               'Organic letters'
_journal_page_first              992
_journal_paper_doi               10.1021/acs.orglett.6b00116
_journal_volume                  18
_journal_year                    2016
_chemical_formula_sum            'C17 H16 F N O'
_chemical_formula_weight         269.31
_space_group_crystal_system      triclinic
_space_group_IT_number           2
_space_group_name_Hall           '-P 1'
_space_group_name_H-M_alt        'P -1'
_symmetry_space_group_name_Hall  '-P 1'
_symmetry_space_group_name_H-M   'P -1'
_atom_sites_solution_hydrogens   geom
_cell_angle_alpha                102.644(3)
_cell_angle_beta                 93.799(3)
_cell_angle_gamma                96.078(3)
_cell_formula_units_Z            2
_cell_length_a                   5.5492(5)
_cell_length_b                   10.9097(11)
_cell_length_c                   11.6094(12)
_cell_measurement_reflns_used    2619
_cell_measurement_temperature    103.(2)
_cell_measurement_theta_max      29.5184
_cell_measurement_theta_min      3.6126
_cell_volume                     679.03(12)
_computing_cell_refinement       'SAINT V8.34A (Bruker AXS Inc., 2013)'
_computing_data_reduction        'SAINT V8.34A (Bruker AXS Inc., 2013)'
_computing_structure_refinement  'SHELXL-2014 (Sheldrick, 2014)'
_diffrn_ambient_temperature      103.(2)
_diffrn_detector_area_resol_mean 8.3333
_diffrn_measured_fraction_theta_full 0.994
_diffrn_measured_fraction_theta_max 0.994
_diffrn_radiation_wavelength     0.71073
_diffrn_reflns_av_R_equivalents  0.0553
_diffrn_reflns_av_unetI/netI     0.0604
_diffrn_reflns_limit_h_max       8
_diffrn_reflns_limit_h_min       -8
_diffrn_reflns_limit_k_max       15
_diffrn_reflns_limit_k_min       -15
_diffrn_reflns_limit_l_max       16
_diffrn_reflns_limit_l_min       -16
_diffrn_reflns_number            14751
_diffrn_reflns_theta_full        31.00
_diffrn_reflns_theta_max         31.00
_diffrn_reflns_theta_min         2.93
_exptl_absorpt_coefficient_mu    0.091
_exptl_absorpt_correction_T_max  0.97
_exptl_absorpt_correction_T_min  0.89
_exptl_absorpt_correction_type   multi-scan
_exptl_absorpt_process_details   'SADABS V2014/2 (Bruker AXS Inc.)'
_exptl_crystal_colour            colourless
_exptl_crystal_density_diffrn    1.317
_exptl_crystal_density_method    'not measured'
_exptl_crystal_description       block
_exptl_crystal_F_000             284
_exptl_crystal_size_max          0.420
_exptl_crystal_size_mid          0.400
_exptl_crystal_size_min          0.380
_refine_diff_density_max         0.382
_refine_diff_density_min         -0.379
_refine_ls_extinction_method     none
_refine_ls_goodness_of_fit_ref   1.045
_refine_ls_hydrogen_treatment    constr
_refine_ls_matrix_type           full
_refine_ls_number_parameters     181
_refine_ls_number_reflns         4293
_refine_ls_number_restraints     0
_refine_ls_restrained_S_all      1.045
_refine_ls_R_factor_all          0.0756
_refine_ls_R_factor_gt           0.0518
_refine_ls_shift/su_max          0.000
_refine_ls_shift/su_mean         0.000
_refine_ls_structure_factor_coef Fsqd
_refine_ls_weighting_details
'w=1/[\s^2^(Fo^2^)+(0.0631P)^2^+0.1341P] where P=(Fo^2^+2Fc^2^)/3'
_refine_ls_weighting_scheme      calc
_refine_ls_wR_factor_gt          0.1228
_refine_ls_wR_factor_ref         0.1380
_reflns_number_gt                3136
_reflns_number_total             4293
_reflns_threshold_expression     'I > 2\s(I)'
_cod_data_source_file            ol6b00116_si_002.cif
_cod_data_source_block           I
_cod_database_code               1542699
_shelx_res_file
;
TITL chiba269s in P-1
CELL 0.71073   5.54920  10.90970  11.60940 102.6438  93.7991  96.0780
ZERR    2.00   0.00050   0.00110   0.00120   0.0030   0.0030   0.0031
LATT 1
SFAC C  H  N  O  F
UNIT 34  32  2  2  2
omit 0   1   0
omit 0  -1   1
omit 0   0   1
L.S. 4
ACTA
BOND
FMAP 2
PLAN 5
SIZE 0.38 0.40 0.42
TEMP -170
WGHT    0.063100    0.134100
FVAR       0.39887
MOLE 1
C1    1   -0.025602    0.653097   -0.200611    11.00000    0.01776    0.01618 =
         0.01699    0.00231   -0.00225    0.00193
AFIX  43
H1    2   -0.156210    0.696409   -0.220873    11.00000   -1.20000
AFIX   0
C2    1   -0.025908    0.525552   -0.253572    11.00000    0.02728    0.01759 =
         0.01774   -0.00067   -0.00481   -0.00257
AFIX  43
H2    2   -0.156994    0.482192   -0.309320    11.00000   -1.20000
AFIX   0
C3    1    0.164398    0.461733   -0.225190    11.00000    0.03620    0.01163 =
         0.01376    0.00053    0.00521    0.00331
AFIX  43
H3    2    0.164582    0.374819   -0.261585    11.00000   -1.20000
AFIX   0
C4    1    0.354030    0.525225   -0.143613    11.00000    0.02941    0.02026 =
         0.02248    0.00360    0.00057    0.01273
AFIX  43
H4    2    0.485237    0.481872   -0.124192    11.00000   -1.20000
AFIX   0
C5    1    0.353545    0.652295   -0.089853    11.00000    0.01924    0.01812 =
         0.02136   -0.00046   -0.00654    0.00425
AFIX  43
H5    2    0.483590    0.694975   -0.033161    11.00000   -1.20000
AFIX   0
C6    1    0.163895    0.717456   -0.118484    11.00000    0.01615    0.01137 =
         0.00936    0.00236    0.00199    0.00101
C7    1    0.167033    0.857000   -0.061267    11.00000    0.02345    0.01055 =
         0.01111    0.00099   -0.00029    0.00220
AFIX  23
H7A   2    0.314887    0.905024   -0.080292    11.00000   -1.20000
H7B   2    0.023655    0.888538   -0.094963    11.00000   -1.20000
AFIX   0
C8    1    0.163709    0.880641    0.070863    11.00000    0.01514    0.00783 =
         0.01227    0.00092    0.00099    0.00327
C9    1   -0.049656    0.834167    0.129473    11.00000    0.01361    0.01300 =
         0.01214   -0.00002   -0.00142   -0.00049
AFIX  23
H9A   2   -0.199539    0.866949    0.104508    11.00000   -1.20000
H9B   2   -0.077607    0.740509    0.110786    11.00000   -1.20000
AFIX   0
C10   1    0.270786    0.943081    0.263833    11.00000    0.00953    0.01165 =
         0.01082    0.00148    0.00146    0.00038
C11   1    0.432617    0.865718    0.323285    11.00000    0.01674    0.01239 =
         0.01526    0.00177    0.00026    0.00367
AFIX  23
H11A  2    0.604154    0.904650    0.331580    11.00000   -1.20000
H11B  2    0.382998    0.864695    0.403457    11.00000   -1.20000
AFIX   0
C12   1    0.296043    1.077469    0.339235    11.00000    0.01086    0.01184 =
         0.00915    0.00232   -0.00081    0.00227
C13   1    0.502265    1.161985    0.336311    11.00000    0.01230    0.01396 =
         0.01262    0.00240    0.00191    0.00112
AFIX  43
H13   2    0.624384    1.135638    0.286054    11.00000   -1.20000
AFIX   0
C14   1    0.529668    1.284528    0.406628    11.00000    0.01564    0.01365 =
         0.01524    0.00329    0.00054   -0.00144
AFIX  43
H14   2    0.668967    1.341885    0.403337    11.00000   -1.20000
AFIX   0
C15   1    0.353079    1.322969    0.481695    11.00000    0.01997    0.01190 =
         0.01337    0.00037   -0.00139    0.00267
AFIX  43
H15   2    0.372324    1.406241    0.530337    11.00000   -1.20000
AFIX   0
C16   1    0.148213    1.239001    0.485257    11.00000    0.01539    0.01717 =
         0.01336    0.00066    0.00262    0.00458
AFIX  43
H16   2    0.027601    1.265179    0.536516    11.00000   -1.20000
AFIX   0
C17   1    0.118855    1.116830    0.414160    11.00000    0.01114    0.01441 =
         0.01283    0.00233    0.00073    0.00117
AFIX  43
H17   2   -0.022030    1.060188    0.416668    11.00000   -1.20000
AFIX   0
F1    5    0.411058    0.742275    0.254631    11.00000    0.03235    0.01129 =
         0.02792   -0.00026   -0.00347    0.00686
N1    3    0.340233    0.941471    0.143953    11.00000    0.01387    0.01152 =
         0.01063    0.00103    0.00257    0.00256
O1    4    0.022264    0.884094    0.252852    11.00000    0.01083    0.01685 =
         0.01201   -0.00059    0.00156   -0.00325
HKLF 4

REM  chiba269s in P-1
REM R1 =  0.0518 for    3136 Fo > 4sig(Fo)  and  0.0756 for all    4293 data
REM    181 parameters refined using      0 restraints

END

WGHT      0.0630      0.1322

REM Highest difference peak  0.382,  deepest hole -0.379,  1-sigma level  0.078
Q1    1   0.3516  0.9088  0.2907  11.00000  0.05    0.38
Q2    1   0.2752  1.0144  0.3011  11.00000  0.05    0.34
Q3    1   0.0546  0.8581  0.0997  11.00000  0.05    0.32
Q4    1   0.3728  1.1397  0.3321  11.00000  0.05    0.31
Q5    1   0.5010  1.2227  0.3738  11.00000  0.05    0.31
;
_shelx_res_checksum              10533
_shelx_hkl_file
;
  -1   0   0    4.83    0.36
   1   0   0    3.26    0.26
   1   0   0    4.73    0.35
  -2   0   0   58.98    2.63
  -2   0   0   62.09    2.69
  -2   0   0   58.20    2.76
  -2   0   0   61.31    2.79
   2   0   0   66.72    2.81
   2   0   0   61.26    2.79
   2   0   0   61.15    2.62
   2   0   0   58.36    2.67
  -3   0   0   14.87    1.15
  -3   0   0   15.68    1.00
  -3   0   0   14.87    1.02
   3   0   0   15.13    1.16
   3   0   0   14.07    1.02
   3   0   0   16.53    1.00
  -4   0   0    7.80    1.05
  -4   0   0    8.35    0.89
   4   0   0   10.48    1.00
   4   0   0    8.17    1.08
   4   0   0    9.60    0.99
  -5   0   0    4.36    0.73
  -5   0   0    1.96    0.76
   5   0   0    2.44    0.77
   5   0   0    3.78    0.75
   5   0   0    4.21    1.05
  -6   0   0   47.72    3.24
  -6   0   0   45.32    3.41
   6   0   0   48.42    3.43
   6   0   0   49.64    2.84
  -7   0   0    5.14    1.51
  -7   0   0    6.88    1.50
   7   0   0    5.43    1.50
  -8   1   0    0.73    0.93
   7  -1   0    0.69    0.98
  -7   1   0    2.52    1.13
  -7   1   0    1.91    0.94
   6  -1   0    0.68    0.75
  -6   1   0    0.08    0.56
  -6   1   0    0.28    0.65
   5  -1   0    9.34    1.07
   5  -1   0    9.91    1.41
  -5   1   0    7.07    1.24
  -5   1   0    9.65    1.46
   4  -1   0   78.58    3.71
   4  -1   0   80.77    4.01
   4  -1   0   78.55    4.08
   4  -1   0   81.84    3.63
  -4   1   0   78.82    3.63
  -4   1   0   78.91    4.03
  -4   1   0   84.32    4.00
   3  -1   0   10.54    0.84
   3  -1   0   12.42    0.83
   3  -1   0   11.22    1.08
  -3   1   0   13.17    0.86
  -3   1   0   11.75    0.86
   2  -1   0   74.75    3.07
   2  -1   0   76.48    3.28
   2  -1   0   69.80    3.19
   2  -1   0   72.55    3.10
  -2   1   0   72.01    3.27
  -2   1   0   70.83    3.06
  -2   1   0   71.13    3.09
  -2   1   0   72.49    3.20
   1  -1   0   38.61    1.74
   1  -1   0   45.13    1.78
  -1   1   0   37.46    1.73
  -1   1   0   44.37    1.88
   0  -1   0   -0.07    0.02
   0  -1   0   -0.08    0.01
   0  -1   0   -0.05    0.02
   0   1   0   -0.08    0.02
  -1  -1   0   61.94    2.58
  -1  -1   0   61.42    2.60
   1   1   0   67.72    2.66
   1   1   0   62.20    2.63
   1   1   0   56.56    2.58
  -2  -1   0  178.98    6.85
  -2  -1   0  160.31    6.74
  -2  -1   0  157.64    6.66
  -2  -1   0  168.06    6.75
   2   1   0  172.00    6.75
   2   1   0  156.87    6.73
   2   1   0  165.14    6.81
  -3  -1   0    8.19    0.90
  -3  -1   0    7.47    0.83
  -3  -1   0    6.07    0.70
   3   1   0    7.96    0.85
   3   1   0    6.49    0.85
  -4  -1   0   18.34    1.26
  -4  -1   0   17.74    1.40
   4   1   0   16.85    1.30
   4   1   0   14.71    1.54
  -5  -1   0    7.44    0.95
  -5  -1   0    6.96    1.11
   5   1   0    5.24    0.93
   5   1   0    6.29    1.10
  -6  -1   0    0.63    0.59
   6   1   0    0.02    0.64
   6   1   0    0.46    0.56
   6   1   0    0.05    0.72
  -7  -1   0   13.10    2.17
  -7  -1   0   15.48    2.18
   7   1   0   13.61    2.20
   8  -2   0    2.79    1.21
  -8   2   0    4.25    1.50
  -8   2   0    3.00    1.40
   7  -2   0    4.72    1.23
  -7   2   0    3.32    1.26
  -7   2   0    3.97    1.39
   6  -2   0    4.57    1.20
   6  -2   0    6.43    0.98
  -6   2   0    4.86    1.14
  -6   2   0    4.61    1.20
   5  -2   0    4.92    0.99
   5  -2   0    6.04    0.86
  -5   2   0    4.38    0.93
  -5   2   0    4.71    1.08
   4  -2   0   17.49    1.18
   4  -2   0   17.03    1.43
  -4   2   0   17.94    1.49
  -4   2   0   17.80    1.49
  -4   2   0   19.01    1.27
   3  -2   0   55.59    2.65
   3  -2   0   57.84    2.91
  -3   2   0   57.34    2.97
  -3   2   0   64.14    2.75
  -3   2   0   54.91    2.90
   2  -2   0   97.13    4.00
   2  -2   0   96.32    4.22
   2  -2   0   93.59    4.02
   2  -2   0   92.42    4.08
  -2   2   0   97.09    4.00
  -2   2   0   97.01    4.14
  -2   2   0   92.25    4.20
  -2   2   0   98.26    4.08
   1  -2   0    1.48    0.21
   1  -2   0    0.72    0.22
   1  -2   0    1.22    0.24
   1  -2   0    1.60    0.24
  -1   2   0    1.12    0.22
  -1   2   0    1.16    0.19
  -1   2   0    1.21    0.26
   0  -2   0   46.78    2.10
   0   2   0   49.52    1.99
  -1  -2   0  128.00    5.59
  -1  -2   0  141.79    5.48
  -1  -2   0  140.10    5.51
  -1  -2   0  135.21    5.64
   1   2   0  145.12    5.47
   1   2   0  134.92    5.51
   1   2   0  145.03    5.73
   1   2   0  138.03    5.62
   1   2   0  141.84    5.64
  -2  -2   0   52.69    2.50
  -2  -2   0   54.20    2.40
  -2  -2   0   51.36    2.47
   2   2   0   52.67    2.36
   2   2   0   51.87    2.56
   2   2   0   57.67    2.52
   2   2   0   51.88    2.55
  -3  -2   0   75.54    3.62
  -3  -2   0   77.23    3.57
   3   2   0   78.15    3.73
   3   2   0   77.81    3.68
  -4  -2   0   -0.14    0.25
  -4  -2   0    0.53    0.36
   4   2   0    0.24    0.37
   4   2   0    0.28    0.36
  -5  -2   0    0.30    0.48
  -5  -2   0   -0.17    0.38
   5   2   0    0.79    0.53
   5   2   0    1.08    0.57
  -6  -2   0    2.44    0.86
   6   2   0    3.43    1.13
   6   2   0    2.58    1.06
   6   2   0    3.34    0.88
  -7  -2   0    7.33    1.73
  -7  -2   0    8.20    1.68
   7   2   0    7.52    1.75
  -8   3   0   -0.31    0.99
   7  -3   0    4.37    1.36
  -7   3   0    2.52    1.17
  -7   3   0    5.07    1.39
   6  -3   0    6.43    1.00
   6  -3   0    6.25    1.22
  -6   3   0    4.97    1.23
  -6   3   0    5.22    1.27
   5  -3   0    0.89    0.54
   5  -3   0    1.40    0.52
  -5   3   0    0.86    0.69
  -5   3   0    0.27    0.63
   4  -3   0   13.98    1.47
   4  -3   0   18.60    1.21
   4  -3   0   16.65    1.26
  -4   3   0   15.11    1.60
  -4   3   0   18.17    1.26
  -4   3   0   18.11    1.49
   3  -3   0   86.38    3.88
   3  -3   0   90.15    4.04
   3  -3   0   88.15    3.93
  -3   3   0   87.15    4.09
  -3   3   0   90.91    3.90
  -3   3   0   83.57    4.18
   2  -3   0   51.60    2.48
   2  -3   0   51.78    2.44
  -2   3   0   55.20    2.51
  -2   3   0   51.42    2.64
  -2   3   0   57.14    2.49
   1  -3   0  161.94    6.79
   1  -3   0  165.33    6.62
   1  -3   0  170.72    6.70
   1  -3   0  173.50    6.90
  -1   3   0  170.54    6.82
  -1   3   0  168.39    6.63
  -1   3   0  166.29    6.86
   0  -3   0  114.99    4.76
   0  -3   0  114.15    4.69
   0  -3   0  121.14    4.90
   0  -3   0  122.98    4.82
   0   3   0  115.27    4.79
   0   3   0  119.55    4.90
   0   3   0  116.68    4.70
  -1  -3   0   43.35    2.10
  -1  -3   0   41.61    1.86
  -1  -3   0   41.41    2.00
  -1  -3   0   42.88    1.94
   1   3   0   43.89    2.01
   1   3   0   43.34    2.09
   1   3   0   44.58    1.88
   1   3   0   43.96    1.94
  -2  -3   0   41.08    1.98
  -2  -3   0   38.53    1.85
  -2  -3   0   35.10    2.01
   2   3   0   36.31    2.08
   2   3   0   45.77    2.33
   2   3   0   38.87    1.79
   2   3   0   35.93    2.00
  -3  -3   0   13.49    1.09
  -3  -3   0   12.97    1.05
   3   3   0   12.95    0.91
   3   3   0   11.48    1.23
   3   3   0   11.60    1.24
  -4  -3   0    3.48    0.74
  -4  -3   0    3.21    0.67
   4   3   0    3.46    0.75
   4   3   0    1.89    0.61
  -5  -3   0    7.10    1.18
  -5  -3   0    7.87    1.16
   5   3   0    7.59    1.26
   5   3   0    7.22    1.18
  -6  -3   0    1.41    0.76
   6   3   0    1.05    0.66
   6   3   0    1.31    0.90
  -7  -3   0    1.76    0.97
   7   3   0   -0.08    0.60
   7   3   0    2.19    0.97
   7  -4   0    3.24    1.23
  -7   4   0    2.02    1.02
  -7   4   0    1.58    1.09
   6  -4   0    4.66    1.16
   6  -4   0    4.33    0.84
  -6   4   0    3.86    1.07
  -6   4   0    2.89    1.05
   5  -4   0    0.24    0.58
   5  -4   0    0.26    0.40
  -5   4   0    0.38    0.50
  -5   4   0    0.06    0.56
   4  -4   0    2.90    0.68
   4  -4   0    2.18    0.56
  -4   4   0    2.60    0.63
  -4   4   0    2.58    0.78
   3  -4   0   16.93    1.20
   3  -4   0   20.09    1.26
   3  -4   0   15.48    1.16
  -3   4   0   15.19    1.21
  -3   4   0   16.95    1.42
  -3   4   0   17.64    1.16
   2  -4   0   22.79    1.30
   2  -4   0   24.12    1.39
   2  -4   0   24.80    1.45
  -2   4   0   26.55    1.50
  -2   4   0   25.39    1.35
  -2   4   0   23.74    1.55
   1  -4   0  166.04    6.96
   1  -4   0  174.52    7.04
   1  -4   0  163.18    6.67
  -1   4   0  167.00    6.99
  -1   4   0  169.16    6.68
  -1   4   0  174.62    7.00
   0  -4   0   58.37    2.78
   0  -4   0   59.68    2.64
   0  -4   0   60.36    2.70
   0   4   0   59.86    2.80
   0   4   0   58.01    2.55
   0   4   0   60.71    2.68
  -1  -4   0    1.86    0.33
  -1  -4   0    1.13    0.33
  -1  -4   0    1.72    0.35
  -1  -4   0    1.11    0.23
   1   4   0    1.26    0.28
   1   4   0    1.52    0.34
   1   4   0    1.61    0.28
  -2  -4   0    0.10    0.19
  -2  -4   0    0.00    0.25
   2   4   0    0.73    0.37
   2   4   0    0.45    0.27
   2   4   0    0.20    0.17
  -3  -4   0    1.72    0.46
  -3  -4   0    2.73    0.65
   3   4   0    1.60    0.56
   3   4   0    2.69    0.45
   3   4   0    2.25    0.64
  -4  -4   0    3.79    0.78
  -4  -4   0    2.29    0.65
   4   4   0    3.63    0.79
   4   4   0    2.77    0.78
  -5  -4   0   -0.14    0.50
  -5  -4   0    0.59    0.53
   5   4   0   -0.81    0.39
   5   4   0    1.07    0.67
  -6  -4   0    0.38    0.63
   6   4   0    1.93    0.85
   6   4   0    1.48    0.93
   7   4   0   -0.10    0.95
   7   4   0    2.30    1.29
   7  -5   0    0.58    0.91
  -7   5   0    0.50    0.59
  -7   5   0   -0.53    0.61
   6  -5   0   22.48    1.75
   6  -5   0   18.32    2.09
  -6   5   0   17.93    2.25
  -6   5   0   18.13    2.16
   5  -5   0   10.48    1.23
   5  -5   0    9.11    1.31
  -5   5   0   10.27    1.46
  -5   5   0   11.80    1.67
   4  -5   0    4.49    0.79
  -4   5   0    4.59    0.95
  -4   5   0    3.78    0.75
   3  -5   0   10.45    1.11
   3  -5   0   14.06    1.03
  -3   5   0   13.66    1.44
   2  -5   0   41.49    2.37
   2  -5   0   45.98    2.18
   2  -5   0   51.16    2.35
  -2   5   0   49.90    2.25
  -2   5   0   43.35    2.50
   1  -5   0    4.90    0.66
  -1   5   0    3.97    0.63
  -1   5   0    4.52    0.44
   0  -5   0  536.13   21.61
   0  -5   0  617.95   21.86
   0  -5   0  525.17   21.81
   0   5   0  550.98   21.51
   0   5   0  552.95   21.68
  -1  -5   0    0.18    0.21
  -1  -5   0    0.75    0.23
  -1  -5   0    0.14    0.20
  -1  -5   0    0.73    0.35
   1   5   0    0.21    0.19
   1   5   0    0.29    0.17
   1   5   0    0.56    0.26
  -2  -5   0   53.96    2.88
  -2  -5   0   58.82    2.64
   2   5   0   51.92    2.97
   2   5   0   49.37    2.73
   2   5   0   56.31    2.61
   2   5   0   57.06    2.49
  -3  -5   0   -0.43    0.22
  -3  -5   0   -0.32    0.29
   3   5   0   -0.13    0.18
   3   5   0   -0.34    0.33
   3   5   0   -0.29    0.34
  -4  -5   0   16.71    1.73
  -4  -5   0   19.18    1.52
   4   5   0   16.50    1.87
   4   5   0   16.32    1.77
  -5  -5   0    0.90    0.63
  -5  -5   0    1.72    0.69
   5   5   0   -0.54    0.60
   5   5   0    0.21    0.62
  -6  -5   0    1.72    0.89
   6   5   0    2.73    1.02
   6   5   0    2.55    1.01
   7   5   0    6.96    1.79
   7   5   0    6.50    1.64
   7  -6   0    0.79    0.90
  -7   6   0    2.19    1.08
  -7   6   0    1.17    1.09
   6  -6   0    4.27    0.92
   6  -6   0    3.92    1.04
  -6   6   0    3.70    1.14
  -6   6   0    4.39    1.18
   5  -6   0    2.95    0.76
   5  -6   0    5.02    0.96
  -5   6   0    2.76    0.89
   4  -6   0   11.74    1.30
   4  -6   0   13.73    1.33
  -4   6   0    9.61    1.46
   3  -6   0   25.03    1.68
   3  -6   0   24.55    1.52
  -3   6   0   25.81    1.93
   2  -6   0   33.23    1.72
   2  -6   0   34.22    2.04
   2  -6   0   34.81    1.88
  -2   6   0   34.32    2.13
  -2   6   0   36.48    1.79
   1  -6   0   12.36    1.18
   1  -6   0    9.15    0.99
  -1   6   0    8.43    0.98
  -1   6   0   10.29    0.71
  -1   6   0   10.08    0.68
   0  -6   0    0.08    0.30
   0  -6   0    0.12    0.20
   0   6   0    0.04    0.17
   0   6   0    0.08    0.23
   0   6   0   -0.05    0.15
  -1  -6   0   -0.25    0.25
  -1  -6   0    0.11    0.17
   1   6   0    0.23    0.26
   1   6   0    0.07    0.18
  -2  -6   0    8.43    1.13
  -2  -6   0    8.00    0.69
   2   6   0   11.05    0.76
   2   6   0    7.45    1.11
   2   6   0    8.74    0.87
   2   6   0    8.33    1.00
  -3  -6   0    2.07    0.73
  -3  -6   0    1.91    0.55
   3   6   0    3.08    0.81
   3   6   0    3.08    0.48
   3   6   0    1.66    0.57
  -4  -6   0   36.08    2.28
  -4  -6   0   31.73    2.39
   4   6   0   35.33    2.61
   4   6   0   32.59    2.42
  -5  -6   0   -0.28    0.44
  -5  -6   0   -0.02    0.47
   5   6   0   -0.48    0.39
   5   6   0   -1.10    0.31
   6   6   0    1.86    1.01
   6   6   0    1.12    0.83
   7  -7   0   11.45    1.84
  -7   7   0   12.36    2.14
   6  -7   0   11.40    1.62
   6  -7   0    9.46    1.45
  -6   7   0    9.91    1.80
   5  -7   0   25.13    1.91
   5  -7   0   23.12    1.87
  -5   7   0   21.42    2.36
   4  -7   0    5.35    0.84
   4  -7   0    6.08    1.01
  -4   7   0    4.50    1.02
   3  -7   0   32.37    2.11
   3  -7   0   32.06    1.81
  -3   7   0   31.67    2.26
   2  -7   0   37.32    1.86
   2  -7   0   38.50    2.28
  -2   7   0   34.36    2.31
  -2   7   0   39.87    1.93
  -2   7   0   37.53    2.33
   1  -7   0    0.44    0.29
   1  -7   0    0.62    0.34
  -1   7   0   -0.02    0.22
  -1   7   0   -0.12    0.16
  -1   7   0    0.36    0.23
   0  -7   0    7.00    0.98
   0  -7   0    8.61    0.92
   0   7   0    7.53    0.77
   0   7   0    8.14    0.92
   0   7   0    6.86    0.73
  -1  -7   0    0.77    0.27
  -1  -7   0    0.55    0.34
   1   7   0    0.22    0.27
   1   7   0    0.55    0.32
  -2  -7   0   16.61    1.67
  -2  -7   0   15.98    1.05
   2   7   0   13.09    1.35
   2   7   0   15.56    1.74
   2   7   0   15.13    1.15
  -3  -7   0  150.82    7.01
   3   7   0  146.71    6.76
   3   7   0  144.66    7.05
  -4  -7   0    1.14    0.53
  -4  -7   0    0.46    0.61
   4   7   0    2.29    0.85
   4   7   0    1.43    0.81
  -5  -7   0    1.04    0.71
  -5  -7   0    1.22    0.68
   5   7   0   -0.20    0.52
   5   7   0    0.31    0.86
   6   7   0   10.49    2.01
   6   7   0    8.31    1.72
  -7   8   0    0.14    0.94
   6  -8   0    7.03    1.28
   6  -8   0    5.37    1.60
  -6   8   0    7.55    1.68
   5  -8   0   16.89    1.82
   5  -8   0   18.25    1.78
  -5   8   0   16.38    2.12
   4  -8   0    0.44    0.37
   4  -8   0    0.77    0.51
  -4   8   0    0.24    0.53
   3  -8   0   28.00    1.69
   3  -8   0   33.31    2.15
  -3   8   0   30.57    2.25
  -3   8   0   29.42    2.22
   2  -8   0    5.13    0.88
  -2   8   0    4.86    0.90
  -2   8   0    4.70    0.61
   1  -8   0    1.25    0.44
   1  -8   0    0.86    0.52
  -1   8   0    1.27    0.45
  -1   8   0    1.01    0.36
  -1   8   0    2.14    0.38
   0  -8   0   27.88    2.04
   0  -8   0   29.59    1.82
   0   8   0   37.64    1.99
   0   8   0   26.67    1.83
   0   8   0   28.18    1.68
  -1  -8   0   57.61    3.27
  -1  -8   0   57.04    2.81
   1   8   0   58.48    2.92
   1   8   0   58.04    2.96
  -2  -8   0   42.52    2.19
  -2  -8   0   43.26    2.77
   2   8   0   42.58    2.54
   2   8   0   42.58    2.93
   2   8   0   44.16    2.39
  -3  -8   0    6.18    1.26
   3   8   0    6.06    1.06
   3   8   0    6.59    1.27
  -4  -8   0   25.63    2.23
  -4  -8   0   26.09    2.01
   4   8   0   28.83    2.48
   4   8   0   24.82    2.44
  -5  -8   0   12.08    1.83
   5   8   0    9.35    1.71
   5   8   0   10.79    1.96
   6   8   0    6.64    1.58
   6   8   0    4.73    1.53
  -7   9   0    2.22    1.36
  -6   9   0   -1.58    0.72
   5  -9   0   10.93    1.53
  -5   9   0    9.38    1.67
   4  -9   0    5.19    0.81
   4  -9   0    6.97    1.19
  -4   9   0    4.80    1.16
  -4   9   0    4.33    1.06
   3  -9   0    1.34    0.67
   3  -9   0    1.58    0.45
  -3   9   0    0.67    0.53
   2  -9   0   49.97    3.06
   2  -9   0   48.66    3.04
  -2   9   0   51.65    3.06
  -2   9   0   52.84    2.54
   1  -9   0    2.25    0.69
   1  -9   0    3.01    0.68
  -1   9   0    1.78    0.64
  -1   9   0    2.39    0.52
  -1   9   0    3.27    0.52
   0  -9   0    1.39    0.68
   0  -9   0    1.30    0.47
   0   9   0    1.05    0.48
   0   9   0    1.53    0.42
  -1  -9   0   66.37    3.26
  -1  -9   0   66.80    3.82
   1   9   0   64.70    3.33
   1   9   0   70.29    3.45
  -2  -9   0   33.19    2.44
  -2  -9   0   32.37    1.82
   2   9   0   33.20    2.57
   2   9   0   30.68    2.13
   2   9   0   32.29    2.01
  -3  -9   0    3.26    1.05
   3   9   0    4.44    1.13
   3   9   0    3.31    0.82
  -4  -9   0   10.88    1.44
  -4  -9   0   13.97    2.00
   4   9   0   13.13    1.81
   4   9   0   11.89    1.97
  -5  -9   0    2.54    1.04
   5   9   0    5.19    1.55
   5   9   0    2.63    1.17
  -6  10   0    3.31    1.36
  -6  10   0    0.61    0.77
   5 -10   0   20.53    2.23
  -5  10   0   17.82    2.42
  -5  10   0   19.08    2.52
   4 -10   0    1.97    0.77
  -4  10   0   -0.21    0.43
  -4  10   0    0.57    0.61
   3 -10   0    1.02    0.56
   3 -10   0   -0.54    0.42
  -3  10   0   -0.11    0.40
   2 -10   0   11.59    1.56
   2 -10   0   11.35    1.52
  -2  10   0    9.71    1.39
  -2  10   0   10.64    1.05
   1 -10   0    5.46    1.07
   1 -10   0    8.54    1.21
  -1  10   0   10.56    1.03
  -1  10   0   10.86    1.37
   0 -10   0   48.50    2.78
   0 -10   0   47.18    3.13
   0  10   0   47.31    2.84
   0  10   0   51.33    2.62
  -1 -10   0    0.02    0.36
  -1 -10   0    0.04    0.57
   1  10   0    1.26    0.50
   1  10   0    0.77    0.45
  -2 -10   0    6.34    1.32
   2  10   0    8.86    1.63
   2  10   0    8.15    1.21
   2  10   0    9.79    1.18
  -3 -10   0    1.26    0.84
   3  10   0    1.04    0.68
   3  10   0    2.91    1.01
  -4 -10   0    2.22    1.05
   4  10   0    3.60    1.35
   4  10   0    2.51    0.88
  -5 -10   0    5.59    1.54
   5  10   0    6.31    1.40
   5  10   0    6.57    1.82
   6 -11   0    0.09    0.92
  -6  11   0   -0.92    0.53
  -6  11   0    0.28    0.76
   5 -11   0    0.22    0.87
   5 -11   0    1.07    0.79
  -5  11   0   -0.76    0.80
   4 -11   0    2.14    0.92
   4 -11   0    1.26    0.80
  -4  11   0    1.43    0.96
   3 -11   0   -0.18    0.42
   3 -11   0    0.19    0.66
  -3  11   0   -0.29    0.36
  -3  11   0    0.03    0.60
   2 -11   0    0.25    0.50
   2 -11   0    0.39    0.62
  -2  11   0    0.69    0.54
  -2  11   0    0.80    0.38
   1 -11   0    0.35    0.53
   1 -11   0   -0.09    0.42
  -1  11   0    0.03    0.34
  -1  11   0    0.01    0.47
   0 -11   0    1.02    0.71
   0 -11   0    0.03    0.43
   0  11   0    0.37    0.45
   0  11   0    0.37    0.51
  -1 -11   0    0.19    0.41
  -1 -11   0   -0.18    0.45
   1  11   0    0.65    0.56
   1  11   0   -0.48    0.35
  -2 -11   0   14.04    1.98
   2  11   0   11.14    1.87
   2  11   0   14.64    1.67
   2  11   0   13.43    1.48
  -3 -11   0   -0.69    0.71
   3  11   0   -0.83    0.45
   3  11   0    0.54    0.61
  -4 -11   0    2.57    1.23
   4  11   0    0.80    1.00
   4  11   0    3.47    1.18
   5 -12   0    0.47    0.72
   5 -12   0    0.69    0.85
  -5  12   0   -0.62    0.51
   4 -12   0    2.46    1.01
   4 -12   0    2.36    0.98
  -4  12   0    2.50    1.11
   3 -12   0    6.40    1.39
   3 -12   0    5.36    1.30
  -3  12   0    6.23    1.37
   2 -12   0    0.91    0.72
   2 -12   0   -0.41    0.55
  -2  12   0   -0.24    0.59
   1 -12   0    7.01    1.20
   1 -12   0    4.46    1.11
  -1  12   0    5.12    1.13
   0 -12   0    1.46    0.61
   0 -12   0    1.18    0.81
   0  12   0    1.20    0.55
   0  12   0    2.02    0.72
  -1 -12   0    4.15    1.18
   1  12   0    7.21    1.63
   1  12   0    6.19    1.07
   1  12   0    6.08    1.07
  -2 -12   0    0.66    0.90
   2  12   0    0.90    1.00
   2  12   0    1.44    0.73
  -3 -12   0   15.11    2.35
   3  12   0   16.79    2.60
   3  12   0   18.74    2.09
  -4 -12   0   -0.32    0.94
   4  12   0    0.83    0.84
   4  12   0    0.04    0.68
   5 -13   0    3.67    1.33
   5 -13   0    2.82    1.38
  -5  13   0    3.90    1.26
   4 -13   0    0.60    0.90
   4 -13   0    0.11    0.88
  -4  13   0   -0.04    0.77
   3 -13   0    0.31    0.75
   3 -13   0   -0.55    0.69
  -3  13   0    1.00    0.89
   2 -13   0    0.76    0.68
   2 -13   0    0.45    0.69
  -2  13   0   -0.52    0.63
   1 -13   0    7.32    1.50
   1 -13   0   11.20    1.60
  -1  13   0    7.32    1.39
   0 -13   0   -0.03    0.67
   0  13   0    0.60    0.67
  -1 -13   0   25.04    2.89
   1  13   0   20.00    2.83
   1  13   0   25.16    2.73
  -2 -13   0    7.49    1.67
   2  13   0    6.27    1.65
  -3 -13   0    1.20    1.16
   3  13   0    1.93    1.08
   4 -14   0    1.90    1.20
   4 -14   0    0.58    0.98
  -4  14   0    4.14    1.34
   3 -14   0   -0.64    0.39
   3 -14   0    0.31    0.58
  -3  14   0   -0.44    0.82
   2 -14   0    8.96    1.80
   2 -14   0   11.00    1.80
  -2  14   0    9.42    1.71
   1 -14   0    9.34    1.63
   1 -14   0   11.73    2.01
  -1  14   0    8.16    1.50
   0 -14   0   -0.04    0.55
   0  14   0    0.60    0.64
   0  14   0   -0.74    0.61
  -1 -14   0   39.37    3.86
   1  14   0   34.78    3.90
  -2 -14   0   -0.43    0.96
  -2 -14   0   -0.13    0.87
   2  14   0   -1.44    0.50
   2 -15   0   11.80    1.89
   2 -15   0    6.74    1.58
  -2  15   0   10.10    1.77
   1 -15   0    3.20    1.28
  -1  15   0    3.15    1.11
   0 -15   0   12.76    2.23
   0  15   0   16.95    2.67
   1  15  -1   -0.30    1.10
  -1 -15   1   -0.46    0.88
   0 -15   1   54.81    4.12
  -1  15  -1   -0.49    0.73
   1 -15   1   -0.30    0.61
  -2  15  -1    3.35    1.21
   2 -15   1    2.69    1.07
   2 -15   1    4.00    1.24
  -3  15  -1   -0.09    0.80
   3 -15   1   -0.77    0.78
   3 -15   1    0.10    0.83
   2  14  -1    6.43    1.86
  -2 -14   1    8.64    2.00
  -2 -14   1    7.66    1.74
   1  14  -1    6.71    1.90
  -1 -14   1    8.90    1.79
   0  14  -1   12.12    2.21
   0 -14   1    7.74    1.69
  -1  14  -1    1.31    0.82
   1 -14   1    0.43    0.75
   1 -14   1   -0.12    0.66
  -2  14  -1    2.14    0.98
   2 -14   1    3.05    1.06
   2 -14   1    1.94    0.83
  -3  14  -1    0.27    0.87
   3 -14   1    2.02    1.04
   3 -14   1    0.36    0.66
  -4  14  -1    7.03    1.67
   4 -14   1    2.38    1.03
   4 -14   1    4.16    1.45
   3  13  -1   -1.03    0.94
   3  13  -1    1.00    0.92
  -3 -13   1    1.04    0.87
   2  13  -1   14.56    2.42
   2  13  -1   13.17    1.78
  -2 -13   1   10.24    1.87
  -2 -13   1   14.44    2.31
   1  13  -1    1.98    0.80
  -1 -13   1    0.44    0.62
   0  13  -1    0.00    0.48
   0 -13   1    0.28    0.58
   0 -13   1   -0.59    0.44
  -1  13  -1    2.28    0.84
   1 -13   1    1.05    0.83
   1 -13   1    1.50    0.81
  -2  13  -1   16.61    2.10
   2 -13   1   16.16    2.16
   2 -13   1   18.92    2.21
  -3  13  -1   13.72    1.99
   3 -13   1    9.88    1.67
   3 -13   1    9.94    1.77
  -4  13  -1    0.67    0.90
   4 -13   1   -0.22    0.71
   4 -13   1    0.75    0.88
  -5  13  -1   -0.07    0.96
   5 -13   1    0.90    1.66
   5 -13   1    2.41    1.28
   4  12  -1    0.06    1.01
   4  12  -1    1.97    1.04
  -4 -12   1    1.56    1.02
   3  12  -1    0.00    0.68
   3  12  -1    0.41    0.70
  -3 -12   1    0.20    0.92
   2  12  -1   -0.58    0.88
   2  12  -1    1.37    0.76
  -2 -12   1    0.16    0.77
  -2 -12   1    1.38    0.89
   1  12  -1    0.02    0.49
   1  12  -1    0.57    0.52
  -1 -12   1    1.51    0.76
  -1 -12   1    0.59    0.48
   0  12  -1    1.68    0.60
   0  12  -1    3.15    0.82
   0 -12   1    0.87    0.59
   0 -12   1    1.42    0.65
  -1  12  -1   -0.65    0.36
  -1  12  -1    0.58    0.52
   1 -12   1    0.13    0.63
   1 -12   1    0.61    0.59
  -2  12  -1    1.06    0.78
  -2  12  -1    0.94    0.46
   2 -12   1    1.35    0.78
   2 -12   1    0.65    0.54
  -3  12  -1    0.44    0.78
   3 -12   1   -0.12    0.48
   3 -12   1    1.27    0.73
  -4  12  -1   12.24    1.97
   4 -12   1   14.91    2.13
   4 -12   1   12.79    1.88
  -5  12  -1    1.29    1.07
   5 -12   1    1.08    0.90
   5 -12   1    0.69    0.75
   4  11  -1    6.30    1.67
   4  11  -1    7.35    1.57
  -4 -11   1    6.30    1.66
   3  11  -1    2.85    0.99
   3  11  -1    3.29    1.25
  -3 -11   1    1.59    0.82
   2  11  -1    2.87    0.82
   2  11  -1    2.15    0.92
   2  11  -1    3.55    0.94
  -2 -11   1    2.07    0.90
   1  11  -1   11.55    1.35
   1  11  -1   12.82    1.40
  -1 -11   1   11.72    1.78
  -1 -11   1   10.03    1.26
   0  11  -1    6.07    0.94
   0  11  -1    5.02    0.93
   0 -11   1    6.37    1.07
   0 -11   1    5.36    1.15
  -1  11  -1    1.23    0.60
  -1  11  -1    0.66    0.47
   1 -11   1    3.04    0.95
   1 -11   1    0.78    0.51
  -2  11  -1    8.68    1.39
  -2  11  -1    6.03    0.90
   2 -11   1    8.08    1.31
   2 -11   1    8.20    1.34
  -3  11  -1    3.90    1.08
   3 -11   1    4.79    1.13
   3 -11   1    2.31    0.81
  -4  11  -1   16.52    2.21
   4 -11   1   19.93    2.17
   4 -11   1   15.23    2.15
  -5  11  -1   -0.17    0.53
  -5  11  -1    0.02    0.86
   5 -11   1   -0.24    0.78
   5 -11   1    0.43    0.72
  -6  11  -1    6.32    1.76
  -6  11  -1   12.43    2.26
   6 -11   1    8.23    1.95
   5  10  -1    3.51    1.39
   5  10  -1    3.47    1.12
  -5 -10   1    4.95    1.39
   4  10  -1    6.57    1.46
   4  10  -1    2.18    1.01
  -4 -10   1    3.14    1.11
   3  10  -1    0.47    0.61
   3  10  -1    1.00    0.58
  -3 -10   1    0.24    0.56
   2  10  -1    8.43    1.51
   2  10  -1    9.79    1.11
   2  10  -1    9.98    1.34
  -2 -10   1    8.12    1.38
  -2 -10   1   11.35    1.17
   1  10  -1   -0.05    0.35
   1  10  -1    0.36    0.43
  -1 -10   1    0.20    0.51
  -1 -10   1    0.22    0.38
   0  10  -1   18.77    1.53
   0  10  -1   17.87    1.39
   0 -10   1   16.17    1.86
   0 -10   1   19.72    1.57
  -1  10  -1    0.69    0.52
  -1  10  -1   -0.08    0.29
   1 -10   1    0.06    0.35
   1 -10   1    0.33    0.46
  -2  10  -1   68.65    3.88
  -2  10  -1   69.82    3.38
   2 -10   1   68.37    3.90
   2 -10   1   70.09    3.92
  -3  10  -1   11.34    1.60
   3 -10   1   12.30    1.71
   3 -10   1    9.32    1.43
  -4  10  -1    2.02    0.74
   4 -10   1    1.54    0.67
   4 -10   1    0.26    0.46
   4 -10   1    1.94    0.78
  -5  10  -1    7.68    1.56
   5 -10   1    6.58    1.49
   5 -10   1    8.62    1.38
  -6  10  -1    7.26    1.85
   6 -10   1    9.42    1.99
   5   9  -1   -0.50    0.70
   5   9  -1   -0.83    0.81
  -5  -9   1    1.37    0.93
   4   9  -1    3.77    1.08
   4   9  -1    4.06    1.14
  -4  -9   1    2.65    0.89
  -4  -9   1    2.34    0.93
   3   9  -1   13.53    1.91
   3   9  -1   18.22    1.92
  -3  -9   1   18.47    2.15
   2   9  -1   63.46    3.41
   2   9  -1   66.58    3.16
  -2  -9   1   62.39    3.13
  -2  -9   1   57.19    3.63
   1   9  -1    0.01    0.37
   1   9  -1    0.12    0.33
  -1  -9   1    0.22    0.34
  -1  -9   1   -0.33    0.44
   0   9  -1   17.80    1.30
   0   9  -1   18.19    1.40
   0  -9   1   16.44    1.74
   0  -9   1   16.18    1.37
  -1   9  -1    0.87    0.38
  -1   9  -1    0.21    0.32
   1  -9   1    0.69    0.40
   1  -9   1    0.85    0.46
  -2   9  -1   29.98    2.17
   2  -9   1   28.38    2.15
   2  -9   1   28.74    2.07
  -3   9  -1    3.14    0.86
   3  -9   1    4.69    0.73
   3  -9   1    2.42    0.78
   3  -9   1    4.39    0.89
  -4   9  -1   29.15    2.50
   4  -9   1   33.59    2.33
   4  -9   1   34.33    2.17
  -5   9  -1    0.02    0.51
   5  -9   1    0.07    0.48
   5  -9   1    0.68    0.60
  -6   9  -1    1.08    1.03
  -7   9  -1   17.77    2.69
   6   8  -1   21.06    2.71
   6   8  -1   18.78    2.60
  -6  -8   1   18.67    2.50
   5   8  -1    0.64    0.69
   5   8  -1    0.51    0.80
  -5  -8   1    0.57    0.74
   4   8  -1   10.67    1.71
   4   8  -1    8.38    1.37
  -4  -8   1   10.53    1.65
  -4  -8   1    9.01    1.23
   3   8  -1   10.00    1.54
   3   8  -1   10.02    1.38
  -3  -8   1    8.04    1.42
   2   8  -1    3.28    0.79
   2   8  -1    4.86    0.68
  -2  -8   1    4.24    0.91
  -2  -8   1    5.26    0.70
   1   8  -1   14.41    1.34
   1   8  -1   14.72    1.09
  -1  -8   1   13.63    1.08
  -1  -8   1   10.73    1.39
   0   8  -1    4.81    0.70
   0   8  -1    5.69    0.80
   0  -8   1    6.22    0.86
   0  -8   1    6.47    0.99
  -1   8  -1    2.46    0.49
  -1   8  -1    2.44    0.60
   1  -8   1    1.31    0.50
   1  -8   1    1.91    0.57
  -2   8  -1   44.61    2.78
  -2   8  -1   47.41    2.83
   2  -8   1   52.69    2.48
   2  -8   1   45.38    2.76
   2  -8   1   49.56    2.42
   2  -8   1   50.58    2.90
  -3   8  -1  112.85    5.88
   3  -8   1  120.64    5.68
   3  -8   1  129.16    5.43
  -4   8  -1   42.08    2.98
   4  -8   1   43.47    2.57
   4  -8   1   46.44    2.73
  -5   8  -1    3.73    1.08
   5  -8   1    4.29    0.92
   5  -8   1    4.64    1.00
  -6   8  -1    5.03    1.43
   6  -8   1    4.18    1.12
  -7   8  -1    1.63    1.06
   7  -8   1    2.73    1.36
   6   7  -1   15.25    2.27
   6   7  -1   12.11    2.02
  -6  -7   1   13.61    2.09
   5   7  -1    8.95    1.57
   5   7  -1    7.90    1.53
  -5  -7   1   10.46    1.42
  -5  -7   1    9.35    1.55
   4   7  -1    0.63    0.54
   4   7  -1    0.08    0.56
  -4  -7   1    0.56    0.61
  -4  -7   1    0.10    0.39
   3   7  -1    3.50    0.87
   3   7  -1    2.40    0.71
  -3  -7   1    3.08    0.81
  -3  -7   1    3.86    0.69
   2   7  -1   24.97    1.49
   2   7  -1   26.55    1.76
  -2  -7   1   26.55    1.94
  -2  -7   1   28.24    1.61
   1   7  -1    0.22    0.24
   1   7  -1    0.16    0.29
  -1  -7   1    0.15    0.31
  -1  -7   1   -0.08    0.21
   0   7  -1   32.28    1.76
   0   7  -1   31.59    1.83
   0  -7   1   30.67    1.84
   0  -7   1   34.26    2.08
  -1   7  -1   72.27    3.23
  -1   7  -1   71.15    3.19
  -1   7  -1   65.76    3.44
   1  -7   1   73.15    3.54
   1  -7   1   70.93    3.55
  -2   7  -1  160.66    7.32
   2  -7   1  176.85    6.88
   2  -7   1  162.98    7.34
   2  -7   1  159.65    7.17
   2  -7   1  164.75    6.86
  -3   7  -1    4.97    0.95
   3  -7   1    6.62    0.95
   3  -7   1    6.19    0.81
  -4   7  -1    0.82    0.69
   4  -7   1    1.83    0.59
   4  -7   1    1.02    0.48
  -5   7  -1   25.46    2.66
   5  -7   1   31.20    2.04
   5  -7   1   27.27    2.10
  -6   7  -1    1.03    0.78
   6  -7   1    1.41    0.69
  -7   7  -1   16.28    2.50
   7  -7   1   19.02    2.35
   7   6  -1    9.82    2.00
   6   6  -1   -0.29    0.69
   6   6  -1   -0.61    0.49
  -6  -6   1   -0.09    0.70
   5   6  -1   31.26    2.85
   5   6  -1   27.81    2.43
  -5  -6   1   30.82    2.44
  -5  -6   1   30.27    2.16
   4   6  -1    0.52    0.62
   4   6  -1   -0.63    0.44
  -4  -6   1   -0.06    0.48
  -4  -6   1    0.04    0.37
   3   6  -1    0.23    0.49
   3   6  -1    0.30    0.43
  -3  -6   1   -0.02    0.33
  -3  -6   1    0.26    0.32
   2   6  -1    9.64    0.91
   2   6  -1    6.99    0.90
   2   6  -1    8.66    0.69
  -2  -6   1    7.41    0.81
  -2  -6   1    7.77    1.06
  -2  -6   1    9.33    0.75
  -2  -6   1    8.16    1.07
   1   6  -1   12.62    0.88
   1   6  -1   12.76    0.97
   1   6  -1   12.96    0.95
  -1  -6   1   11.50    0.88
  -1  -6   1   12.18    1.25
  -1  -6   1   13.07    0.92
   0   6  -1   20.58    1.26
   0   6  -1   19.22    1.20
   0   6  -1   22.19    1.24
   0  -6   1   19.15    1.28
   0  -6   1   18.47    1.35
  -1   6  -1  275.10   10.53
  -1   6  -1  254.99   10.78
   1  -6   1  271.71   10.87
   1  -6   1  255.23   10.80
  -2   6  -1   21.00    1.57
  -2   6  -1   21.12    1.32
   2  -6   1   23.35    1.49
   2  -6   1   21.18    1.29
   2  -6   1   20.79    1.24
  -3   6  -1    0.95    0.54
   3  -6   1    1.49    0.46
   3  -6   1    1.82    0.48
  -4   6  -1    0.11    0.41
   4  -6   1    0.58    0.45
   4  -6   1    0.70    0.40
  -5   6  -1   -0.11    0.39
  -5   6  -1   -0.87    0.56
   5  -6   1    0.45    0.39
   5  -6   1    0.08    0.46
  -6   6  -1   -0.56    0.50
  -6   6  -1    0.28    0.64
   6  -6   1   -0.01    0.59
  -7   6  -1    6.01    1.46
  -7   6  -1    5.23    1.59
   7  -6   1    3.91    1.25
   7   5  -1   -0.11    0.95
   6   5  -1    8.06    1.43
   6   5  -1    5.47    1.38
  -6  -5   1    5.42    1.16
  -6  -5   1    8.11    1.42
   5   5  -1    3.38    0.96
   5   5  -1    3.56    1.03
  -5  -5   1    2.52    0.76
  -5  -5   1    3.67    0.94
   4   5  -1    1.40    0.58
   4   5  -1    1.77    0.70
  -4  -5   1    1.36    0.61
  -4  -5   1    1.67    0.52
   3   5  -1    1.94    0.62
   3   5  -1    3.34    0.73
  -3  -5   1    2.44    0.69
  -3  -5   1    3.53    0.53
  -3  -5   1    2.19    0.51
   2   5  -1   11.43    1.17
   2   5  -1   14.21    0.96
  -2  -5   1   15.62    1.01
  -2  -5   1   15.11    1.24
  -2  -5   1   14.82    0.92
  -2  -5   1   13.97    1.17
   1   5  -1    0.80    0.32
   1   5  -1    1.27    0.32
   1   5  -1    1.43    0.28
  -1  -5   1    1.29    0.39
  -1  -5   1    1.47    0.32
  -1  -5   1    1.04    0.26
   0   5  -1   54.47    2.58
   0   5  -1   55.26    2.56
   0   5  -1   58.51    2.57
   0  -5   1   53.65    2.74
   0  -5   1   61.73    2.69
   0  -5   1   54.06    2.63
  -1   5  -1   45.92    2.35
  -1   5  -1   46.65    2.14
   1  -5   1   45.21    2.36
   1  -5   1   45.27    2.12
   1  -5   1   46.64    2.33
  -2   5  -1   47.12    2.19
  -2   5  -1   38.24    2.32
   2  -5   1   43.88    2.14
   2  -5   1   41.05    2.19
  -3   5  -1   24.95    1.58
  -3   5  -1   29.40    1.99
   3  -5   1   27.46    1.67
   3  -5   1   26.26    1.60
  -4   5  -1   13.70    1.65
  -4   5  -1   12.46    1.36
   4  -5   1   13.12    1.36
   4  -5   1   15.04    1.17
  -5   5  -1   -0.40    0.53
  -5   5  -1   -0.07    0.47
   5  -5   1   -0.16    0.32
   5  -5   1    0.35    0.38
  -6   5  -1    4.32    1.15
  -6   5  -1    3.42    1.09
   6  -5   1    4.95    1.15
  -7   5  -1    0.72    0.79
  -7   5  -1   -0.31    0.75
   7  -5   1   -0.17    0.75
   7   4  -1    1.11    0.84
   7   4  -1    1.28    0.92
  -7  -4   1    0.66    0.82
   6   4  -1    0.72    0.65
   6   4  -1    0.08    0.54
  -6  -4   1    0.38    0.66
  -6  -4   1   -0.40    0.49
   5   4  -1    5.65    1.08
   5   4  -1    5.01    1.08
  -5  -4   1    5.82    1.00
  -5  -4   1    5.91    1.10
   4   4  -1    0.57    0.57
   4   4  -1    0.93    0.51
  -4  -4   1    0.61    0.39
  -4  -4   1    0.49    0.45
   3   4  -1    0.05    0.33
   3   4  -1    0.18    0.24
   3   4  -1   -0.18    0.33
  -3  -4   1    0.09    0.20
  -3  -4   1    0.25    0.26
  -3  -4   1    1.51    0.55
   2   4  -1   46.92    2.46
   2   4  -1   53.30    2.32
   2   4  -1   48.94    2.57
  -2  -4   1   46.78    2.55
  -2  -4   1   46.28    2.17
   1   4  -1   19.34    1.10
   1   4  -1   19.13    0.99
   1   4  -1   19.01    1.16
  -1  -4   1   21.75    1.04
  -1  -4   1   17.14    1.12
  -1  -4   1   18.62    1.24
  -1  -4   1   18.59    1.07
   0   4  -1    7.89    0.59
   0   4  -1    7.77    0.67
   0   4  -1    9.02    0.61
   0   4  -1    8.93    0.67
   0   4  -1    7.17    0.56
   0  -4   1    6.54    0.69
   0  -4   1    8.80    0.66
   0  -4   1    8.18    0.63
  -1   4  -1   29.89    1.55
  -1   4  -1   26.87    1.41
  -1   4  -1   27.92    1.56
   1  -4   1   26.09    1.55
   1  -4   1   28.33    1.42
   1  -4   1   29.44    1.33
   1  -4   1   27.51    1.51
   1  -4   1   28.77    1.60
  -2   4  -1   86.43    4.12
  -2   4  -1   84.36    3.78
  -2   4  -1   94.00    3.93
  -2   4  -1   93.89    3.94
   2  -4   1   89.24    3.90
   2  -4   1   86.31    3.86
  -3   4  -1    0.74    0.37
  -3   4  -1    2.01    0.53
   3  -4   1    2.13    0.42
   3  -4   1    1.45    0.40
   3  -4   1    1.37    0.35
  -4   4  -1    9.57    1.37
  -4   4  -1   12.05    1.33
   4  -4   1   12.07    1.32
   4  -4   1   15.15    1.09
   4  -4   1   12.01    0.93
  -5   4  -1    1.15    0.52
  -5   4  -1    0.15    0.49
   5  -4   1    0.19    0.36
   5  -4   1   -0.37    0.44
  -6   4  -1   15.45    1.97
  -6   4  -1   15.42    2.06
   6  -4   1   11.60    1.72
  -7   4  -1    2.09    1.13
  -7   4  -1    3.52    1.09
   7  -4   1    2.16    1.18
   7   3  -1   -0.21    0.98
   7   3  -1    0.75    0.97
  -7  -3   1    1.02    1.12
   6   3  -1    4.67    1.19
   6   3  -1    3.24    0.90
  -6  -3   1    4.20    0.97
  -6  -3   1    6.10    1.22
   5   3  -1    4.40    0.98
   5   3  -1    4.10    0.89
  -5  -3   1    4.75    0.93
  -5  -3   1    5.23    0.96
   4   3  -1    1.82    0.54
   4   3  -1    1.10    0.60
  -4  -3   1    1.31    0.44
  -4  -3   1    2.53    0.66
   3   3  -1    0.26    0.29
   3   3  -1    0.40    0.31
   3   3  -1    0.19    0.40
  -3  -3   1    0.27    0.32
  -3  -3   1    0.47    0.28
  -3  -3   1    1.09    0.31
   2   3  -1    0.53    0.24
   2   3  -1    1.24    0.35
   2   3  -1    0.19    0.26
  -2  -3   1    0.52    0.22
  -2  -3   1    0.04    0.23
  -2  -3   1    0.70    0.19
   1   3  -1    3.19    0.45
   1   3  -1    3.60    0.41
   1   3  -1    4.23    0.49
   1   3  -1    2.98    0.29
  -1  -3   1    3.27    0.46
  -1  -3   1    2.96    0.37
  -1  -3   1    4.76    0.51
  -1  -3   1    3.46    0.29
   0   3  -1   63.09    2.74
   0   3  -1   66.81    2.85
   0   3  -1   66.40    2.81
   0   3  -1   63.07    2.74
   0  -3   1   66.75    2.76
   0  -3   1   64.97    2.80
   0  -3   1   62.54    2.82
  -1   3  -1  222.81    9.08
  -1   3  -1  235.37    9.13
  -1   3  -1  226.48    9.23
   1  -3   1  229.85    9.09
   1  -3   1  240.57    9.26
   1  -3   1  230.71    9.11
   1  -3   1  229.40    8.96
  -2   3  -1   77.92    3.61
  -2   3  -1   77.99    3.38
  -2   3  -1   78.31    3.34
  -2   3  -1   75.25    3.44
  -2   3  -1   82.53    3.50
   2  -3   1   76.77    3.32
   2  -3   1   73.64    3.42
  -3   3  -1   12.31    0.96
  -3   3  -1   11.39    1.15
  -3   3  -1    9.28    1.13
   3  -3   1   11.58    0.84
   3  -3   1   13.48    0.83
   3  -3   1   10.54    1.06
  -4   3  -1   38.75    2.28
  -4   3  -1   30.88    2.24
   4  -3   1   36.68    1.93
   4  -3   1   35.24    1.78
   4  -3   1   34.40    2.21
  -5   3  -1   -0.20    0.34
  -5   3  -1    0.03    0.55
   5  -3   1    0.47    0.44
   5  -3   1   -0.19    0.31
  -6   3  -1    8.79    1.54
  -6   3  -1    6.17    1.29
   6  -3   1    8.03    1.45
  -7   3  -1    0.82    0.69
  -7   3  -1    0.55    0.95
   7  -3   1    0.31    0.66
   7   2  -1    0.35    0.87
   7   2  -1    0.49    0.77
  -7  -2   1    0.14    0.98
  -7  -2   1    1.09    0.86
   6   2  -1    8.14    1.35
   6   2  -1    6.33    1.31
  -6  -2   1    7.92    1.35
  -6  -2   1    9.16    1.33
   5   2  -1   22.47    2.18
   5   2  -1   21.81    1.66
  -5  -2   1   21.98    1.76
  -5  -2   1   26.29    1.91
   4   2  -1    1.49    0.54
   4   2  -1    0.79    0.40
  -4  -2   1    1.60    0.52
  -4  -2   1    0.57    0.40
   3   2  -1  207.43    8.53
   3   2  -1  201.60    8.66
  -3  -2   1  206.29    8.48
  -3  -2   1  210.19    8.60
   2   2  -1   49.74    2.26
   2   2  -1   47.91    2.30
   2   2  -1   51.41    2.37
   2   2  -1   47.99    2.37
  -2  -2   1   46.67    2.34
  -2  -2   1   45.03    2.18
   1   2  -1   60.14    2.50
   1   2  -1   57.05    2.55
   1   2  -1   60.45    2.61
  -1  -2   1   57.10    2.33
  -1  -2   1   58.09    2.61
  -1  -2   1   57.48    2.50
  -1  -2   1   57.34    2.55
   0   2  -1   81.25    3.03
   0  -2   1   77.59    3.06
   0  -2   1   67.62    2.97
   0  -2   1   69.14    3.03
  -1   2  -1  397.05   15.23
  -1   2  -1  394.27   15.42
  -1   2  -1  404.48   15.35
   1  -2   1  405.18   15.25
   1  -2   1  389.45   15.33
   1  -2   1  381.94   15.41
  -2   2  -1  331.43   13.90
  -2   2  -1  364.40   13.83
  -2   2  -1  360.95   13.81
   2  -2   1  352.74   13.93
   2  -2   1  358.21   13.54
   2  -2   1  334.79   13.80
   2  -2   1  345.98   13.58
  -3   2  -1   14.02    1.16
  -3   2  -1   13.18    1.01
   3  -2   1   11.63    1.18
   3  -2   1   13.68    0.88
   3  -2   1   13.67    0.80
  -4   2  -1   33.21    2.30
   4  -2   1   37.56    1.95
   4  -2   1   38.22    1.82
   4  -2   1   35.86    2.29
  -5   2  -1   18.91    2.03
  -5   2  -1   17.43    1.98
   5  -2   1   23.22    1.48
   5  -2   1   22.22    2.10
  -6   2  -1   22.72    2.48
  -6   2  -1   23.92    2.53
   6  -2   1   22.18    2.39
  -7   2  -1    9.74    1.87
  -7   2  -1   10.01    1.84
   7  -2   1   12.80    2.12
   7   1  -1    1.73    0.96
  -7  -1   1    2.53    1.21
  -7  -1   1    0.90    0.84
   6   1  -1    2.65    0.85
  -6  -1   1    3.51    0.87
  -6  -1   1    2.03    0.86
  -6  -1   1    2.68    1.13
   5   1  -1  123.02    6.03
   5   1  -1  122.22    5.56
  -5  -1   1  123.66    5.69
  -5  -1   1  126.01    5.90
   4   1  -1    0.48    0.32
   4   1  -1    0.13    0.42
  -4  -1   1    0.14    0.29
  -4  -1   1   -0.17    0.34
   3   1  -1   36.65    1.93
   3   1  -1   34.52    2.00
   3   1  -1   32.96    1.80
   3   1  -1   37.15    2.13
  -3  -1   1   35.07    1.92
  -3  -1   1   34.55    1.91
   2   1  -1   34.58    1.66
   2   1  -1   35.40    1.81
   2   1  -1   33.26    1.67
   2   1  -1   36.24    1.78
  -2  -1   1   33.28    1.68
  -2  -1   1   36.26    1.81
  -2  -1   1   35.42    1.76
   1   1  -1  796.59   33.81
   1   1  -1  971.20   33.87
   1   1  -1  772.59   33.84
  -1  -1   1  996.81   33.91
   0   1  -1   -1.11    0.03
   0   1  -1   -1.13    0.03
   0   1  -1   -1.14    0.03
   0   1  -1   -1.10    0.02
   0   1  -1   -1.12    0.03
   0   1  -1   -1.12    0.01
   0  -1   1   -1.09    0.02
  -1   1  -1  696.28   24.15
  -1   1  -1  542.20   24.05
   1  -1   1  659.64   24.10
   1  -1   1  608.95   24.09
  -2   1  -1    9.36    0.76
  -2   1  -1    8.66    0.80
  -2   1  -1    8.50    0.70
   2  -1   1   10.41    0.78
   2  -1   1    9.73    0.51
   2  -1   1    6.23    0.72
   2  -1   1    9.39    0.72
  -3   1  -1   13.55    0.78
  -3   1  -1   13.76    1.11
  -3   1  -1   13.04    1.00
   3  -1   1   12.74    0.76
   3  -1   1   11.72    0.96
   3  -1   1    9.52    1.09
  -4   1  -1    0.80    0.26
  -4   1  -1    0.80    0.44
   4  -1   1    0.32    0.36
   4  -1   1    0.38    0.35
  -5   1  -1   49.88    3.16
   5  -1   1   57.35    3.33
   5  -1   1   48.27    2.83
  -6   1  -1   44.35    3.22
  -6   1  -1   47.45    3.31
   6  -1   1   48.73    3.37
   6  -1   1   44.18    2.75
  -7   1  -1    3.79    1.29
  -7   1  -1    3.65    1.31
   7  -1   1    3.42    1.22
   7   0  -1    3.85    1.26
  -7   0   1    0.88    0.78
  -7   0   1    3.94    1.24
   6   0  -1    1.38    0.85
   6   0  -1    2.48    1.05
  -6   0   1    1.02    0.85
  -6   0   1    3.24    0.75
  -6   0   1    0.34    0.61
   5   0  -1   60.11    3.53
   5   0  -1   60.06    3.09
  -5   0   1   65.46    3.80
  -5   0   1   66.62    3.31
  -5   0   1   61.24    3.50
   4   0  -1    2.90    0.51
   4   0  -1    1.75    0.63
  -4   0   1    2.14    0.53
  -4   0   1    2.28    0.60
  -4   0   1    3.57    0.58
   3   0  -1   27.17    1.53
   3   0  -1   26.22    1.39
   3   0  -1   25.99    1.62
  -3   0   1   27.23    1.62
  -3   0   1   24.91    1.51
  -3   0   1   26.70    1.39
   2   0  -1  152.45    6.04
   2   0  -1  145.95    6.07
   2   0  -1  149.90    6.03
   2   0  -1  146.78    5.85
  -2   0   1  147.65    6.07
  -2   0   1  147.45    5.84
  -2   0   1  146.69    6.04
  -2   0   1  141.05    6.02
   1   0  -1  210.04    8.76
  -1   0   1  242.11    8.76
  -1   0   1  238.28    8.87
  -1   0   1  207.71    8.80
   0   0  -1    0.01    0.02
   0   0  -1    0.01    0.02
   0   0  -1    0.00    0.02
   0   0  -1    0.00    0.01
   0   0  -1   -0.01    0.02
  -1   0  -1    3.89    0.40
   1   0   1    3.53    0.39
   1   0   1    5.06    0.39
   1   0   1    3.37    0.39
   1   0   1    3.72    0.24
  -2   0  -1    3.73    0.51
  -2   0  -1    3.56    0.50
  -2   0  -1    3.04    0.47
  -2   0  -1    3.40    0.34
   2   0   1    3.50    0.52
   2   0   1    2.92    0.46
   2   0   1    3.75    0.51
  -3   0  -1    1.58    0.48
  -3   0  -1    1.98    0.48
  -3   0  -1    1.77    0.32
   3   0   1    1.72    0.44
   3   0   1    1.32    0.42
   3   0   1    1.38    0.42
  -4   0  -1   19.96    1.60
  -4   0  -1   21.37    1.29
   4   0   1   21.57    1.71
   4   0   1   24.40    1.58
   4   0   1   20.90    1.63
   4   0   1   21.32    1.52
  -5   0  -1    0.67    0.33
  -5   0  -1    0.59    0.62
   5   0   1    1.61    0.79
   5   0   1    0.38    0.49
  -6   0  -1    6.93    1.37
   6   0   1    7.52    1.18
   6   0   1    6.86    1.37
  -7   0  -1    1.78    1.09
  -7   0  -1    1.23    0.98
   7   0   1    0.84    0.88
   8  -1  -1    5.77    1.78
  -8   1   1    7.97    1.78
  -8   1   1   10.87    2.25
   7  -1  -1    0.43    0.97
  -7   1   1    0.04    0.79
  -7   1   1   -0.85    0.62
   6  -1  -1   16.01    1.99
  -6   1   1   12.51    1.84
  -6   1   1   14.63    1.80
   5  -1  -1   95.69    4.80
   5  -1  -1   94.56    4.87
  -5   1   1   95.41    4.44
  -5   1   1   89.42    4.89
  -5   1   1   91.85    4.76
   4  -1  -1    0.40    0.26
   4  -1  -1    0.19    0.31
  -4   1   1    1.26    0.52
  -4   1   1    0.62    0.31
  -4   1   1    0.49    0.42
  -4   1   1    0.51    0.29
   3  -1  -1    5.30    0.53
   3  -1  -1    6.02    0.70
   3  -1  -1    4.88    0.67
  -3   1   1    5.06    0.73
  -3   1   1    5.39    0.79
  -3   1   1    5.09    0.52
  -3   1   1    4.96    0.64
   2  -1  -1   87.01    3.75
   2  -1  -1   88.24    3.75
   2  -1  -1   88.45    3.82
  -2   1   1   86.23    3.81
  -2   1   1   85.14    3.75
  -2   1   1   88.28    3.75
  -2   1   1   85.07    3.85
  -2   1   1   89.26    3.53
   1  -1  -1    4.80    0.46
   1  -1  -1    5.97    0.48
   1  -1  -1    7.50    0.44
  -1   1   1    7.82    0.44
  -1   1   1    7.46    0.52
  -1   1   1    8.60    0.54
   0  -1  -1    0.00    0.03
   0  -1  -1   -0.06    0.04
   0  -1  -1   -0.02    0.03
   0  -1  -1   -0.03    0.02
   0   1   1   -0.01    0.03
   0   1   1   -0.01    0.05
   0   1   1    0.02    0.02
   0   1   1    0.03    0.05
   0   1   1    0.07    0.04
  -1  -1  -1    0.91    0.17
  -1  -1  -1    0.42    0.15
  -1  -1  -1    1.03    0.25
  -1  -1  -1    0.98    0.21
   1   1   1    0.54    0.21
   1   1   1    0.85    0.18
   1   1   1    0.87    0.22
  -2  -1  -1   90.35    3.77
  -2  -1  -1   92.92    4.00
  -2  -1  -1   89.23    3.96
  -2  -1  -1   90.08    4.00
   2   1   1   88.80    3.96
   2   1   1   88.42    3.99
   2   1   1   90.88    3.77
  -3  -1  -1   19.98    1.40
  -3  -1  -1   19.90    1.18
   3   1   1   20.42    1.21
   3   1   1   19.66    1.39
   3   1   1   22.42    1.50
  -4  -1  -1    9.00    1.14
  -4  -1  -1   10.46    0.86
   4   1   1    8.54    1.11
   4   1   1    8.39    1.15
  -5  -1  -1    0.56    0.60
  -5  -1  -1    0.03    0.35
   5   1   1    0.07    0.38
   5   1   1   -0.03    0.35
   5   1   1    0.04    0.36
  -6  -1  -1   -0.76    0.53
   6   1   1    0.42    0.61
   6   1   1    0.39    0.64
  -7  -1  -1   -0.45    0.69
   7   1   1   -0.76    0.56
   8  -2  -1   -0.05    1.09
  -8   2   1   -0.81    0.91
  -8   2   1    0.15    0.82
   7  -2  -1    0.92    0.97
  -7   2   1    1.82    1.01
  -7   2   1    1.52    1.13
   6  -2  -1   14.50    1.95
   6  -2  -1   13.21    1.52
  -6   2   1   12.46    1.76
  -6   2   1   15.43    2.02
   5  -2  -1   34.09    2.39
  -5   2   1   34.13    2.46
  -5   2   1   34.72    2.45
   4  -2  -1   51.14    2.89
   4  -2  -1   47.68    2.77
  -4   2   1   54.65    2.47
  -4   2   1   49.50    2.90
  -4   2   1   54.37    3.00
   3  -2  -1   40.31    2.14
   3  -2  -1   41.69    2.12
  -3   2   1   42.96    1.92
  -3   2   1   38.15    2.24
  -3   2   1   38.44    2.23
   2  -2  -1    6.41    0.67
   2  -2  -1    6.81    0.76
   2  -2  -1    6.23    0.72
   2  -2  -1    6.84    0.63
   2  -2  -1    6.71    0.69
  -2   2   1    6.76    0.46
  -2   2   1    6.20    0.60
  -2   2   1    5.26    0.66
  -2   2   1    6.10    0.72
   1  -2  -1   12.75    0.65
   1  -2  -1   11.99    0.82
   1  -2  -1   13.69    0.84
   1  -2  -1   16.27    0.86
  -1   2   1   11.91    0.80
  -1   2   1   13.02    0.84
  -1   2   1   13.79    0.66
   0  -2  -1  390.16   17.35
   0  -2  -1  470.67   17.43
   0   2   1  475.55   17.40
   0   2   1  462.11   17.18
  -1  -2  -1    0.12    0.14
  -1  -2  -1    0.30    0.15
  -1  -2  -1    0.00    0.11
  -1  -2  -1    0.59    0.22
   1   2   1    0.57    0.24
   1   2   1    0.33    0.14
   1   2   1    0.23    0.16
   1   2   1    0.14    0.06
   1   2   1    0.26    0.15
  -2  -2  -1  161.21    6.53
  -2  -2  -1  156.43    6.27
  -2  -2  -1  149.63    6.35
   2   2   1  145.99    6.35
   2   2   1  152.12    6.23
   2   2   1  147.14    6.45
  -3  -2  -1  110.86    4.97
  -3  -2  -1  117.11    5.20
   3   2   1  130.30    5.30
   3   2   1  109.98    5.20
   3   2   1  109.73    5.22
  -4  -2  -1   21.68    1.71
  -4  -2  -1   24.99    1.56
   4   2   1   22.96    1.74
   4   2   1   22.71    1.79
  -5  -2  -1    0.10    0.36
  -5  -2  -1   -0.10    0.51
   5   2   1    0.11    0.49
   5   2   1   -0.53    0.35
   5   2   1    0.11    0.39
  -6  -2  -1    0.41    0.68
   6   2   1    0.15    0.54
   6   2   1   -0.51    0.43
   6   2   1   -0.24    0.47
  -7  -2  -1    2.11    1.08
   7   2   1   -0.06    0.91
   8  -3  -1    5.59    1.65
  -8   3   1    5.86    1.60
   7  -3  -1   -1.43    0.57
  -7   3   1    0.12    0.83
  -7   3   1    0.25    0.78
   6  -3  -1    9.89    1.34
   6  -3  -1   10.95    1.62
  -6   3   1    9.37    1.59
  -6   3   1    9.19    1.61
   5  -3  -1    0.46    0.57
   5  -3  -1    0.61    0.45
  -5   3   1    0.69    0.50
  -5   3   1    1.41    0.61
   4  -3  -1    6.29    0.89
   4  -3  -1    6.83    0.98
  -4   3   1    6.02    0.70
  -4   3   1    6.57    1.03
  -4   3   1    6.82    1.06
   3  -3  -1   35.83    2.00
   3  -3  -1   38.79    2.28
   3  -3  -1   35.14    1.96
  -3   3   1   33.46    2.06
  -3   3   1   33.47    2.12
  -3   3   1   37.76    1.79
   2  -3  -1    5.39    0.68
   2  -3  -1    5.67    0.68
   2  -3  -1    5.27    0.53
  -2   3   1    5.50    0.56
  -2   3   1    5.05    0.69
   1  -3  -1    1.21    0.15
   1  -3  -1    1.52    0.31
   1  -3  -1    1.09    0.30
  -1   3   1    1.15    0.29
  -1   3   1    1.18    0.28
  -1   3   1    1.29    0.30
   0  -3  -1    1.48    0.31
   0  -3  -1    0.85    0.16
   0  -3  -1    0.68    0.22
   0   3   1    1.02    0.17
   0   3   1    1.49    0.33
   0   3   1    0.82    0.24
  -1  -3  -1   10.28    0.52
  -1  -3  -1   11.01    0.78
  -1  -3  -1   10.33    0.72
  -1  -3  -1   10.38    0.73
   1   3   1   10.93    0.74
   1   3   1   10.71    0.79
   1   3   1    9.59    0.69
   1   3   1    9.48    0.82
  -2  -3  -1    6.60    0.68
  -2  -3  -1    5.83    0.71
   2   3   1    4.91    0.73
   2   3   1    5.63    0.40
   2   3   1    6.70    0.74
   2   3   1    5.30    0.68
  -3  -3  -1    0.17    0.30
  -3  -3  -1    0.47    0.28
   3   3   1   -0.10    0.21
   3   3   1    0.27    0.20
   3   3   1    0.18    0.34
  -4  -3  -1    3.67    0.77
  -4  -3  -1    2.52    0.62
   4   3   1    1.21    0.59
   4   3   1    1.93    0.61
   4   3   1    2.38    0.75
  -5  -3  -1   -0.06    0.36
  -5  -3  -1    0.13    0.54
   5   3   1    0.78    0.58
   5   3   1    0.92    0.55
  -6  -3  -1   -0.23    0.63
   6   3   1    0.83    0.67
   6   3   1   -0.88    0.70
   6   3   1   -0.38    0.51
  -7  -3  -1    0.48    0.86
   7   3   1    0.49    0.99
   7  -4  -1   16.71    2.22
  -7   4   1   13.45    2.13
  -7   4   1   13.77    2.10
   6  -4  -1    3.63    0.88
   6  -4  -1    2.35    0.91
  -6   4   1    4.09    1.14
  -6   4   1    3.29    1.10
   5  -4  -1   -0.37    0.30
   5  -4  -1    0.20    0.34
  -5   4   1   -0.21    0.36
  -5   4   1   -0.44    0.44
   4  -4  -1    6.63    0.92
   4  -4  -1    7.02    0.95
  -4   4   1    5.23    0.95
  -4   4   1    7.83    1.19
  -4   4   1    6.77    0.78
   3  -4  -1   21.78    1.44
   3  -4  -1   19.23    1.29
  -3   4   1   22.65    1.63
  -3   4   1   19.03    1.42
   2  -4  -1    1.08    0.39
   2  -4  -1    1.70    0.29
   2  -4  -1    1.61    0.42
  -2   4   1    2.20    0.35
  -2   4   1    1.46    0.39
   1  -4  -1  299.54   12.36
   1  -4  -1  306.88   11.89
  -1   4   1  330.70   12.79
  -1   4   1  311.99   11.91
  -1   4   1  300.02   12.35
   0  -4  -1   17.24    1.06
   0  -4  -1   16.06    0.83
   0  -4  -1   15.57    1.09
   0   4   1   16.65    1.18
   0   4   1   15.08    1.02
   0   4   1   15.49    0.83
  -1  -4  -1    5.03    0.36
  -1  -4  -1    4.58    0.62
  -1  -4  -1    4.52    0.58
  -1  -4  -1    5.72    0.60
   1   4   1    4.39    0.56
   1   4   1    5.00    0.57
   1   4   1    4.38    0.70
  -2  -4  -1    4.03    0.66
   2   4   1    4.00    0.72
   2   4   1    4.89    0.36
   2   4   1    3.12    0.52
   2   4   1    4.15    0.62
  -3  -4  -1   25.70    1.73
  -3  -4  -1   24.55    1.69
   3   4   1   27.12    1.81
   3   4   1   24.32    1.88
   3   4   1   26.76    1.32
  -4  -4  -1   11.79    1.34
  -4  -4  -1   12.81    1.44
   4   4   1    8.44    1.28
   4   4   1   10.42    1.45
  -5  -4  -1   13.39    1.53
  -5  -4  -1   13.15    1.63
   5   4   1   11.57    1.64
   5   4   1   11.76    1.60
  -6  -4  -1    1.90    0.85
   6   4   1    3.81    1.19
   6   4   1    1.95    0.92
   6   4   1    1.80    0.90
  -7  -4  -1    0.29    0.93
   7   4   1    1.42    1.09
   7  -5  -1    3.97    1.29
  -7   5   1    6.55    1.55
  -7   5   1    4.74    1.40
   6  -5  -1    2.72    0.84
   6  -5  -1    5.68    1.19
  -6   5   1    1.54    0.79
  -6   5   1    2.00    0.93
   5  -5  -1   33.58    2.25
   5  -5  -1   31.91    2.24
  -5   5   1   32.90    2.50
  -5   5   1   35.35    2.48
   4  -5  -1   24.02    1.70
   4  -5  -1   21.63    1.56
  -4   5   1   22.17    1.84
   3  -5  -1    0.05    0.23
   3  -5  -1    0.24    0.25
  -3   5   1    0.10    0.29
   2  -5  -1    1.05    0.24
   2  -5  -1    1.28    0.43
  -2   5   1    0.87    0.36
  -2   5   1    0.72    0.35
   1  -5  -1  112.15    5.16
  -1   5   1  122.18    4.65
  -1   5   1  114.70    5.13
   0  -5  -1   40.84    2.30
   0  -5  -1   47.01    2.14
   0   5   1   44.03    1.98
   0   5   1   42.75    2.22
  -1  -5  -1   24.46    1.61
  -1  -5  -1   26.26    1.27
  -1  -5  -1   26.37    1.44
   1   5   1   25.24    1.74
   1   5   1   26.69    1.53
   1   5   1   26.39    1.46
  -2  -5  -1   -0.01    0.29
   2   5   1    0.69    0.30
   2   5   1    0.12    0.14
   2   5   1    0.12    0.25
   2   5   1    0.57    0.43
  -3  -5  -1   10.08    1.23
  -3  -5  -1   11.23    1.22
   3   5   1   11.82    1.31
   3   5   1   11.40    0.71
   3   5   1    9.39    1.29
  -4  -5  -1   12.95    1.48
  -4  -5  -1    9.11    1.27
   4   5   1   10.49    1.44
   4   5   1   11.25    1.60
  -5  -5  -1    0.94    0.64
  -5  -5  -1    0.56    0.57
   5   5   1    1.20    0.74
   5   5   1    1.41    0.88
  -6  -5  -1    0.44    0.78
   6   5   1   -0.34    0.75
   6   5   1    0.78    0.75
   6   5   1    1.24    0.89
   7   5   1    1.16    0.94
   7  -6  -1    0.14    0.79
  -7   6   1   -1.09    0.74
   6  -6  -1    1.02    0.62
   6  -6  -1    0.86    0.67
  -6   6   1    2.66    0.93
   5  -6  -1   24.66    1.95
   5  -6  -1   25.04    1.90
  -5   6   1   27.32    2.26
   4  -6  -1    9.86    1.22
   4  -6  -1    9.75    1.08
  -4   6   1    8.13    1.26
   3  -6  -1    2.87    0.49
   3  -6  -1    1.21    0.57
  -3   6   1    2.17    0.73
   2  -6  -1   38.74    2.29
   2  -6  -1   40.12    1.83
  -2   6   1   38.88    2.35
  -2   6   1   39.98    2.36
   1  -6  -1    5.64    0.81
  -1   6   1    6.84    0.87
  -1   6   1    5.48    0.52
  -1   6   1    6.80    0.45
   0  -6  -1   14.51    1.22
   0  -6  -1   15.67    1.06
   0   6   1   16.60    1.21
   0   6   1   17.31    0.99
  -1  -6  -1   26.46    1.72
  -1  -6  -1   25.46    1.31
   1   6   1   24.35    1.45
   1   6   1   24.18    1.54
   1   6   1   23.48    1.76
  -2  -6  -1  131.61    6.05
   2   6   1  135.78    5.88
   2   6   1  132.91    5.79
   2   6   1  131.89    6.27
  -3  -6  -1    0.24    0.37
  -3  -6  -1    0.02    0.36
  -3  -6  -1   -0.09    0.29
   3   6   1    0.36    0.41
   3   6   1    0.59    0.22
   3   6   1    0.06    0.33
  -4  -6  -1    1.65    0.72
  -4  -6  -1    0.63    0.55
   4   6   1    0.78    0.68
   4   6   1    1.01    0.58
  -5  -6  -1    2.31    0.82
  -5  -6  -1    1.36    0.73
   5   6   1    1.55    0.89
   5   6   1    1.08    0.67
  -6  -6  -1    0.67    0.84
   6   6   1    2.46    1.09
   6   6   1    1.68    1.01
   6   6   1    2.66    1.16
  -7   7   1    2.11    0.96
   6  -7  -1    1.06    0.75
   6  -7  -1    1.28    0.77
  -6   7   1    2.09    1.04
   5  -7  -1    5.88    1.03
   5  -7  -1    8.04    1.25
  -5   7   1    6.41    1.26
   4  -7  -1   33.56    2.34
   4  -7  -1   35.34    2.06
  -4   7   1   34.35    2.55
   3  -7  -1    6.80    1.08
   3  -7  -1    7.89    0.78
  -3   7   1    6.16    1.14
  -3   7   1    6.62    1.15
   2  -7  -1   23.26    1.78
  -2   7   1   27.37    1.87
   1  -7  -1   40.45    2.46
  -1   7   1   41.67    1.84
  -1   7   1   37.15    2.32
  -1   7   1   42.97    1.95
   0  -7  -1   34.77    2.23
   0  -7  -1   37.26    2.00
   0   7   1   34.93    2.11
   0   7   1   33.59    1.80
   0   7   1   40.34    1.82
  -1  -7  -1   77.57    3.40
  -1  -7  -1   72.28    3.89
   1   7   1   75.65    4.07
   1   7   1   82.13    3.75
   1   7   1   76.05    3.56
  -2  -7  -1  180.66    8.00
   2   7   1  179.12    8.22
   2   7   1  171.84    7.67
   2   7   1  186.35    7.69
  -3  -7  -1   52.56    3.19
   3   7   1   54.93    3.13
   3   7   1   55.43    3.50
  -4  -7  -1    1.14    0.64
  -4  -7  -1    0.71    0.63
   4   7   1    0.82    0.78
   4   7   1    1.11    0.63
  -5  -7  -1    3.56    1.01
  -5  -7  -1    2.06    0.81
   5   7   1    0.77    0.85
   5   7   1    1.47    0.97
   6   7   1    1.34    0.91
   6   7   1   -1.11    0.73
   6   7   1   -0.06    0.96
  -7   8   1   -1.22    0.82
   6  -8  -1    0.10    0.66
  -6   8   1   -1.60    0.70
   5  -8  -1   14.31    1.73
   5  -8  -1   10.19    1.29
  -5   8   1    8.30    1.53
   4  -8  -1    2.43    0.57
   4  -8  -1    1.46    0.65
  -4   8   1    0.88    0.74
  -4   8   1    1.65    0.82
   3  -8  -1  244.03    9.60
   3  -8  -1  225.65   10.29
  -3   8   1  246.31   10.57
   2  -8  -1    4.69    0.89
  -2   8   1    5.51    0.98
   1  -8  -1    1.16    0.46
   1  -8  -1    1.08    0.51
  -1   8   1    1.26    0.29
  -1   8   1    1.22    0.33
  -1   8   1    2.04    0.63
   0  -8  -1    9.58    1.03
   0  -8  -1    9.85    1.31
   0   8   1   10.36    0.80
   0   8   1   10.23    0.93
   0   8   1    7.54    1.04
  -1  -8  -1    2.60    0.68
  -1  -8  -1    3.00    0.51
   1   8   1    2.20    0.81
   1   8   1    3.85    0.64
   1   8   1    3.40    0.72
  -2  -8  -1   -0.13    0.32
  -2  -8  -1    0.47    0.26
   2   8   1    0.26    0.35
   2   8   1   -0.19    0.35
   2   8   1    0.61    0.45
  -3  -8  -1    0.20    0.39
   3   8   1    0.49    0.54
   3   8   1   -0.80    0.36
  -4  -8  -1    2.32    0.97
  -4  -8  -1    1.10    0.65
   4   8   1    3.24    0.98
  -5  -8  -1    0.79    0.77
  -5  -8  -1    1.02    0.73
   5   8   1   -0.39    0.75
   5   8   1    1.64    0.98
   6   8   1    0.41    1.06
   6   8   1    0.02    1.00
   6   8   1    0.97    1.03
   6  -9  -1    1.23    0.84
  -6   9   1   -0.05    0.61
  -6   9   1    1.28    1.02
   5  -9  -1   17.00    1.98
  -5   9   1   14.14    2.02
  -5   9   1   16.84    2.23
   4  -9  -1   13.02    1.67
  -4   9   1   11.85    1.75
  -4   9   1   12.34    1.75
   3  -9  -1    1.45    0.73
  -3   9   1    2.17    0.73
   2  -9  -1    7.28    1.16
  -2   9   1    7.28    1.21
  -2   9   1    7.46    0.76
   1  -9  -1   46.49    3.03
   1  -9  -1   52.65    2.91
  -1   9   1   51.14    2.45
  -1   9   1   54.92    3.05
   0  -9  -1    1.11    0.46
   0  -9  -1   -0.24    0.30
   0   9   1   -0.24    0.37
   0   9   1    0.09    0.29
  -1  -9  -1    4.53    0.66
  -1  -9  -1    2.98    0.79
   1   9   1    4.87    0.87
   1   9   1    3.58    0.71
   1   9   1    4.80    1.08
  -2  -9  -1    1.01    0.72
   2   9   1    1.92    0.57
   2   9   1    1.05    0.53
   2   9   1    2.61    0.89
  -3  -9  -1   25.61    2.18
   3   9   1   25.65    2.77
   3   9   1   26.93    2.07
  -4  -9  -1    1.27    0.67
  -4  -9  -1    1.16    0.82
   4   9   1    1.86    0.74
   4   9   1   -0.56    0.79
  -5  -9  -1    8.58    1.67
   5   9   1    8.76    1.86
   5   9   1   10.43    1.84
   6 -10  -1    5.39    1.36
  -6  10   1    6.35    1.58
  -6  10   1    3.81    1.24
   5 -10  -1   -0.05    0.65
  -5  10   1   -0.32    0.77
   4 -10  -1   19.76    2.13
  -4  10   1   14.21    1.97
   3 -10  -1   17.50    2.00
  -3  10   1   15.57    1.89
   2 -10  -1    8.00    1.35
   2 -10  -1   13.70    1.62
  -2  10   1   11.40    0.88
  -2  10   1    8.11    1.33
   1 -10  -1    9.33    1.46
   1 -10  -1    9.62    1.29
  -1  10   1    9.62    0.93
  -1  10   1    8.34    1.27
   0 -10  -1    0.37    0.47
   0 -10  -1    0.07    0.36
   0  10   1   -0.17    0.43
   0  10   1    0.23    0.34
  -1 -10  -1    6.08    1.17
  -1 -10  -1    6.40    0.86
   1  10   1    4.90    1.15
   1  10   1    6.72    1.07
   1  10   1    7.35    0.99
  -2 -10  -1    1.36    0.67
   2  10   1    1.07    0.59
   2  10   1    2.40    1.04
   2  10   1    1.17    0.60
  -3 -10  -1    0.77    0.72
  -3 -10  -1    0.21    0.58
   3  10   1   -0.27    0.53
   3  10   1   -0.79    0.37
  -4 -10  -1    3.16    0.91
  -4 -10  -1    2.87    1.17
   4  10   1    2.35    1.24
   4  10   1    2.92    1.05
  -5 -10  -1   -0.40    0.82
   5  10   1    0.27    0.67
   5  10   1    0.94    0.86
  -6  11   1    4.17    1.49
   5 -11  -1    0.77    0.83
  -5  11   1    0.53    0.91
   4 -11  -1    3.46    1.00
  -4  11   1    1.71    0.93
   3 -11  -1    1.56    0.82
   3 -11  -1    0.43    0.66
  -3  11   1    1.06    0.83
   2 -11  -1    2.60    0.94
   2 -11  -1    5.22    1.05
  -2  11   1    5.73    1.14
   1 -11  -1    0.94    0.54
   1 -11  -1   -0.06    0.43
  -1  11   1   -0.20    0.34
   0 -11  -1   -0.38    0.35
   0 -11  -1   -0.32    0.41
   0  11   1    0.09    0.33
   0  11   1   -0.04    0.44
  -1 -11  -1   10.10    1.68
   1  11   1    8.47    1.59
   1  11   1   13.13    1.36
   1  11   1   11.59    1.45
  -2 -11  -1   11.79    1.86
   2  11   1   15.13    2.16
   2  11   1   13.32    1.58
   2  11   1   14.31    1.63
  -3 -11  -1    0.55    0.86
  -3 -11  -1    1.18    1.04
   3  11   1    2.78    1.05
   3  11   1    2.32    0.90
  -4 -11  -1   -0.08    0.93
   4  11   1   -0.31    0.70
   4  11   1   -0.53    0.94
   5 -12  -1    2.80    1.09
   5 -12  -1    1.35    1.13
  -5  12   1    1.74    0.90
   4 -12  -1    0.11    0.79
   4 -12  -1   -0.40    0.48
  -4  12   1   -0.28    0.81
   3 -12  -1    0.93    0.81
   3 -12  -1    1.02    0.85
  -3  12   1    0.69    0.78
   2 -12  -1    4.55    1.06
   2 -12  -1    5.22    1.22
  -2  12   1    3.49    1.09
   1 -12  -1    9.12    1.61
   1 -12  -1    7.97    1.31
  -1  12   1    8.47    1.44
   0 -12  -1    2.91    0.75
   0 -12  -1    3.56    1.12
   0  12   1    5.14    1.32
   0  12   1    3.67    0.95
  -1 -12  -1    3.02    1.11
   1  12   1    2.98    1.19
   1  12   1    2.52    0.82
  -2 -12  -1   30.99    3.16
   2  12   1   30.35    3.01
   2  12   1   27.61    3.20
  -3 -12  -1    3.81    1.22
  -3 -12  -1    3.95    1.33
   3  12   1    4.51    1.36
   3  12   1    2.32    1.28
  -4 -12  -1    6.73    1.79
   4  12   1    6.99    2.00
   4 -13  -1    0.29    0.85
   4 -13  -1   -0.02    0.88
  -4  13   1    1.51    0.95
   3 -13  -1   24.24    2.74
   3 -13  -1   22.93    2.60
  -3  13   1   24.26    2.70
   2 -13  -1    3.13    1.19
   2 -13  -1    3.97    1.06
  -2  13   1    4.04    1.07
   1 -13  -1   -0.43    0.49
   1 -13  -1   -0.57    0.37
  -1  13   1   -0.25    0.43
   0 -13  -1    9.50    1.76
   0  13   1    9.49    1.47
   0  13   1    7.44    1.62
  -1 -13  -1    2.79    1.19
   1  13   1    4.96    1.13
   1  13   1    3.90    1.51
  -2 -13  -1    0.76    0.76
   2  13   1    2.52    1.16
  -3 -13  -1   -0.87    0.95
   3  13   1    1.73    1.00
   4 -14  -1    0.68    1.05
   3 -14  -1   -0.03    0.84
   3 -14  -1    0.20    0.78
  -3  14   1    0.65    0.86
   2 -14  -1    1.94    0.92
   2 -14  -1    0.25    0.75
  -2  14   1    1.66    0.95
   1 -14  -1   33.76    3.55
  -1  14   1   35.15    3.73
  -1  14   1   35.75    2.86
   0 -14  -1    1.05    1.00
   0  14   1    0.37    0.67
   0  14   1   -0.28    0.66
  -1 -14  -1    6.23    1.70
   1  14   1    5.28    1.52
  -2 -14  -1   -0.43    0.91
   2  14   1    0.47    1.20
   2 -15  -1    6.30    1.64
  -2  15   1    2.41    1.20
  -2  15   1    3.09    1.27
   1 -15  -1    1.64    1.09
  -1  15   1    0.54    0.85
  -1  15   1    1.18    1.22
   0 -15  -1   24.55    3.11
   0  15   1   26.46    3.36
   1  15  -2   13.19    2.41
  -1 -15   2    8.77    1.90
  -1 -15   2    8.12    1.86
   0 -15   2    0.44    0.96
   1 -15   2   -0.04    0.79
   1 -15   2   -0.05    0.73
  -2  15  -2    0.73    0.82
   2 -15   2    1.64    1.04
   2 -15   2    1.97    1.15
  -3  15  -2    2.51    1.04
   3 -15   2    3.85    1.30
   3 -15   2    3.56    1.24
   2  14  -2    4.19    1.59
   2  14  -2    5.64    1.66
  -2 -14   2    8.50    1.95
  -1 -14   2    1.90    1.18
  -1 -14   2    1.84    0.93
   0 -14   2    2.05    1.13
   0 -14   2    2.63    0.97
  -1  14  -2    1.50    0.79
   1 -14   2    1.03    0.96
   1 -14   2    1.77    0.95
  -2  14  -2    7.84    1.46
   2 -14   2    4.16    1.13
  -3  14  -2    9.63    1.72
   3 -14   2   13.10    1.95
   3 -14   2    8.21    1.71
  -4  14  -2    4.80    1.32
   4 -14   2    5.43    1.43
   4 -14   2    5.58    1.51
   3  13  -2    4.07    1.21
   3  13  -2    5.57    1.58
  -3 -13   2    2.85    1.21
   2  13  -2    0.98    0.82
   2  13  -2   -0.01    0.97
  -2 -13   2   -0.08    0.54
   1  13  -2    9.86    1.41
  -1 -13   2    7.86    1.63
   0  13  -2    0.30    0.59
   0  13  -2   -0.20    0.48
   0 -13   2    0.43    0.75
   0 -13   2   -0.04    0.54
  -1  13  -2    1.02    0.58
  -1  13  -2    0.66    0.62
   1 -13   2    1.17    0.82
   1 -13   2    0.62    0.69
  -2  13  -2    2.71    0.87
   2 -13   2    0.87    0.77
   2 -13   2    0.45    0.70
  -3  13  -2   17.40    2.21
   3 -13   2   18.82    2.24
   3 -13   2   20.32    2.46
  -4  13  -2    1.26    0.84
   4 -13   2    0.95    0.83
   4 -13   2    1.72    0.88
  -5  13  -2   -1.40    0.88
   5 -13   2    0.47    0.84
   4  12  -2    0.88    0.93
   4  12  -2    2.00    1.01
  -4 -12   2    0.36    0.99
   3  12  -2    8.26    1.50
   3  12  -2    7.31    1.82
  -3 -12   2   11.37    1.98
   2  12  -2    1.05    0.82
   2  12  -2    1.47    0.76
  -2 -12   2    1.85    0.87
  -2 -12   2    1.14    0.75
   1  12  -2    4.11    0.97
   1  12  -2    5.58    0.94
  -1 -12   2    5.68    1.25
  -1 -12   2    4.28    0.96
   0  12  -2    0.91    0.58
   0  12  -2    1.69    0.65
   0 -12   2    0.07    0.46
   0 -12   2    1.06    0.64
  -1  12  -2    0.59    0.52
  -1  12  -2    0.62    0.53
   1 -12   2    0.29    0.57
   1 -12   2    1.55    0.76
  -2  12  -2    1.54    0.80
  -2  12  -2    0.84    0.51
   2 -12   2    0.64    0.57
   2 -12   2    0.16    0.44
  -3  12  -2   13.68    1.48
  -3  12  -2   13.84    1.98
   3 -12   2   13.84    1.99
   3 -12   2   15.27    1.93
  -4  12  -2   -0.02    0.61
   4 -12   2    0.26    0.66
   4 -12   2    0.68    0.98
  -5  12  -2    0.79    0.88
  -5  12  -2    2.86    1.24
   5 -12   2    3.12    1.32
   5  11  -2    1.71    1.15
   5  11  -2    1.09    0.86
  -5 -11   2    0.56    0.94
   4  11  -2    0.00    0.78
   4  11  -2    0.06    0.84
  -4 -11   2   -0.14    0.76
   3  11  -2   12.97    2.05
   3  11  -2   10.80    1.65
  -3 -11   2   15.79    2.26
   2  11  -2    0.20    0.52
  -2 -11   2    0.25    0.69
  -2 -11   2   -0.61    0.41
  -2 -11   2   -0.37    0.63
   1  11  -2    2.59    0.75
   1  11  -2    3.39    0.73
  -1 -11   2    2.95    1.04
  -1 -11   2    3.24    0.79
   0  11  -2    3.64    0.79
   0  11  -2    4.01    0.83
   0 -11   2    3.37    0.77
   0 -11   2    2.23    0.79
  -1  11  -2   11.31    1.25
  -1  11  -2   10.53    1.36
   1 -11   2   11.21    1.57
   1 -11   2    9.19    1.36
  -2  11  -2    1.34    0.55
  -2  11  -2    1.06    0.67
   2 -11   2    0.48    0.60
   2 -11   2    2.11    0.71
  -3  11  -2    3.64    1.05
   3 -11   2    4.52    1.00
   3 -11   2    3.37    0.95
  -4  11  -2   52.01    3.66
  -4  11  -2   50.21    3.56
   4 -11   2   49.20    3.55
   4 -11   2   54.43    3.35
  -5  11  -2   12.97    2.10
   5 -11   2   10.61    1.91
   5 -11   2   13.28    2.17
  -6  11  -2    0.07    1.07
   6 -11   2    0.36    0.73
   5  10  -2    0.83    0.78
   5  10  -2    0.28    0.86
  -5 -10   2    0.77    0.87
   4  10  -2    1.33    0.94
   4  10  -2    0.96    0.79
  -4 -10   2    2.92    1.16
   3  10  -2    1.84    0.99
   3  10  -2   -0.49    0.55
  -3 -10   2   -0.44    0.60
   2  10  -2    5.92    1.07
   2  10  -2    6.07    0.82
  -2 -10   2    6.30    0.95
  -2 -10   2    3.72    1.13
  -2 -10   2    7.37    1.35
   1  10  -2   30.90    1.86
   1  10  -2   26.02    1.94
  -1 -10   2   27.75    1.94
  -1 -10   2   30.47    2.33
   0  10  -2   26.52    1.81
   0  10  -2   24.33    1.75
   0 -10   2   27.73    1.92
   0 -10   2   25.66    2.12
  -1  10  -2   20.87    1.48
  -1  10  -2   19.39    1.62
   1 -10   2   20.42    1.99
   1 -10   2   18.88    1.91
  -2  10  -2   19.59    1.96
  -2  10  -2   19.25    1.44
   2 -10   2   19.94    2.02
   2 -10   2   20.47    2.01
  -3  10  -2    3.18    0.93
   3 -10   2    5.46    1.15
   3 -10   2    5.12    1.04
   3 -10   2    4.72    0.84
  -4  10  -2   51.21    3.61
   4 -10   2   53.54    3.23
   4 -10   2   50.79    3.01
   4 -10   2   57.60    3.73
  -5  10  -2    1.70    0.89
   5 -10   2    2.61    0.90
   5 -10   2    2.28    0.87
   5 -10   2    3.16    1.07
  -6  10  -2    3.09    1.16
   6 -10   2    5.23    1.41
   6   9  -2    4.75    1.58
  -6  -9   2    8.29    1.72
   5   9  -2    4.29    1.34
   5   9  -2    2.38    0.96
  -5  -9   2    4.57    1.36
   4   9  -2    0.51    0.77
   4   9  -2    2.27    1.05
  -4  -9   2    2.91    1.11
   3   9  -2   -0.31    0.53
   3   9  -2    0.44    0.52
  -3  -9   2    0.03    0.33
  -3  -9   2    0.39    0.53
   2   9  -2    5.15    1.00
   2   9  -2    5.55    0.73
  -2  -9   2    6.54    1.20
  -2  -9   2    6.32    0.91
  -2  -9   2    5.07    1.22
   1   9  -2   36.72    2.25
   1   9  -2   35.95    2.03
  -1  -9   2   37.50    2.22
  -1  -9   2   36.16    2.50
   0   9  -2   43.17    2.41
   0   9  -2   41.54    2.39
   0  -9   2   41.96    2.50
   0  -9   2   48.15    2.80
  -1   9  -2   38.57    2.15
  -1   9  -2   39.32    2.35
   1  -9   2   37.77    2.40
   1  -9   2   34.14    2.38
  -2   9  -2  102.98    5.27
   2  -9   2  104.74    5.22
   2  -9   2  119.89    5.51
  -3   9  -2   36.87    2.55
   3  -9   2   29.69    2.36
   3  -9   2   33.76    2.09
   3  -9   2   35.00    2.29
  -4   9  -2   15.83    1.97
   4  -9   2   14.43    1.59
   4  -9   2   12.80    1.80
   4  -9   2   15.85    1.57
  -5   9  -2    1.46    0.78
   5  -9   2    1.35    0.67
   5  -9   2    2.07    0.94
   5  -9   2    0.61    0.63
  -6   9  -2    9.35    1.80
   6  -9   2    7.93    1.75
   6  -9   2    9.15    1.52
  -7   9  -2    7.10    1.94
   7  -9   2    8.19    1.98
   6   8  -2   -1.13    0.73
   6   8  -2   -0.76    0.95
  -6  -8   2   -0.55    0.73
   5   8  -2    3.11    1.19
   5   8  -2    4.27    1.16
  -5  -8   2    5.91    1.40
   4   8  -2    9.10    1.54
   4   8  -2    8.84    1.43
  -4  -8   2    7.74    1.47
  -4  -8   2    8.67    1.08
   3   8  -2   84.54    4.73
   3   8  -2   81.68    4.43
  -3  -8   2   86.61    4.03
  -3  -8   2   89.19    4.79
   2   8  -2   59.20    2.76
   2   8  -2   59.06    3.22
  -2  -8   2   57.76    3.53
  -2  -8   2   61.72    3.47
  -2  -8   2   58.98    3.03
   1   8  -2    6.06    0.91
   1   8  -2    7.95    0.83
  -1  -8   2    8.55    1.17
  -1  -8   2    7.34    0.92
   0   8  -2    9.40    1.02
   0   8  -2    8.13    0.93
   0  -8   2   10.17    1.23
   0  -8   2    9.05    1.07
  -1   8  -2   81.18    3.95
  -1   8  -2   79.93    3.75
   1  -8   2   79.69    4.04
   1  -8   2   82.41    4.05
  -2   8  -2  192.44    8.48
   2  -8   2  191.06    8.04
   2  -8   2  198.61    8.36
   2  -8   2  189.36    8.51
  -3   8  -2   27.97    2.16
   3  -8   2   22.58    2.01
   3  -8   2   27.53    1.87
   3  -8   2   27.10    1.77
  -4   8  -2    6.97    1.37
   4  -8   2    5.77    0.95
   4  -8   2    5.36    1.14
   4  -8   2    9.01    1.17
  -5   8  -2    4.31    1.16
   5  -8   2    5.23    1.02
   5  -8   2    4.49    0.87
  -6   8  -2   -0.44    0.52
   6  -8   2    1.05    0.76
  -7   8  -2   19.44    2.84
   7  -8   2   24.16    3.00
   7  -8   2   19.88    2.45
   6   7  -2   -0.60    0.83
   6   7  -2    0.24    0.90
  -6  -7   2    0.58    0.84
   5   7  -2    1.07    0.80
   5   7  -2    0.40    0.62
  -5  -7   2    1.42    0.85
   4   7  -2    0.61    0.50
   4   7  -2    0.41    0.49
  -4  -7   2    1.86    0.83
  -4  -7   2    0.36    0.38
   3   7  -2    3.63    0.93
   3   7  -2    3.39    0.83
  -3  -7   2    4.42    0.69
  -3  -7   2    2.90    0.81
   2   7  -2   26.16    1.80
   2   7  -2   26.92    1.40
  -2  -7   2   28.21    1.68
  -2  -7   2   22.46    1.87
   1   7  -2   23.57    1.35
   1   7  -2   22.03    1.54
  -1  -7   2   25.11    1.52
  -1  -7   2   24.43    1.74
   0   7  -2    4.25    0.64
   0   7  -2    6.34    0.75
   0  -7   2    5.36    0.78
   0  -7   2    6.65    0.90
  -1   7  -2   13.81    1.16
   1  -7   2   17.22    1.35
   1  -7   2   16.69    1.27
  -2   7  -2   22.57    1.68
   2  -7   2   20.92    1.49
   2  -7   2   21.00    1.40
   2  -7   2   19.83    1.57
  -3   7  -2    9.25    1.32
   3  -7   2   11.54    1.19
   3  -7   2   10.58    1.35
   3  -7   2   11.95    1.21
  -4   7  -2   -0.26    0.35
   4  -7   2   -0.08    0.36
   4  -7   2    0.71    0.46
  -5   7  -2    6.27    1.29
   5  -7   2    7.79    1.04
   5  -7   2    7.82    1.21
  -6   7  -2    1.75    0.98
  -6   7  -2    3.39    0.97
   6  -7   2    1.02    0.73
  -7   7  -2    2.35    1.12
   7  -7   2    1.95    1.14
   7   6  -2    2.44    1.31
  -7  -6   2    1.99    1.34
   6   6  -2    3.46    1.28
  -6  -6   2    4.66    1.25
   5   6  -2    2.12    0.81
   5   6  -2    2.34    0.84
  -5  -6   2    1.54    0.71
  -5  -6   2    0.49    0.49
   4   6  -2    2.09    0.76
   4   6  -2    1.26    0.70
  -4  -6   2    1.68    0.73
  -4  -6   2    1.38    0.47
   3   6  -2    1.66    0.60
   3   6  -2    2.24    0.62
  -3  -6   2    1.02    0.35
  -3  -6   2    1.57    0.36
  -3  -6   2    1.26    0.66
   2   6  -2    5.31    0.80
  -2  -6   2    5.25    0.56
  -2  -6   2    5.48    0.73
  -2  -6   2    4.97    0.87
   1   6  -2   85.50    3.60
   1   6  -2   84.25    3.90
  -1  -6   2   88.08    3.73
  -1  -6   2   82.45    3.81
  -1  -6   2   81.25    4.05
   0   6  -2    3.06    0.50
   0   6  -2    4.27    0.55
   0  -6   2    2.78    0.50
   0  -6   2    2.34    0.53
   0  -6   2    2.27    0.49
  -1   6  -2    0.62    0.26
  -1   6  -2    0.23    0.28
   1  -6   2    0.60    0.36
   1  -6   2    0.18    0.29
   1  -6   2    0.44    0.23
  -2   6  -2    1.62    0.53
   2  -6   2    1.78    0.44
   2  -6   2    1.35    0.48
   2  -6   2    1.33    0.42
  -3   6  -2   -0.50    0.35
   3  -6   2   -0.30    0.21
   3  -6   2   -0.06    0.26
  -4   6  -2    3.73    0.73
  -4   6  -2    2.55    0.86
   4  -6   2    5.04    0.85
   4  -6   2    3.88    0.66
  -5   6  -2   10.44    1.64
  -5   6  -2   12.09    1.47
   5  -6   2    8.98    1.05
   5  -6   2    9.75    1.37
  -6   6  -2    0.18    0.64
  -6   6  -2    0.22    0.62
   6  -6   2   -0.32    0.67
  -7   6  -2    3.48    1.20
  -7   6  -2    1.05    0.92
   7  -6   2    1.62    1.09
   7   5  -2    1.41    0.94
  -7  -5   2    0.03    0.82
   6   5  -2    1.10    0.78
   6   5  -2    1.31    0.98
  -6  -5   2    2.29    0.92
   5   5  -2   -0.37    0.58
   5   5  -2   -0.46    0.39
  -5  -5   2    0.59    0.60
  -5  -5   2   -0.18    0.37
   4   5  -2   17.92    1.84
   4   5  -2   17.83    1.77
  -4  -5   2   15.88    1.27
  -4  -5   2   16.09    1.76
   3   5  -2   -0.08    0.35
   3   5  -2   -0.31    0.24
  -3  -5   2   -0.25    0.23
  -3  -5   2    0.34    0.28
  -3  -5   2    0.55    0.24
   2   5  -2   26.47    1.67
  -2  -5   2   27.72    1.60
  -2  -5   2   26.44    1.30
  -2  -5   2   27.80    1.85
   1   5  -2   39.87    2.04
   1   5  -2   39.00    1.77
   1   5  -2   40.57    2.07
  -1  -5   2   39.79    2.23
  -1  -5   2   38.04    1.99
  -1  -5   2   36.42    2.14
  -1  -5   2   41.21    1.87
   0   5  -2    1.12    0.41
   0   5  -2    0.88    0.26
   0   5  -2    0.90    0.30
   0   5  -2    0.72    0.26
   0  -5   2    1.22    0.32
   0  -5   2    0.44    0.26
   0  -5   2    1.42    0.32
  -1   5  -2   57.47    2.71
  -1   5  -2   60.41    2.84
  -1   5  -2   54.37    2.80
   1  -5   2   57.08    2.89
   1  -5   2   58.35    2.71
   1  -5   2   59.03    2.78
   1  -5   2   60.91    2.41
   1  -5   2   63.43    3.16
  -2   5  -2    6.91    0.93
  -2   5  -2    8.33    0.83
   2  -5   2    7.51    0.80
   2  -5   2    7.09    0.92
   2  -5   2    7.39    0.77
  -3   5  -2    0.68    0.36
  -3   5  -2    1.38    0.59
   3  -5   2    1.75    0.39
   3  -5   2    1.24    0.43
  -4   5  -2    0.52    0.45
  -4   5  -2    1.28    0.50
   4  -5   2    0.30    0.30
   4  -5   2    0.17    0.29
   4  -5   2    0.71    0.48
  -5   5  -2    3.42    0.86
  -5   5  -2    2.51    0.85
   5  -5   2    3.94    0.94
   5  -5   2    3.76    0.65
  -6   5  -2   -0.25    0.59
  -6   5  -2   -0.58    0.42
   6  -5   2    0.26    0.62
  -7   5  -2    1.15    1.08
  -7   5  -2    0.67    0.79
   7  -5   2    0.28    0.88
   7   4  -2   -0.62    0.80
   6   4  -2    1.10    0.93
  -6  -4   2    3.14    0.90
  -6  -4   2    2.03    0.93
   5   4  -2    8.44    1.35
   5   4  -2    8.84    1.27
  -5  -4   2    9.01    1.39
  -5  -4   2    8.26    1.17
   4   4  -2   34.68    2.40
   4   4  -2   35.43    2.28
  -4  -4   2   36.61    2.10
  -4  -4   2   38.38    2.45
   3   4  -2    2.43    0.62
   3   4  -2    2.43    0.59
  -3  -4   2    1.32    0.37
  -3  -4   2    1.71    0.56
  -3  -4   2    2.02    0.35
   2   4  -2   47.28    2.53
   2   4  -2   50.55    2.45
  -2  -4   2   51.69    2.25
  -2  -4   2   50.95    2.12
  -2  -4   2   48.10    2.64
  -2  -4   2   49.58    2.48
   1   4  -2   48.54    2.27
   1   4  -2   45.87    2.28
   1   4  -2   49.64    1.97
  -1  -4   2   45.12    2.22
  -1  -4   2   47.52    2.38
  -1  -4   2   43.10    2.37
   0   4  -2   30.37    1.51
   0   4  -2   28.28    1.54
   0   4  -2   27.98    1.41
   0   4  -2   29.04    1.55
   0   4  -2   27.69    1.47
   0  -4   2   29.13    1.53
   0  -4   2   29.28    1.43
   0  -4   2   26.22    1.52
  -1   4  -2  215.79    8.42
  -1   4  -2  207.32    8.41
  -1   4  -2  195.40    8.47
   1  -4   2  208.63    8.38
   1  -4   2  207.90    8.42
   1  -4   2  219.13    8.55
   1  -4   2  209.69    8.55
  -2   4  -2  147.02    5.76
  -2   4  -2  138.93    5.67
  -2   4  -2  141.53    6.08
   2  -4   2  136.82    5.70
   2  -4   2  131.51    5.87
  -3   4  -2   19.45    1.32
  -3   4  -2   17.88    1.49
   3  -4   2   23.14    1.18
   3  -4   2   20.75    1.19
   3  -4   2   17.79    1.35
  -4   4  -2   49.84    2.74
  -4   4  -2   42.23    2.83
   4  -4   2   49.46    2.35
   4  -4   2   44.66    2.73
   4  -4   2   49.11    2.19
  -5   4  -2    2.72    0.81
  -5   4  -2    4.85    1.07
   5  -4   2    3.70    0.62
   5  -4   2    2.18    0.72
  -6   4  -2    4.46    1.16
  -6   4  -2    6.05    1.34
   6  -4   2    6.38    1.27
  -7   4  -2    0.95    0.89
  -7   4  -2   -1.39    0.64
   7  -4   2   -0.07    0.57
   7   3  -2    1.02    0.96
  -7  -3   2   -0.33    0.89
   6   3  -2   -0.16    0.69
  -6  -3   2    0.33    0.55
  -6  -3   2    0.48    0.65
  -6  -3   2    0.47    0.61
   5   3  -2    3.03    0.73
   5   3  -2    2.02    0.73
  -5  -3   2    1.48    0.61
  -5  -3   2    0.98    0.66
   4   3  -2   -0.15    0.43
   4   3  -2    0.61    0.37
  -4  -3   2    0.25    0.34
  -4  -3   2   -0.14    0.37
   3   3  -2  103.47    5.09
   3   3  -2  111.89    4.98
  -3  -3   2  117.07    4.68
  -3  -3   2  107.64    5.13
  -3  -3   2  118.43    4.83
   2   3  -2  172.28    7.41
   2   3  -2  184.26    7.35
  -2  -3   2  169.55    7.48
  -2  -3   2  184.23    6.99
  -2  -3   2  180.54    7.10
   1   3  -2    1.37    0.32
   1   3  -2    0.68    0.23
   1   3  -2    1.08    0.29
   1   3  -2    1.02    0.10
  -1  -3   2    0.83    0.25
  -1  -3   2    0.98    0.29
  -1  -3   2    1.28    0.28
   0   3  -2    5.86    0.42
   0   3  -2    5.74    0.56
   0   3  -2    4.80    0.49
   0   3  -2    5.51    0.57
   0   3  -2    4.76    0.50
   0  -3   2    5.09    0.53
   0  -3   2    5.46    0.41
   0  -3   2    5.05    0.53
   0  -3   2    5.37    0.56
  -1   3  -2  392.00   14.94
  -1   3  -2  388.28   15.25
  -1   3  -2  400.66   15.14
  -1   3  -2  392.04   15.31
   1  -3   2  386.71   15.32
   1  -3   2  377.14   15.24
   1  -3   2  404.84   15.32
   1  -3   2  379.32   15.11
  -2   3  -2  101.74    4.21
  -2   3  -2   96.56    4.59
  -2   3  -2  103.16    4.54
  -2   3  -2  121.20    4.93
   2  -3   2   97.74    4.46
   2  -3   2  102.18    4.20
  -3   3  -2   11.72    1.28
   3  -3   2    9.49    1.09
   3  -3   2   12.80    0.70
   3  -3   2   12.20    0.76
  -4   3  -2   31.42    2.22
   4  -3   2   32.02    1.46
   4  -3   2   32.81    1.66
   4  -3   2   30.63    2.10
  -5   3  -2   10.57    1.45
  -5   3  -2    7.30    1.35
   5  -3   2    8.60    0.88
   5  -3   2    5.76    1.15
  -6   3  -2    1.40    0.84
  -6   3  -2   -0.05    0.51
   6  -3   2    0.53    0.75
  -7   3  -2   18.65    2.48
  -7   3  -2   14.24    2.21
   7  -3   2   17.01    2.38
   7   2  -2   -0.04    0.58
  -7  -2   2   -0.48    0.77
  -7  -2   2   -0.70    0.64
   6   2  -2   15.98    2.07
  -6  -2   2   17.23    1.90
  -6  -2   2   14.27    2.15
  -6  -2   2   17.25    1.88
   5   2  -2    4.78    0.79
   5   2  -2    4.63    1.03
  -5  -2   2    6.01    1.03
  -5  -2   2    4.58    0.88
   4   2  -2    2.58    0.56
   4   2  -2    2.65    0.75
  -4  -2   2    3.03    0.64
  -4  -2   2    2.37    0.63
   3   2  -2   17.02    1.11
   3   2  -2   17.71    1.31
   3   2  -2   17.32    1.14
  -3  -2   2   19.23    1.36
  -3  -2   2   16.45    1.10
   2   2  -2   38.76    1.99
   2   2  -2   37.20    1.73
   2   2  -2   43.98    2.09
   2   2  -2   38.09    1.95
  -2  -2   2   36.93    1.74
  -2  -2   2   37.43    2.02
   1   2  -2  149.04    6.25
   1   2  -2  158.82    6.36
   1   2  -2  155.44    6.27
  -1  -2   2  154.08    6.34
  -1  -2   2  149.90    6.27
  -1  -2   2  161.29    6.28
   0   2  -2  730.17   28.50
   0  -2   2  733.58   28.62
   0  -2   2  778.57   28.50
   0  -2   2  756.57   28.65
   0  -2   2  729.58   28.64
  -1   2  -2  177.52    7.00
  -1   2  -2  183.33    7.24
  -1   2  -2  180.76    7.26
  -1   2  -2  176.53    7.28
   1  -2   2  170.66    6.99
   1  -2   2  182.41    7.25
   1  -2   2  181.97    7.24
   1  -2   2  188.29    7.27
  -2   2  -2   18.27    1.23
  -2   2  -2   20.54    1.24
  -2   2  -2   21.78    1.44
   2  -2   2   18.22    1.19
   2  -2   2   18.93    0.87
   2  -2   2   16.71    0.80
   2  -2   2   19.46    1.20
  -3   2  -2    2.19    0.61
   3  -2   2    3.38    0.66
   3  -2   2    3.40    0.60
   3  -2   2    3.63    0.25
   3  -2   2    3.34    0.38
  -4   2  -2    6.61    1.05
   4  -2   2    5.98    0.90
   4  -2   2    7.65    0.70
   4  -2   2    8.13    1.13
  -5   2  -2   79.85    4.60
   5  -2   2   85.17    4.62
   5  -2   2   89.54    3.86
  -6   2  -2   41.73    3.16
  -6   2  -2   53.47    3.54
   6  -2   2   46.88    3.37
  -7   2  -2    1.39    1.07
  -7   2  -2    0.66    0.96
   7  -2   2    0.01    0.68
   7   1  -2   11.51    1.89
   7   1  -2    7.31    1.77
  -7  -1   2    9.35    1.60
  -7  -1   2   10.12    1.97
   6   1  -2   10.87    1.67
  -6  -1   2   10.34    1.47
  -6  -1   2   10.07    1.43
  -6  -1   2    8.12    1.54
   5   1  -2    0.49    0.58
   5   1  -2    2.10    0.51
  -5  -1   2    1.45    0.58
  -5  -1   2    0.97    0.54
  -5  -1   2    0.33    0.52
   4   1  -2   20.28    1.24
   4   1  -2   20.17    1.58
  -4  -1   2   19.76    1.48
  -4  -1   2   17.60    1.37
  -4  -1   2   16.97    1.75
   3   1  -2   92.14    3.99
   3   1  -2   89.67    3.84
   3   1  -2   89.26    4.16
  -3  -1   2   88.28    3.99
  -3  -1   2   89.81    4.15
   2   1  -2    4.67    0.49
   2   1  -2    4.60    0.41
   2   1  -2    5.18    0.64
   2   1  -2    5.21    0.65
  -2  -1   2    5.51    0.65
  -2  -1   2    5.65    0.70
  -2  -1   2    5.69    0.67
  -2  -1   2    4.07    0.46
   1   1  -2   97.47    4.44
   1   1  -2  108.36    4.72
   1   1  -2  119.15    4.66
   1   1  -2  105.47    4.67
  -1  -1   2  117.19    4.64
  -1  -1   2  120.29    4.72
  -1  -1   2  121.19    4.76
  -1  -1   2  119.58    4.46
  -1  -1   2  118.86    4.45
  -1   1  -2  238.65    9.30
  -1   1  -2  220.91    8.97
  -1   1  -2  242.22    9.35
  -1   1  -2  231.80    9.29
   1  -1   2  244.59    9.22
   1  -1   2  238.73    9.28
   1  -1   2  245.78    9.37
   1  -1   2  217.85    9.01
   1  -1   2  233.88    9.29
  -2   1  -2   20.80    1.30
  -2   1  -2   21.42    1.45
  -2   1  -2   19.11    1.27
   2  -1   2   21.50    1.50
   2  -1   2   21.70    1.32
   2  -1   2   19.33    1.26
  -3   1  -2    2.05    0.56
   3  -1   2    1.12    0.43
   3  -1   2    1.33    0.43
  -4   1  -2   29.62    2.16
   4  -1   2   32.24    2.07
   4  -1   2   35.30    1.67
   4  -1   2   29.36    2.16
  -5   1  -2  105.72    5.39
   5  -1   2  105.36    5.11
   5  -1   2  100.77    5.33
  -6   1  -2    2.40    1.01
   6  -1   2    2.73    0.78
   6  -1   2    2.37    0.93
  -7   1  -2    0.49    0.75
  -7   1  -2    0.82    0.97
   7  -1   2   -0.30    0.98
   7   0  -2    2.67    1.21
  -7   0   2    2.41    0.99
  -7   0   2    0.65    0.69
   6   0  -2    4.07    1.02
  -6   0   2    3.15    0.83
  -6   0   2    3.21    0.90
  -6   0   2    3.69    1.20
   5   0  -2    2.89    0.51
   5   0  -2    0.68    0.67
  -5   0   2    1.13    0.62
  -5   0   2    1.77    0.67
  -5   0   2    2.11    0.63
   4   0  -2   64.05    2.67
   4   0  -2   52.82    3.06
  -4   0   2   60.12    3.06
  -4   0   2   54.33    2.98
  -4   0   2   52.73    3.20
   3   0  -2  127.28    5.15
   3   0  -2  143.41    5.87
   3   0  -2  124.07    5.56
  -3   0   2  122.65    5.72
  -3   0   2  128.32    5.51
  -3   0   2  125.37    5.57
   2   0  -2  171.18    6.74
   2   0  -2  164.36    6.43
   2   0  -2  165.49    6.78
   2   0  -2  171.24    6.88
  -2   0   2  162.23    6.86
  -2   0   2  173.93    6.79
  -2   0   2  165.71    6.73
  -2   0   2  155.04    6.90
   1   0  -2  266.80   10.41
   1   0  -2  233.61   10.52
  -1   0   2  284.87   10.60
  -1   0   2  274.00   10.55
  -1   0   2  268.09   10.40
  -1   0   2  277.97   10.41
  -1   0   2  268.54   10.39
  -1   0  -2  147.51    6.53
  -1   0  -2  165.54    6.64
  -1   0  -2  161.97    6.58
  -1   0  -2  168.99    6.30
  -1   0  -2  154.56    6.53
   1   0   2  168.70    6.40
   1   0   2  166.07    6.64
   1   0   2  164.15    6.30
   1   0   2  165.47    6.56
  -2   0  -2   43.17    2.19
  -2   0  -2   41.57    2.31
  -2   0  -2   41.16    1.76
  -2   0  -2   41.65    2.16
   2   0   2   42.43    2.37
   2   0   2   40.98    2.16
   2   0   2   41.66    1.77
   2   0   2   41.98    2.16
  -3   0  -2   28.33    1.87
  -3   0  -2   31.58    1.46
   3   0   2   29.04    1.85
   3   0   2   33.73    1.51
   3   0   2   29.66    1.93
  -4   0  -2   40.07    1.88
  -4   0  -2   36.53    2.44
   4   0   2   39.34    1.94
   4   0   2   36.79    2.50
   4   0   2   40.94    2.40
  -5   0  -2   19.63    1.16
  -5   0  -2   17.91    2.00
   5   0   2   20.29    1.71
   5   0   2   17.11    2.01
  -6   0  -2    2.38    1.00
   6   0   2    2.02    0.83
   6   0   2    3.16    1.02
  -7   0  -2    6.13    1.59
   7   0   2    4.51    1.47
   8  -1  -2   -0.76    1.03
  -8   1   2    1.55    0.93
  -8   1   2    0.03    0.91
   7  -1  -2    5.45    1.38
  -7   1   2    4.74    1.28
  -7   1   2    1.97    1.14
   6  -1  -2   14.96    1.95
   6  -1  -2   12.72    1.81
  -6   1   2   12.39    1.84
  -6   1   2   15.14    1.81
   5  -1  -2   42.74    2.70
  -5   1   2   39.26    2.80
  -5   1   2   37.66    2.56
  -5   1   2   43.19    2.51
   4  -1  -2    0.78    0.41
  -4   1   2    0.73    0.43
  -4   1   2    1.46    0.48
  -4   1   2    1.20    0.49
   3  -1  -2    7.50    0.87
  -3   1   2    9.49    1.05
  -3   1   2    6.19    0.82
  -3   1   2    8.63    0.94
  -3   1   2    8.63    0.49
   2  -1  -2   66.99    3.01
   2  -1  -2   61.86    2.79
   2  -1  -2   62.51    2.88
   2  -1  -2   63.56    2.94
  -2   1   2   63.77    2.79
  -2   1   2   62.08    2.98
  -2   1   2   62.99    2.94
  -2   1   2   59.94    2.85
   1  -1  -2  285.69   11.64
   1  -1  -2  294.60   11.39
   1  -1  -2  295.01   11.62
  -1   1   2  297.39   11.65
  -1   1   2  298.33   11.35
  -1   1   2  289.02   11.54
  -1   1   2  304.75   11.39
   0  -1  -2   21.57    1.11
   0   1   2   22.97    1.13
   0   1   2   24.95    1.02
   0   1   2   19.31    1.09
   0   1   2   22.77    1.15
  -1  -1  -2    6.53    0.48
  -1  -1  -2    5.53    0.55
  -1  -1  -2    5.48    0.41
  -1  -1  -2    6.36    0.65
   1   1   2    5.67    0.62
   1   1   2    6.13    0.43
   1   1   2    5.10    0.54
   1   1   2    4.35    0.50
   1   1   2    6.02    0.31
  -2  -1  -2  227.13    9.19
  -2  -1  -2  233.12    9.60
  -2  -1  -2  218.56    9.21
   2   1   2  223.88    9.24
   2   1   2  236.03    8.91
   2   1   2  220.78    9.16
   2   1   2  220.15    9.27
  -3  -1  -2  143.64    5.78
  -3  -1  -2  141.89    6.23
   3   1   2  135.39    6.20
   3   1   2  139.36    6.27
   3   1   2  138.15    6.19
   3   1   2  142.88    5.77
  -4  -1  -2    1.01    0.33
  -4  -1  -2   -0.83    0.29
   4   1   2    0.03    0.32
   4   1   2   -0.13    0.28
   4   1   2   -0.09    0.29
   4   1   2    0.40    0.28
  -5  -1  -2    3.19    0.94
  -5  -1  -2    2.91    0.53
   5   1   2    3.16    1.00
   5   1   2    2.11    0.75
  -6  -1  -2    0.32    0.54
   6   1   2    0.68    0.75
   6   1   2    0.42    0.58
  -7  -1  -2    0.05    0.82
   7   1   2   -0.45    0.89
   8  -2  -2    2.90    1.36
  -8   2   2    3.93    1.53
  -8   2   2    3.40    1.35
   7  -2  -2    0.75    0.98
  -7   2   2    2.49    0.97
  -7   2   2    0.58    0.79
   6  -2  -2    3.82    1.04
   6  -2  -2    2.82    0.83
  -6   2   2    1.28    0.76
  -6   2   2    3.60    1.01
   5  -2  -2    0.58    0.57
   5  -2  -2    0.38    0.39
  -5   2   2   -0.54    0.46
  -5   2   2    0.11    0.40
   4  -2  -2   -0.27    0.19
  -4   2   2    0.53    0.42
  -4   2   2    0.01    0.15
  -4   2   2    0.28    0.32
   3  -2  -2   43.48    2.23
  -3   2   2   43.71    1.85
  -3   2   2   41.97    2.34
  -3   2   2   42.54    2.41
   2  -2  -2   93.23    4.00
   2  -2  -2   92.01    4.04
   2  -2  -2   85.14    3.72
   2  -2  -2   84.16    3.95
   2  -2  -2   90.73    3.98
  -2   2   2   90.19    3.74
  -2   2   2   83.57    3.95
  -2   2   2   89.40    3.96
   1  -2  -2    0.16    0.15
   1  -2  -2    0.15    0.14
   1  -2  -2   -0.05    0.12
   1  -2  -2   -0.02    0.06
  -1   2   2    0.29    0.14
  -1   2   2    0.07    0.17
  -1   2   2    0.01    0.06
  -1   2   2    0.17    0.15
   0  -2  -2   11.02    0.54
   0  -2  -2   10.58    0.75
   0  -2  -2   12.01    0.78
   0  -2  -2   11.20    0.77
   0   2   2   10.86    0.74
   0   2   2   11.55    0.76
   0   2   2   11.29    0.78
   0   2   2   11.70    0.57
  -1  -2  -2   37.91    1.86
  -1  -2  -2   38.81    1.99
  -1  -2  -2   40.11    1.80
  -1  -2  -2   36.38    1.79
   1   2   2   36.60    1.82
   1   2   2   36.28    1.85
   1   2   2   39.93    1.84
   1   2   2   37.25    1.78
   1   2   2   38.93    2.01
  -2  -2  -2    0.82    0.27
  -2  -2  -2    0.48    0.30
   2   2   2    0.52    0.22
   2   2   2    0.37    0.28
   2   2   2    0.55    0.34
  -3  -2  -2    1.12    0.35
  -3  -2  -2    1.23    0.42
   3   2   2    1.57    0.49
   3   2   2    1.73    0.53
   3   2   2    1.63    0.39
  -4  -2  -2   12.95    1.01
  -4  -2  -2   10.75    1.36
   4   2   2   10.03    1.35
   4   2   2   11.02    1.35
   4   2   2   11.33    1.42
  -5  -2  -2    4.83    0.76
  -5  -2  -2    4.43    1.05
   5   2   2    5.14    1.09
   5   2   2    4.57    1.14
   5   2   2    7.23    1.24
  -6  -2  -2    1.36    0.85
   6   2   2    2.23    0.91
   6   2   2    4.44    1.07
  -7  -2  -2   11.78    2.04
   7   2   2    7.71    1.70
   7  -3  -2    0.79    0.71
  -7   3   2    0.02    0.59
  -7   3   2    0.36    0.59
   6  -3  -2   12.14    1.52
   6  -3  -2   13.17    1.74
  -6   3   2    6.66    1.34
  -6   3   2    7.83    1.48
   5  -3  -2   18.06    1.83
   5  -3  -2   19.90    1.61
  -5   3   2   18.37    1.94
  -5   3   2   19.70    2.07
   4  -3  -2    8.72    1.08
   4  -3  -2   10.09    1.20
  -4   3   2   11.57    1.35
  -4   3   2   11.54    1.37
  -4   3   2   11.83    0.74
   3  -3  -2   19.84    1.41
   3  -3  -2   20.21    1.29
  -3   3   2   20.40    1.06
  -3   3   2   18.69    1.45
  -3   3   2   19.73    1.44
   2  -3  -2   -0.09    0.14
   2  -3  -2    0.19    0.16
  -2   3   2    0.16    0.16
  -2   3   2    0.50    0.26
  -2   3   2    0.39    0.27
   1  -3  -2    0.38    0.26
   1  -3  -2    0.15    0.19
  -1   3   2    0.42    0.24
  -1   3   2    0.26    0.23
  -1   3   2    0.20    0.07
   0  -3  -2  143.21    5.65
   0  -3  -2  131.16    5.63
   0  -3  -2  136.03    5.25
   0   3   2  133.95    5.60
   0   3   2  133.22    5.66
   0   3   2  133.17    5.25
   0   3   2  134.76    5.65
   0   3   2  129.93    5.27
  -1  -3  -2    3.56    0.49
  -1  -3  -2    3.53    0.44
  -1  -3  -2    2.09    0.41
   1   3   2    3.73    0.59
   1   3   2    3.05    0.47
   1   3   2    3.03    0.42
   1   3   2    2.52    0.43
  -2  -3  -2    0.02    0.19
   2   3   2    0.20    0.23
   2   3   2   -0.25    0.19
   2   3   2    0.91    0.37
  -3  -3  -2    2.90    0.66
  -3  -3  -2    2.95    0.57
   3   3   2    3.80    0.79
   3   3   2    2.40    0.59
   3   3   2    2.73    0.34
  -4  -3  -2   21.23    1.77
  -4  -3  -2   24.66    1.64
   4   3   2   26.77    2.01
   4   3   2   26.82    1.50
   4   3   2   26.61    1.93
   4   3   2   22.21    1.89
  -5  -3  -2   27.92    1.85
  -5  -3  -2   26.59    2.19
   5   3   2   24.76    2.40
   5   3   2   25.92    2.60
   5   3   2   23.63    2.42
  -6  -3  -2    6.25    1.36
   6   3   2    5.80    1.44
   6   3   2    8.15    1.49
  -7  -3  -2    3.26    1.21
   7   3   2   -0.14    0.96
   7  -4  -2    0.91    0.90
  -7   4   2   -0.73    0.79
  -7   4   2   -0.01    0.53
   6  -4  -2   -0.03    0.59
   6  -4  -2   -0.18    0.47
  -6   4   2   -0.31    0.41
  -6   4   2   -0.44    0.61
   5  -4  -2    0.11    0.51
   5  -4  -2    0.00    0.44
  -5   4   2    0.12    0.42
  -5   4   2    0.19    0.46
   4  -4  -2   20.81    1.47
   4  -4  -2   18.19    1.50
  -4   4   2   18.84    1.84
  -4   4   2   17.54    1.75
  -4   4   2   19.96    1.16
   3  -4  -2   41.01    2.39
   3  -4  -2   42.15    2.12
  -3   4   2   41.39    2.45
   2  -4  -2    1.62    0.48
   2  -4  -2    1.93    0.28
  -2   4   2    1.87    0.48
  -2   4   2    4.09    0.67
   1  -4  -2   10.23    1.02
  -1   4   2   11.49    0.95
  -1   4   2   11.91    0.55
   0  -4  -2    4.97    0.35
   0  -4  -2    4.17    0.59
   0   4   2    3.60    0.55
   0   4   2    3.64    0.59
   0   4   2    4.28    0.34
  -1  -4  -2   42.16    1.96
  -1  -4  -2   39.31    1.66
  -1  -4  -2   40.50    2.14
   1   4   2   39.28    2.28
   1   4   2   38.50    1.94
   1   4   2   42.94    2.13
  -2  -4  -2    9.87    1.02
   2   4   2    9.20    0.97
   2   4   2    8.98    1.13
   2   4   2   11.03    1.04
  -3  -4  -2    4.99    0.84
   3   4   2    5.10    0.33
   3   4   2    5.00    0.86
   3   4   2    5.33    0.97
  -4  -4  -2    1.40    0.55
  -4  -4  -2    0.78    0.45
   4   4   2    1.59    0.58
   4   4   2    0.67    0.51
  -5  -4  -2    8.61    1.21
  -5  -4  -2    6.64    1.21
   5   4   2    6.41    1.35
   5   4   2    8.22    1.45
   5   4   2    8.29    1.35
  -6  -4  -2    2.91    1.06
   6   4   2    2.27    1.02
   6   4   2    1.01    0.88
  -7  -4  -2    3.69    1.28
   7   4   2    3.05    1.14
   7  -5  -2    2.03    1.06
  -7   5   2    1.47    0.86
   6  -5  -2    1.03    0.69
   6  -5  -2    3.20    0.89
  -6   5   2    0.32    0.72
  -6   5   2    0.22    0.52
   5  -5  -2    0.55    0.52
   5  -5  -2   -0.49    0.35
  -5   5   2    0.99    0.69
   4  -5  -2    0.20    0.48
   4  -5  -2   -0.26    0.34
  -4   5   2    0.11    0.37
  -4   5   2    0.44    0.31
   3  -5  -2   57.30    2.63
   3  -5  -2   50.87    2.96
  -3   5   2   51.37    3.02
  -3   5   2   53.18    3.08
  -3   5   2   63.41    2.91
   2  -5  -2    0.21    0.11
   2  -5  -2    0.08    0.32
  -2   5   2    0.14    0.32
  -2   5   2    0.26    0.18
   1  -5  -2  109.69    4.89
  -1   5   2  104.88    4.81
  -1   5   2  106.19    4.21
   0  -5  -2   53.70    2.28
   0  -5  -2   53.37    2.77
   0   5   2   53.41    2.68
   0   5   2   51.71    2.77
   0   5   2   52.53    2.29
  -1  -5  -2   55.88    2.94
  -1  -5  -2   59.06    2.43
  -1  -5  -2   60.42    2.70
   1   5   2   57.16    2.68
   1   5   2   56.25    2.87
   1   5   2   57.54    3.10
  -2  -5  -2    5.06    0.78
   2   5   2    6.52    0.81
   2   5   2    6.37    0.84
   2   5   2    6.51    1.05
  -3  -5  -2   35.02    2.25
  -3  -5  -2   37.13    2.23
   3   5   2   36.71    2.57
   3   5   2   36.99    2.30
  -4  -5  -2    4.41    0.97
  -4  -5  -2    3.59    0.86
   4   5   2    5.09    1.00
   4   5   2    5.79    1.19
  -5  -5  -2   24.23    2.37
  -5  -5  -2   21.29    1.81
   5   5   2   22.20    2.50
   5   5   2   20.54    2.34
   5   5   2   21.75    2.33
  -6  -5  -2    3.11    1.15
   6   5   2    1.49    1.01
   6   5   2    2.81    1.19
   6   5   2    3.49    1.13
   7  -6  -2   -0.25    0.85
  -7   6   2    0.13    0.95
   6  -6  -2   25.05    2.30
  -6   6   2   20.05    2.40
   5  -6  -2    3.88    0.93
   5  -6  -2    1.92    0.69
  -5   6   2    2.37    0.93
   4  -6  -2   31.80    2.22
   4  -6  -2   33.52    1.94
  -4   6   2   30.67    2.33
   3  -6  -2    0.44    0.34
   3  -6  -2    0.31    0.24
  -3   6   2    0.53    0.32
  -3   6   2    0.80    0.55
  -3   6   2    0.35    0.39
   2  -6  -2    3.14    0.30
   2  -6  -2    3.53    0.70
  -2   6   2    4.51    0.46
  -2   6   2    3.69    0.75
   1  -6  -2   49.21    2.78
  -1   6   2   52.84    2.17
  -1   6   2   50.04    2.74
   0  -6  -2   17.32    1.09
   0  -6  -2   12.62    1.36
   0   6   2   16.28    0.92
   0   6   2   16.82    1.25
   0   6   2   14.97    1.31
  -1  -6  -2   57.58    2.48
  -1  -6  -2   57.07    3.06
   1   6   2   59.70    2.73
   1   6   2   58.53    2.95
   1   6   2   51.22    3.13
  -2  -6  -2   93.86    4.53
   2   6   2   96.11    4.83
   2   6   2   92.53    4.38
   2   6   2   90.55    4.31
  -3  -6  -2   95.51    4.70
   3   6   2   93.56    5.04
   3   6   2   95.42    4.66
  -4  -6  -2    0.22    0.48
  -4  -6  -2    0.01    0.33
   4   6   2    0.72    0.69
   4   6   2    1.09    0.66
  -5  -6  -2    7.40    1.31
  -5  -6  -2    5.29    1.15
   5   6   2    7.54    1.48
   5   6   2    6.30    1.47
   5   6   2    6.01    1.25
  -6  -6  -2    9.14    1.68
   6   6   2    7.71    1.79
   6   6   2    7.94    1.72
   6   6   2    8.31    1.74
  -7   7   2    2.24    1.02
  -7   7   2    2.32    1.04
   6  -7  -2    2.25    0.93
   6  -7  -2    1.44    0.76
  -6   7   2    1.87    0.86
  -6   7   2    0.63    0.67
   5  -7  -2    3.78    0.94
   5  -7  -2    3.57    0.83
  -5   7   2    4.01    1.04
  -5   7   2    4.13    1.18
   4  -7  -2   49.11    2.44
   4  -7  -2   46.08    2.88
  -4   7   2   42.55    2.94
  -4   7   2   41.03    2.93
   3  -7  -2   35.97    1.77
   3  -7  -2   37.65    2.42
  -3   7   2   36.43    1.90
  -3   7   2   33.56    2.45
   2  -7  -2   26.48    1.93
  -2   7   2   22.85    1.81
  -2   7   2   27.83    1.35
   1  -7  -2    3.08    0.73
  -1   7   2    3.63    0.38
  -1   7   2    2.47    0.61
   0  -7  -2    7.38    1.04
   0  -7  -2    5.90    0.75
   0   7   2    6.90    0.65
   0   7   2    8.48    1.16
   0   7   2    6.59    0.97
  -1  -7  -2   14.39    1.49
  -1  -7  -2   12.20    0.83
   1   7   2   12.51    1.53
   1   7   2   13.27    1.00
   1   7   2   13.13    1.33
  -2  -7  -2   25.23    1.95
   2   7   2   30.20    1.88
   2   7   2   27.60    1.89
   2   7   2   34.18    2.38
  -3  -7  -2   44.20    2.79
   3   7   2   41.84    3.06
   3   7   2   42.96    2.65
  -4  -7  -2    2.04    0.76
  -4  -7  -2    2.62    0.86
   4   7   2    1.50    0.76
   4   7   2    1.59    0.79
  -5  -7  -2   -0.03    0.56
  -5  -7  -2   -0.31    0.57
   5   7   2   -0.53    0.39
   5   7   2    0.19    0.70
   5   7   2    0.24    0.80
  -6  -7  -2    8.70    1.74
   6   7   2    9.39    1.88
   6   7   2   10.80    2.10
   6   7   2    7.33    1.63
  -7   8   2    2.41    1.26
  -7   8   2    1.51    1.18
   6  -8  -2    8.35    1.51
  -6   8   2    6.95    1.59
  -6   8   2    7.34    1.60
   5  -8  -2    2.82    0.83
  -5   8   2    0.52    0.77
  -5   8   2    1.02    0.71
   4  -8  -2    4.83    0.70
   4  -8  -2    6.01    1.10
  -4   8   2    2.77    0.87
   3  -8  -2    5.84    1.10
   3  -8  -2    7.23    0.57
  -3   8   2    6.53    1.16
   2  -8  -2    0.81    0.48
  -2   8   2    0.34    0.51
  -2   8   2    0.53    0.23
   1  -8  -2    0.38    0.45
  -1   8   2   -0.19    0.15
  -1   8   2   -0.16    0.25
   0  -8  -2    0.26    0.51
   0  -8  -2    1.11    0.40
   0   8   2    0.38    0.26
   0   8   2   -0.03    0.37
   0   8   2    0.81    0.30
   0   8   2    0.49    0.47
  -1  -8  -2    0.18    0.45
  -1  -8  -2    0.05    0.21
   1   8   2   -0.03    0.27
   1   8   2    0.44    0.45
   1   8   2    0.45    0.49
  -2  -8  -2    1.09    0.65
   2   8   2    2.21    0.63
   2   8   2    2.08    0.86
   2   8   2    2.12    0.68
  -3  -8  -2   -0.24    0.51
   3   8   2    0.23    0.50
   3   8   2    1.10    0.70
  -4  -8  -2    0.53    0.55
  -4  -8  -2   -0.14    0.45
   4   8   2   -0.08    0.68
   4   8   2   -0.01    0.59
  -5  -8  -2   34.79    2.71
  -5  -8  -2   39.19    2.85
   5   8   2   36.78    3.71
   5   8   2   26.75    2.87
   5   8   2   26.01    2.92
   6  -9  -2    1.74    0.89
  -6   9   2   -0.21    0.58
  -6   9   2    1.27    1.07
   5  -9  -2    0.16    0.59
  -5   9   2   -0.35    0.42
   4  -9  -2   13.19    1.76
  -4   9   2   12.02    1.74
   3  -9  -2    8.04    1.28
  -3   9   2    7.06    1.30
   2  -9  -2    5.65    1.12
  -2   9   2    5.85    1.04
  -2   9   2    5.67    0.57
   1  -9  -2   -0.24    0.47
   1  -9  -2    0.24    0.39
  -1   9   2    0.76    0.27
  -1   9   2   -0.28    0.38
   0  -9  -2    0.65    0.38
   0  -9  -2   -0.04    0.42
   0   9   2    0.45    0.33
   0   9   2    0.62    0.65
   0   9   2    0.61    0.40
  -1  -9  -2    0.27    0.51
  -1  -9  -2   -0.06    0.23
   1   9   2    0.09    0.33
   1   9   2   -0.06    0.35
   1   9   2   -0.36    0.51
  -2  -9  -2   12.73    1.70
   2   9   2   13.94    1.44
   2   9   2   14.41    1.57
   2   9   2   12.02    1.79
  -3  -9  -2   10.38    1.61
   3   9   2   11.54    1.49
   3   9   2    7.75    1.61
  -4  -9  -2    0.44    0.66
  -4  -9  -2    1.21    0.89
   4   9   2    0.73    0.77
   4   9   2    0.41    0.63
  -5  -9  -2   17.54    2.35
  -5  -9  -2   14.71    2.31
   5   9   2   13.71    1.98
   5   9   2   12.62    2.04
   5   9   2   10.08    2.06
   6 -10  -2    0.46    0.74
  -6  10   2    0.10    0.59
   5 -10  -2    4.32    1.22
  -5  10   2    4.13    1.36
   4 -10  -2    9.96    1.62
  -4  10   2   12.62    1.83
   3 -10  -2    1.32    0.68
  -3  10   2    1.11    0.66
   2 -10  -2    0.32    0.56
   2 -10  -2    1.05    0.72
  -2  10   2    0.01    0.51
   1 -10  -2    0.48    0.48
   1 -10  -2    1.85    0.73
  -1  10   2    1.07    0.66
   0 -10  -2    1.20    0.75
   0 -10  -2    2.61    0.64
   0  10   2    1.28    0.70
   0  10   2    2.97    0.53
   0  10   2    3.14    0.78
  -1 -10  -2    3.27    0.99
   1  10   2    3.96    0.91
   1  10   2    3.90    0.71
   1  10   2    2.29    0.97
  -2 -10  -2    3.62    1.07
   2  10   2    5.53    1.05
   2  10   2    5.63    0.98
   2  10   2    5.86    1.42
  -3 -10  -2   13.86    1.91
   3  10   2   13.88    1.72
   3  10   2   13.98    2.21
  -4 -10  -2    2.40    1.00
  -4 -10  -2    2.75    1.01
   4  10   2    2.86    1.00
   4  10   2    3.54    1.26
  -5 -10  -2   -1.75    0.69
   5  10   2    0.33    1.09
   5  10   2    0.13    0.80
   5  10   2   -0.29    0.87
   6 -11  -2    5.37    1.42
  -6  11   2    5.85    1.70
   5 -11  -2    7.97    1.52
  -5  11   2    3.69    1.21
   4 -11  -2    5.37    1.38
  -4  11   2    4.45    1.35
   3 -11  -2    0.81    0.61
   3 -11  -2    0.70    0.60
  -3  11   2    0.54    0.58
   2 -11  -2    0.99    0.62
   2 -11  -2    0.85    0.62
  -2  11   2    0.19    0.50
   1 -11  -2    5.96    1.25
   1 -11  -2    8.67    1.28
  -1  11   2    8.77    1.37
   0 -11  -2   15.76    1.56
   0 -11  -2   18.32    2.13
   0  11   2   18.23    2.30
   0  11   2   13.19    1.64
  -1 -11  -2   10.68    1.71
   1  11   2   12.80    1.58
   1  11   2    9.98    1.76
  -2 -11  -2    0.16    0.75
   2  11   2    0.50    0.58
   2  11   2    0.38    0.61
   2  11   2   -0.07    0.48
  -3 -11  -2    2.08    1.02
   3  11   2    1.69    0.95
   3  11   2    2.54    0.99
  -4 -11  -2    2.29    1.17
   4  11   2    1.78    0.91
   4  11   2    0.53    1.42
   4  11   2    0.39    0.77
   5 -12  -2    0.57    0.71
  -5  12   2    0.58    1.04
   4 -12  -2    9.38    1.74
   4 -12  -2    9.17    1.70
  -4  12   2   11.35    1.94
   3 -12  -2    0.60    0.58
   3 -12  -2    0.38    0.56
  -3  12   2    0.37    0.80
   2 -12  -2    3.20    0.98
   2 -12  -2    4.45    1.15
  -2  12   2    3.32    1.05
   1 -12  -2   -0.78    0.55
   1 -12  -2   -0.04    0.51
  -1  12   2    0.17    0.67
  -1  12   2    0.40    0.77
   0 -12  -2    0.12    0.54
   0  12   2    0.27    0.75
   0  12   2    0.03    0.53
  -1 -12  -2   11.24    1.86
   1  12   2   14.53    1.78
   1  12   2    5.08    1.57
  -2 -12  -2    9.88    1.75
   2  12   2    9.07    1.83
   2  12   2    8.76    1.46
  -3 -12  -2    4.71    1.39
   3  12   2    2.29    1.11
   4 -13  -2   -0.47    0.83
   4 -13  -2   -0.31    0.81
  -4  13   2    0.36    1.00
   3 -13  -2    3.99    1.20
   3 -13  -2    2.45    0.97
  -3  13   2    3.19    1.07
   2 -13  -2    0.92    0.79
   2 -13  -2    0.77    0.96
  -2  13   2    3.00    0.98
  -2  13   2    1.63    0.88
   1 -13  -2    4.16    1.19
  -1  13   2    5.21    1.55
  -1  13   2    4.30    1.18
   0 -13  -2    0.42    0.84
   0  13   2    2.39    0.89
   0  13   2    0.26    0.64
  -1 -13  -2    6.26    1.59
   1  13   2    6.34    1.32
   1  13   2    2.40    1.35
  -2 -13  -2    9.34    1.83
   2  13   2    2.94    1.44
   3 -14  -2    1.68    1.01
   3 -14  -2    0.85    1.20
  -3  14   2    0.14    0.98
  -3  14   2    0.68    1.03
   2 -14  -2   19.22    3.06
   2 -14  -2   18.82    2.50
  -2  14   2   21.76    2.78
  -2  14   2   14.79    2.26
   1 -14  -2    4.89    1.39
  -1  14   2    4.88    1.63
  -1  14   2    8.18    1.53
   0 -14  -2   10.24    2.02
   0  14   2    9.50    1.65
   0  14   2    8.43    1.85
  -1 -14  -2    2.48    1.38
   1  14   2    1.88    1.12
  -1 -15   3    8.62    1.87
  -1 -15   3    6.69    1.84
   0 -15   3   -0.46    0.57
   0 -15   3   -0.32    1.02
   1 -15   3    4.23    1.24
   1 -15   3    3.17    1.13
  -2  15  -3    5.79    1.39
   2 -15   3    7.46    1.72
   2 -15   3    7.22    1.61
  -3  15  -3    8.27    1.72
   3 -15   3    8.46    1.75
   3 -15   3    9.70    1.86
   2  14  -3    7.39    1.83
   2  14  -3    6.04    1.41
  -2 -14   3   10.65    2.08
   1  14  -3    4.11    1.11
  -1 -14   3    4.36    1.33
  -1 -14   3    2.07    1.24
   0  14  -3   -0.15    0.54
   0 -14   3    0.36    0.60
   0 -14   3   -0.32    0.58
   0 -14   3    0.78    0.76
  -1  14  -3    2.47    0.92
  -1  14  -3    2.76    0.95
   1 -14   3    2.49    0.95
   1 -14   3    3.04    1.03
  -2  14  -3    2.83    1.02
   2 -14   3    0.64    0.94
   2 -14   3    2.88    1.13
  -3  14  -3    4.69    1.32
   3 -14   3    2.93    1.20
   3 -14   3    3.73    1.08
  -4  14  -3    6.44    1.62
   4 -14   3    5.93    1.42
   4 -14   3    6.58    1.68
   3  13  -3    5.97    1.46
   3  13  -3    6.43    1.79
  -3 -13   3    3.68    1.55
   2  13  -3    3.31    1.01
  -2 -13   3    4.28    1.26
   1  13  -3    1.94    0.77
  -1 -13   3    0.99    0.68
  -1 -13   3    1.94    0.78
  -1 -13   3    0.38    0.95
   0  13  -3    2.93    0.82
   0  13  -3    1.84    0.67
   0 -13   3    1.36    0.90
   0 -13   3    1.66    0.87
  -1  13  -3   16.37    1.89
  -1  13  -3   16.45    1.74
   1 -13   3   18.58    2.26
   1 -13   3   21.89    2.35
  -2  13  -3    3.43    1.02
  -2  13  -3    3.51    0.86
   2 -13   3    3.17    1.10
   2 -13   3    2.28    0.93
  -3  13  -3    0.14    0.55
  -3  13  -3    1.63    0.94
   3 -13   3    2.91    1.03
   3 -13   3    2.08    0.83
  -4  13  -3    3.83    1.36
   4 -13   3    2.82    1.27
   4 -13   3    3.55    1.00
  -5  13  -3    1.10    0.94
  -5  13  -3    1.46    0.96
   5 -13   3    1.82    1.08
   4  12  -3    9.49    2.01
   4  12  -3    7.86    1.57
  -4 -12   3    6.60    1.75
   3  12  -3    0.93    1.10
   3  12  -3    1.03    0.89
  -3 -12   3    1.56    1.09
   2  12  -3    0.41    0.49
  -2 -12   3    1.22    1.00
  -2 -12   3    0.88    0.73
   1  12  -3   11.43    1.53
  -1 -12   3   13.29    1.92
  -1 -12   3   11.22    1.50
  -1 -12   3   11.20    1.83
   0  12  -3    0.41    0.49
   0  12  -3   -0.06    0.44
   0 -12   3    0.42    0.51
   0 -12   3    0.78    0.64
  -1  12  -3    0.16    0.47
  -1  12  -3   -0.69    0.35
   1 -12   3    0.49    0.59
   1 -12   3   -1.23    0.49
  -2  12  -3   13.49    1.71
  -2  12  -3   11.85    1.40
   2 -12   3   10.32    1.63
   2 -12   3   11.49    1.67
  -3  12  -3    8.33    1.47
  -3  12  -3    7.51    1.15
   3 -12   3   11.23    1.61
   3 -12   3    5.87    1.42
  -4  12  -3    4.59    1.24
  -4  12  -3   10.08    1.80
   4 -12   3   10.26    1.80
   4 -12   3   11.55    1.61
  -5  12  -3    7.30    1.71
   5 -12   3    5.84    1.44
   5  11  -3    3.70    1.45
   5  11  -3    3.36    1.15
  -5 -11   3    6.15    1.69
   4  11  -3    0.07    0.86
   4  11  -3   -0.60    0.67
  -4 -11   3   -0.60    0.80
   3  11  -3    2.13    0.95
   3  11  -3    3.47    1.17
  -3 -11   3    2.46    1.13
   2  11  -3    0.86    0.52
  -2 -11   3    0.34    0.78
  -2 -11   3    2.27    0.69
   1  11  -3    0.19    0.37
   1  11  -3    0.25    0.37
  -1 -11   3   -0.25    0.64
  -1 -11   3   -0.07    0.39
  -1 -11   3    0.97    0.61
   0  11  -3    0.31    0.39
   0  11  -3   -0.18    0.42
   0 -11   3    0.08    0.49
   0 -11   3   -0.22    0.38
  -1  11  -3    6.32    0.95
  -1  11  -3    3.67    0.86
   1 -11   3    5.83    1.10
   1 -11   3    5.02    1.08
  -2  11  -3    1.44    0.72
  -2  11  -3    0.92    0.51
   2 -11   3    1.63    0.69
   2 -11   3    0.40    0.52
  -3  11  -3   30.90    2.53
   3 -11   3   41.80    2.96
   3 -11   3   34.03    2.49
  -4  11  -3    1.27    0.73
   4 -11   3    0.60    0.64
   4 -11   3    1.22    0.69
   4 -11   3    0.35    0.77
  -5  11  -3   12.88    2.23
   5 -11   3   13.04    2.08
  -6  11  -3   13.71    2.36
   6 -11   3   13.82    2.30
   5  10  -3    3.10    1.27
   5  10  -3    2.18    1.19
  -5 -10   3    3.50    1.32
   4  10  -3   -0.79    0.40
   4  10  -3   -0.03    0.53
  -4 -10   3    0.06    0.62
   3  10  -3   48.47    3.08
   3  10  -3   41.34    3.24
  -3 -10   3   39.59    3.20
   2  10  -3   -0.11    0.31
  -2 -10   3    1.68    0.85
  -2 -10   3    0.45    0.46
   1  10  -3  150.44    6.51
   1  10  -3  156.93    6.95
  -1 -10   3  150.41    7.42
  -1 -10   3  157.48    7.36
  -1 -10   3  147.84    6.86
   0  10  -3    1.41    0.50
   0  10  -3    1.60    0.57
   0 -10   3    1.46    0.58
   0 -10   3    0.13    0.36
  -1  10  -3    0.94    0.52
  -1  10  -3    0.66    0.47
   1 -10   3    0.99    0.54
   1 -10   3    0.91    0.50
  -2  10  -3   38.65    2.59
  -2  10  -3   41.92    2.69
   2 -10   3   39.41    2.60
   2 -10   3   41.03    2.76
  -3  10  -3    8.86    1.51
   3 -10   3   13.67    1.76
   3 -10   3   15.21    1.64
   3 -10   3   14.13    1.48
  -4  10  -3   -0.15    0.67
   4 -10   3    0.23    0.48
   4 -10   3   -0.18    0.50
   4 -10   3    0.46    0.71
  -5  10  -3    7.36    1.61
   5 -10   3    3.68    1.25
   5 -10   3    8.14    1.38
  -6  10  -3    2.46    1.26
   6 -10   3   -0.09    0.95
   6   9  -3   23.11    2.86
  -6  -9   3   21.77    2.87
   5   9  -3    2.65    1.13
   5   9  -3    2.02    1.02
  -5  -9   3    2.52    1.06
   4   9  -3   63.25    4.04
   4   9  -3   62.82    3.89
  -4  -9   3   55.58    3.92
   3   9  -3    2.64    0.88
   3   9  -3    2.38    0.80
  -3  -9   3    2.35    0.55
  -3  -9   3    1.56    0.75
   2   9  -3    7.37    0.71
   2   9  -3    4.71    0.92
  -2  -9   3    7.31    1.02
  -2  -9   3    7.27    1.34
   1   9  -3   36.62    2.27
   1   9  -3   35.00    1.90
  -1  -9   3   35.16    2.18
  -1  -9   3   33.03    2.39
  -1  -9   3   34.51    2.54
   0   9  -3    4.49    0.79
   0   9  -3    4.77    0.75
   0  -9   3    5.48    0.91
   0  -9   3    5.01    0.98
  -1   9  -3   59.97    3.23
  -1   9  -3   60.59    3.13
   1  -9   3   59.30    3.36
   1  -9   3   65.39    3.47
  -2   9  -3   49.33    2.95
   2  -9   3   50.74    2.71
   2  -9   3   49.71    2.89
   2  -9   3   50.47    3.07
  -3   9  -3    1.98    0.68
   3  -9   3    1.58    0.59
   3  -9   3    0.95    0.52
   3  -9   3    2.20    0.75
  -4   9  -3   -0.20    0.40
   4  -9   3   -0.56    0.39
   4  -9   3    0.29    0.48
   4  -9   3   -0.16    0.60
  -5   9  -3    4.06    1.24
   5  -9   3    3.68    1.00
   5  -9   3    1.36    0.90
  -6   9  -3   16.35    2.52
   6  -9   3   14.11    2.24
   6  -9   3   16.76    2.15
   6   8  -3    3.93    1.35
  -6  -8   3    4.25    1.39
   5   8  -3   16.42    2.16
   5   8  -3   12.72    1.88
  -5  -8   3    9.36    1.68
   4   8  -3    0.57    0.73
   4   8  -3    2.48    0.84
  -4  -8   3    1.72    0.76
   3   8  -3   12.18    1.53
  -3  -8   3   11.69    1.71
  -3  -8   3   12.01    0.97
   2   8  -3   12.61    1.42
   2   8  -3   12.70    0.82
  -2  -8   3   14.05    1.36
  -2  -8   3   14.98    1.39
  -2  -8   3   12.04    1.57
   1   8  -3    3.24    0.49
   1   8  -3    2.55    0.59
  -1  -8   3    3.72    0.83
  -1  -8   3    2.02    0.66
  -1  -8   3    2.06    0.53
   0   8  -3   10.40    1.00
   0   8  -3   10.85    1.14
   0  -8   3   10.08    1.16
   0  -8   3   11.26    1.31
  -1   8  -3    5.43    0.79
  -1   8  -3    5.49    0.85
   1  -8   3    8.03    0.47
   1  -8   3    7.36    0.99
   1  -8   3    7.82    1.07
  -2   8  -3    1.25    0.52
   2  -8   3    1.15    0.60
   2  -8   3    1.41    0.46
   2  -8   3    1.61    0.48
  -3   8  -3    0.08    0.37
   3  -8   3    0.17    0.39
   3  -8   3    0.17    0.33
   3  -8   3   -0.07    0.37
  -4   8  -3    1.32    0.79
   4  -8   3    0.53    0.49
   4  -8   3    0.97    0.60
   4  -8   3    1.06    0.61
  -5   8  -3    0.83    0.72
   5  -8   3    2.35    0.80
   5  -8   3    1.75    0.91
   6  -8   3    6.82    1.62
   6  -8   3   11.91    1.72
  -7   8  -3    4.67    1.50
   7  -8   3    4.81    1.42
   7  -8   3    5.57    1.41
   6   7  -3    8.10    1.66
  -6  -7   3   10.26    1.91
   5   7  -3    1.12    0.73
   5   7  -3   -0.05    0.56
  -5  -7   3    0.05    0.62
   4   7  -3    4.98    1.08
   4   7  -3    4.16    0.97
  -4  -7   3    3.10    0.97
  -4  -7   3    3.92    0.66
   3   7  -3   27.19    2.06
  -3  -7   3   27.86    1.58
  -3  -7   3   30.09    2.29
   2   7  -3   14.59    1.47
  -2  -7   3   15.73    1.67
  -2  -7   3   16.72    1.05
  -2  -7   3   14.81    1.23
   1   7  -3   46.91    2.15
   1   7  -3   44.48    2.48
  -1  -7   3   49.83    2.82
  -1  -7   3   49.42    2.29
  -1  -7   3   40.54    2.41
  -1  -7   3   43.97    2.63
   0   7  -3    0.77    0.37
   0   7  -3    0.55    0.30
   0  -7   3    0.93    0.39
   0  -7   3    1.13    0.39
  -1   7  -3   26.53    1.69
   1  -7   3   24.80    1.65
   1  -7   3   28.19    1.82
  -2   7  -3   12.62    1.37
   2  -7   3   14.46    1.15
   2  -7   3   11.17    1.33
   2  -7   3   13.32    1.09
  -3   7  -3    1.42    0.59
   3  -7   3    0.68    0.47
   3  -7   3    1.48    0.45
   3  -7   3    2.32    0.61
  -4   7  -3   41.35    2.84
   4  -7   3   39.97    2.53
   4  -7   3   40.80    2.76
   4  -7   3   38.51    2.20
  -5   7  -3    2.95    0.80
  -5   7  -3    2.67    0.92
   5  -7   3    2.97    0.98
   5  -7   3    1.84    0.69
  -6   7  -3    0.96    0.95
  -6   7  -3    2.08    0.88
   6  -7   3    2.44    0.85
   6  -7   3    0.46    0.76
  -7   7  -3   -0.79    1.03
   7  -7   3   -0.16    0.78
   7  -7   3    0.29    0.90
   7   6  -3    5.30    1.66
  -7  -6   3    3.84    1.49
   6   6  -3    1.08    0.74
  -6  -6   3    1.86    0.90
  -6  -6   3    1.87    0.94
   5   6  -3    0.44    0.69
   5   6  -3    0.86    0.68
  -5  -6   3   -0.06    0.66
   4   6  -3    0.73    0.58
   4   6  -3   -0.23    0.51
  -4  -6   3    1.07    0.66
  -4  -6   3    0.41    0.35
   3   6  -3   16.08    1.72
  -3  -6   3   20.96    1.00
  -3  -6   3   19.30    1.94
  -3  -6   3   20.98    1.22
   2   6  -3   16.17    1.50
  -2  -6   3   16.51    1.25
  -2  -6   3   15.61    1.60
   1   6  -3   27.62    1.70
   1   6  -3   27.78    1.36
  -1  -6   3   29.09    1.46
  -1  -6   3   28.84    1.91
  -1  -6   3   28.87    1.70
  -1  -6   3   26.99    1.80
   0   6  -3   79.57    3.72
   0  -6   3   78.58    3.84
   0  -6   3   88.06    3.68
   0  -6   3   79.81    3.81
  -1   6  -3    0.06    0.25
   1  -6   3    0.27    0.26
   1  -6   3    0.63    0.27
   1  -6   3    0.05    0.30
  -2   6  -3    2.14    0.54
   2  -6   3    2.35    0.55
   2  -6   3    2.46    0.60
   2  -6   3    3.81    0.57
  -3   6  -3   17.47    1.13
  -3   6  -3   15.59    1.62
   3  -6   3   15.36    1.62
   3  -6   3   17.45    1.17
   3  -6   3   16.51    1.36
  -4   6  -3    4.25    1.06
  -4   6  -3    3.99    0.72
   4  -6   3    5.00    0.67
   4  -6   3    4.23    0.80
   4  -6   3    5.62    1.04
  -5   6  -3    8.64    1.23
  -5   6  -3    8.91    1.56
   5  -6   3    7.23    1.28
  -6   6  -3    0.56    0.68
  -6   6  -3   -0.98    0.78
   6  -6   3   -0.32    0.41
   6  -6   3   -0.55    0.62
  -7   6  -3    4.98    1.60
   7  -6   3    3.26    1.23
   7  -6   3    5.87    1.46
   7   5  -3    0.04    0.94
  -7  -5   3    1.29    1.16
   6   5  -3    0.90    0.82
  -6  -5   3   -0.86    0.64
  -6  -5   3    0.26    0.91
   5   5  -3    7.76    1.36
   5   5  -3    8.67    1.29
  -5  -5   3    8.56    1.10
  -5  -5   3    7.94    1.46
   4   5  -3    7.43    1.13
   4   5  -3    7.87    1.21
  -4  -5   3    7.99    1.29
  -4  -5   3    7.78    0.87
   3   5  -3   12.72    1.40
  -3  -5   3   13.34    1.52
  -3  -5   3   14.69    0.93
  -3  -5   3   14.08    0.75
   2   5  -3    3.58    0.69
  -2  -5   3    4.04    0.66
  -2  -5   3    4.20    0.75
  -2  -5   3    4.02    0.41
   1   5  -3   70.13    3.34
   1   5  -3   73.22    2.91
  -1  -5   3   77.01    3.02
  -1  -5   3   64.74    3.44
  -1  -5   3   67.60    3.31
   0   5  -3   22.62    1.21
   0   5  -3   21.14    1.31
   0  -5   3   18.64    1.32
   0  -5   3   20.67    1.35
   0  -5   3   22.96    1.44
   0  -5   3   23.32    1.24
  -1   5  -3    0.78    0.28
  -1   5  -3    0.63    0.27
   1  -5   3    0.62    0.29
   1  -5   3    1.47    0.36
   1  -5   3    0.83    0.28
   1  -5   3    0.75    0.35
  -2   5  -3   24.83    1.23
  -2   5  -3   27.05    1.44
  -2   5  -3   24.69    1.67
   2  -5   3   26.48    1.70
   2  -5   3   25.13    1.58
   2  -5   3   25.00    1.39
  -3   5  -3    1.32    0.39
  -3   5  -3    0.98    0.53
   3  -5   3    1.67    0.53
   3  -5   3    2.42    0.41
   3  -5   3    0.98    0.44
  -4   5  -3    4.80    1.05
  -4   5  -3    7.12    0.97
   4  -5   3    6.11    0.53
   4  -5   3    6.87    0.69
   4  -5   3    5.35    0.98
  -5   5  -3    0.22    0.51
  -5   5  -3    0.78    0.72
   5  -5   3    1.95    0.73
  -6   5  -3   -0.49    0.57
  -6   5  -3   -0.51    0.72
   6  -5   3    0.88    0.78
  -7   5  -3   -0.18    0.81
  -7   5  -3    1.08    0.90
   7  -5   3   -0.16    0.83
   7  -5   3   -0.66    0.67
   7   4  -3   -0.08    0.89
  -7  -4   3    0.50    0.78
   6   4  -3    0.88    0.74
  -6  -4   3    1.98    0.90
  -6  -4   3    2.21    1.15
   5   4  -3    1.00    0.73
   5   4  -3    0.33    0.53
  -5  -4   3    0.35    0.46
  -5  -4   3    0.47    0.52
   4   4  -3   48.94    2.83
   4   4  -3   49.70    3.07
  -4  -4   3   48.82    3.06
  -4  -4   3   57.81    2.68
  -4  -4   3   53.71    2.47
   3   4  -3   17.81    1.39
   3   4  -3   20.17    1.56
  -3  -4   3   20.77    1.01
  -3  -4   3   19.67    1.14
  -3  -4   3   21.28    1.60
   2   4  -3   14.59    1.16
  -2  -4   3   16.19    0.82
  -2  -4   3   18.58    1.37
  -2  -4   3   17.30    1.21
   1   4  -3   37.11    1.51
   1   4  -3   32.74    1.91
   1   4  -3   41.70    2.06
  -1  -4   3   36.05    1.95
  -1  -4   3   38.44    1.59
  -1  -4   3   40.54    2.12
   0   4  -3    1.02    0.34
   0   4  -3    1.42    0.28
   0   4  -3    1.08    0.31
   0   4  -3    1.50    0.34
   0   4  -3    2.47    0.41
   0  -4   3    1.55    0.35
   0  -4   3    1.90    0.30
   0  -4   3    1.27    0.19
   0  -4   3    1.09    0.31
   0  -4   3    1.14    0.32
  -1   4  -3  101.48    4.46
  -1   4  -3  102.47    4.45
  -1   4  -3  104.72    4.34
   1  -4   3  100.33    4.45
   1  -4   3  102.77    4.46
   1  -4   3  102.84    4.31
   1  -4   3  104.17    4.55
  -2   4  -3   19.65    1.45
  -2   4  -3   22.30    1.14
   2  -4   3   20.85    1.41
   2  -4   3   21.23    1.11
   2  -4   3   18.94    1.32
  -3   4  -3  109.74    5.28
   3  -4   3  113.21    5.13
   3  -4   3  111.96    4.51
   3  -4   3  109.08    5.15
   3  -4   3  112.81    4.57
  -4   4  -3    1.17    0.60
   4  -4   3    2.23    0.36
   4  -4   3    2.43    0.70
  -5   4  -3    1.06    0.63
  -5   4  -3    1.61    0.72
   5  -4   3    0.36    0.61
  -6   4  -3   39.30    3.17
  -6   4  -3   36.93    2.79
   6  -4   3   42.29    3.08
  -7   4  -3    1.33    1.00
  -7   4  -3    4.75    1.47
   7  -4   3    2.77    1.10
   7   3  -3    2.02    0.87
  -7  -3   3    3.61    1.21
   6   3  -3   -0.02    0.49
  -6  -3   3   -0.42    0.51
  -6  -3   3    0.64    0.64
  -6  -3   3    0.41    0.84
   5   3  -3    3.61    1.03
   5   3  -3    2.91    0.67
  -5  -3   3    2.50    0.89
  -5  -3   3    3.07    0.90
  -5  -3   3    3.16    0.66
   4   3  -3    1.09    0.43
   4   3  -3    1.46    0.61
  -4  -3   3    1.38    0.44
  -4  -3   3    1.94    0.66
   3   3  -3   20.49    1.52
   3   3  -3   24.40    1.44
  -3  -3   3   19.36    1.56
  -3  -3   3   22.16    1.24
   2   3  -3    1.89    0.46
  -2  -3   3    0.49    0.14
  -2  -3   3    0.49    0.10
  -2  -3   3    0.69    0.33
   1   3  -3   27.19    1.47
   1   3  -3   27.75    1.57
   1   3  -3   25.19    1.42
  -1  -3   3   24.96    1.45
  -1  -3   3   27.15    1.40
  -1  -3   3   26.65    1.44
  -1  -3   3   22.75    1.48
   0   3  -3   93.88    3.85
   0   3  -3   94.03    4.08
   0   3  -3   94.95    4.05
   0   3  -3   97.77    4.03
   0  -3   3   96.67    3.85
   0  -3   3   94.32    4.06
   0  -3   3   88.80    4.05
  -1   3  -3  539.66   21.40
  -1   3  -3  553.59   21.38
  -1   3  -3  545.74   21.37
  -1   3  -3  557.50   21.14
   1  -3   3  571.36   21.37
   1  -3   3  538.31   21.40
   1  -3   3  536.04   21.37
   1  -3   3  553.80   21.18
   1  -3   3  541.64   21.13
  -2   3  -3   98.97    3.86
  -2   3  -3   99.30    4.40
   2  -3   3   94.61    3.82
   2  -3   3   95.38    3.83
   2  -3   3   89.78    4.26
   2  -3   3   95.34    4.29
  -3   3  -3   12.37    1.38
   3  -3   3   13.20    1.31
   3  -3   3   15.27    0.74
  -4   3  -3    9.01    1.25
   4  -3   3    7.67    1.11
   4  -3   3    9.46    0.60
  -5   3  -3   43.59    3.01
   5  -3   3   38.50    2.79
  -6   3  -3   37.66    3.01
  -6   3  -3   31.82    2.70
   6  -3   3   35.36    2.77
  -7   3  -3    0.64    0.89
  -7   3  -3   -0.52    0.81
   7  -3   3    0.04    0.90
   7   2  -3   38.02    3.48
  -7  -2   3   30.53    3.42
   6   2  -3    3.17    1.01
  -6  -2   3    2.02    0.83
  -6  -2   3    2.07    0.75
  -6  -2   3    2.75    1.02
   5   2  -3    0.45    0.62
   5   2  -3    0.70    0.38
  -5  -2   3    1.06    0.62
  -5  -2   3    0.36    0.39
  -5  -2   3    0.59    0.56
   4   2  -3   15.80    1.11
   4   2  -3   13.30    1.49
  -4  -2   3   15.96    1.19
  -4  -2   3   11.90    1.41
  -4  -2   3   15.33    1.64
   3   2  -3   79.05    3.33
   3   2  -3   73.59    3.64
   3   2  -3   75.35    3.32
  -3  -2   3   71.92    3.68
  -3  -2   3   69.74    3.69
  -3  -2   3   75.60    3.31
   2   2  -3   44.21    2.31
   2   2  -3   47.68    2.00
  -2  -2   3   42.91    2.35
  -2  -2   3   46.98    2.00
  -2  -2   3   48.48    2.46
   1   2  -3  585.60   23.08
   1   2  -3  620.20   23.23
   1   2  -3  592.55   23.15
  -1  -2   3  569.51   23.15
  -1  -2   3  582.18   23.21
  -1  -2   3  612.86   23.09
  -1  -2   3  611.75   23.10
   0   2  -3   20.55    1.09
   0   2  -3   19.55    1.09
   0   2  -3   17.54    0.92
   0   2  -3   18.71    0.95
   0   2  -3   21.53    1.14
   0  -2   3   19.24    1.08
   0  -2   3   20.13    1.11
   0  -2   3   20.18    0.96
   0  -2   3   19.01    1.08
  -1   2  -3  284.12   10.89
  -1   2  -3  286.13   11.31
  -1   2  -3  288.85   11.19
  -1   2  -3  289.25   11.23
  -1   2  -3  260.20   11.16
   1  -2   3  285.30   10.96
   1  -2   3  286.31   11.20
   1  -2   3  276.88   11.17
   1  -2   3  281.60   11.21
  -2   2  -3    0.19    0.29
   2  -2   3   -0.22    0.21
   2  -2   3    0.22    0.21
   2  -2   3    0.05    0.21
  -3   2  -3   29.60    1.95
   3  -2   3   28.94    1.92
   3  -2   3   30.06    1.91
   3  -2   3   31.67    1.28
  -4   2  -3  149.64    7.15
   4  -2   3  158.31    6.17
   4  -2   3  149.89    7.08
   4  -2   3  160.27    7.07
   4  -2   3  159.11    6.16
  -5   2  -3    0.52    0.66
   5  -2   3   -0.29    0.40
   5  -2   3   -0.12    0.39
  -6   2  -3    1.64    0.92
   6  -2   3    0.41    0.84
  -7   2  -3   14.12    2.25
  -7   2  -3   12.27    2.07
   7  -2   3   15.32    2.36
   7   1  -3   10.43    1.74
  -7  -1   3   10.72    2.00
  -7  -1   3   13.01    1.80
   6   1  -3    5.88    1.19
  -6  -1   3    5.09    1.05
  -6  -1   3    6.86    1.23
  -6  -1   3    4.53    1.16
   5   1  -3    0.94    0.36
   5   1  -3    0.51    0.51
  -5  -1   3    1.20    0.56
  -5  -1   3    1.39    0.61
  -5  -1   3    0.32    0.50
   4   1  -3    6.61    0.64
   4   1  -3    4.62    0.83
  -4  -1   3    5.66    1.00
  -4  -1   3    4.63    0.87
  -4  -1   3    5.72    0.81
   3   1  -3   29.44    1.36
   3   1  -3   25.57    1.69
   3   1  -3   26.15    1.50
  -3  -1   3   27.60    1.84
  -3  -1   3   27.35    1.75
  -3  -1   3   26.58    1.52
   2   1  -3   -0.01    0.13
   2   1  -3    0.19    0.22
   2   1  -3    0.16    0.22
  -2  -1   3    0.14    0.26
  -2  -1   3   -0.06    0.19
  -2  -1   3   -0.01    0.17
  -2  -1   3    0.03    0.14
  -2  -1   3   -0.17    0.10
   1   1  -3   31.70    1.75
   1   1  -3   37.40    1.83
   1   1  -3   37.35    1.88
   1   1  -3   37.28    1.73
   1   1  -3   37.67    1.57
   1   1  -3   36.44    1.60
  -1  -1   3   36.29    1.80
  -1  -1   3   37.37    1.60
  -1  -1   3   36.22    1.72
  -1  -1   3   36.14    1.86
   0   1  -3  735.28   34.10
   0   1  -3  807.66   34.11
   0   1  -3  785.07   34.16
   0  -1   3  934.37   34.08
   0  -1   3  975.71   34.19
   0  -1   3 1000.00   34.24
   0  -1   3  994.13   34.18
  -1   1  -3  321.91   12.48
  -1   1  -3  315.13   12.26
  -1   1  -3  327.64   12.39
  -1   1  -3  308.94   12.09
  -1   1  -3  306.16   12.36
   1  -1   3  308.21   12.09
   1  -1   3  306.29   12.47
   1  -1   3  308.31   12.36
   1  -1   3  319.78   12.38
   1  -1   3  310.34   12.26
  -2   1  -3    5.57    0.73
   2  -1   3    5.73    0.71
   2  -1   3    4.55    0.68
   2  -1   3    5.28    0.58
  -3   1  -3  101.98    4.89
   3  -1   3  106.03    4.91
   3  -1   3  108.22    4.12
   3  -1   3  101.02    4.86
  -4   1  -3    0.79    0.49
   4  -1   3    1.45    0.60
   4  -1   3    2.50    0.67
   4  -1   3    2.26    0.30
  -5   1  -3    4.29    0.99
   5  -1   3    4.96    1.04
   5  -1   3    4.89    0.69
   5  -1   3    4.21    1.00
  -6   1  -3    0.73    0.79
   6  -1   3    0.48    0.64
   6  -1   3    0.24    0.58
  -7   1  -3    2.24    1.21
   7  -1   3    2.74    1.15
   7   0  -3    0.17    0.93
   7   0  -3    0.69    0.90
  -7   0   3   -0.03    0.84
  -7   0   3   -0.72    0.59
   6   0  -3   26.97    2.63
  -6   0   3   29.05    2.25
  -6   0   3   34.16    2.39
  -6   0   3   26.27    2.83
   5   0  -3   63.27    3.69
  -5   0   3   66.87    3.57
  -5   0   3   68.51    3.67
  -5   0   3   67.56    3.97
   4   0  -3   13.89    1.42
  -4   0   3   14.18    1.44
  -4   0   3   13.26    1.28
  -4   0   3   11.55    1.44
   3   0  -3  120.29    5.47
   3   0  -3  126.24    5.44
   3   0  -3  127.81    4.89
  -3   0   3  121.85    5.71
  -3   0   3  130.78    5.43
  -3   0   3  127.40    5.65
   2   0  -3   81.40    3.67
   2   0  -3   75.67    3.46
   2   0  -3   79.83    3.43
  -2   0   3   80.16    3.42
  -2   0   3   78.66    3.66
  -2   0   3   80.31    3.68
  -2   0   3   81.47    3.47
  -2   0   3   76.38    3.41
   1   0  -3  346.68   13.47
   1   0  -3  356.10   13.59
   1   0  -3  358.52   13.80
   1   0  -3  336.55   13.53
   1   0  -3  353.79   13.72
  -1   0   3  358.59   13.54
  -1   0   3  339.63   13.56
  -1   0   3  342.37   13.79
   0   0  -3   57.14    2.80
   0   0   3   67.44    2.81
   0   0   3   63.37    2.83
   0   0   3   67.62    2.87
   0   0   3   68.20    2.77
   0   0   3   65.38    2.78
  -1   0  -3    4.16    0.34
  -1   0  -3    3.84    0.30
  -1   0  -3    4.20    0.35
  -1   0  -3    3.49    0.48
  -1   0  -3    4.04    0.49
  -1   0  -3    2.79    0.41
  -1   0  -3    4.61    0.59
   1   0   3    4.45    0.51
   1   0   3    3.92    0.39
   1   0   3    3.32    0.50
  -2   0  -3   19.00    1.29
   2   0   3   19.26    1.06
   2   0   3   19.96    0.90
   2   0   3   17.56    1.26
   2   0   3   18.52    1.31
  -3   0  -3    0.52    0.16
  -3   0  -3    0.37    0.39
   3   0   3    0.48    0.40
   3   0   3    0.83    0.46
   3   0   3    0.36    0.17
  -4   0  -3   38.96    2.58
  -4   0  -3   41.75    1.78
   4   0   3   40.42    1.88
   4   0   3   37.60    2.49
   4   0   3   38.10    2.54
  -5   0  -3   10.20    1.53
   5   0   3   10.29    1.42
   5   0   3   10.91    1.55
  -6   0  -3    0.01    0.48
   6   0   3   -0.40    0.53
   6   0   3   -0.67    0.44
  -7   0  -3   18.75    2.50
   7   0   3   16.90    2.45
   7  -1  -3    0.29    0.89
  -7   1   3    1.23    0.86
  -7   1   3    2.51    0.94
   6  -1  -3    0.83    0.70
  -6   1   3    1.31    0.73
  -6   1   3    1.26    0.73
   5  -1  -3   21.03    1.96
  -5   1   3   19.35    2.11
  -5   1   3   21.00    1.70
  -5   1   3   19.07    1.86
   4  -1  -3   19.20    1.45
  -4   1   3   20.68    1.56
  -4   1   3   18.56    1.46
  -4   1   3   19.27    1.63
   3  -1  -3    0.43    0.30
  -3   1   3    0.47    0.33
  -3   1   3    0.13    0.27
  -3   1   3    1.18    0.41
   2  -1  -3   50.54    2.38
   2  -1  -3   54.16    2.52
   2  -1  -3   60.41    3.02
  -2   1   3   51.55    2.63
  -2   1   3   49.41    2.46
  -2   1   3   49.36    2.60
  -2   1   3   52.83    2.37
  -2   1   3   53.11    2.48
   1  -1  -3    0.97    0.19
   1  -1  -3    0.83    0.17
   1  -1  -3    1.24    0.28
   1  -1  -3    1.37    0.36
  -1   1   3    0.70    0.27
  -1   1   3    0.86    0.25
  -1   1   3    0.94    0.19
  -1   1   3    0.74    0.15
   0  -1  -3   51.14    2.29
   0  -1  -3   50.92    2.18
   0  -1  -3   48.68    2.26
   0  -1  -3   49.25    2.13
   0  -1  -3   48.89    2.30
   0   1   3   48.32    2.28
   0   1   3   51.15    2.14
   0   1   3   48.81    2.30
  -1  -1  -3   37.23    2.03
  -1  -1  -3   40.40    1.91
  -1  -1  -3   40.12    1.78
  -1  -1  -3   38.94    1.93
  -1  -1  -3   41.38    1.86
  -1  -1  -3   38.33    1.64
   1   1   3   37.82    1.94
   1   1   3   40.77    1.80
   1   1   3   37.95    1.88
   1   1   3   38.01    1.64
   1   1   3   35.65    2.00
  -2  -1  -3    7.78    0.90
  -2  -1  -3    8.02    0.57
   2   1   3    8.29    0.53
   2   1   3    7.84    0.94
   2   1   3    7.72    0.57
   2   1   3    9.04    0.91
  -3  -1  -3    9.31    0.68
  -3  -1  -3    9.65    1.15
   3   1   3    7.30    1.04
   3   1   3    6.90    1.01
   3   1   3    9.31    0.68
  -4  -1  -3    0.44    0.42
  -4  -1  -3    0.82    0.29
   4   1   3    1.68    0.40
   4   1   3    0.84    0.49
   4   1   3    1.22    0.54
  -5  -1  -3    6.88    1.25
   5   1   3    6.40    1.19
   5   1   3    5.63    1.22
  -6  -1  -3    0.57    0.81
   6   1   3    0.85    0.66
   6   1   3    0.22    0.58
  -7  -1  -3    1.33    1.10
   7   1   3   -0.35    0.98
   7  -2  -3    0.15    0.76
   7  -2  -3    1.06    0.67
  -7   2   3    1.11    0.87
  -7   2   3    1.67    0.83
   6  -2  -3    1.57    0.79
   6  -2  -3    0.77    0.60
  -6   2   3    0.27    0.52
  -6   2   3    0.06    0.55
   5  -2  -3    4.65    0.95
  -5   2   3    3.99    0.89
  -5   2   3    6.85    1.21
   4  -2  -3   26.93    1.74
  -4   2   3   31.11    2.07
  -4   2   3   23.36    1.76
   3  -2  -3   -0.21    0.20
  -3   2   3   -0.43    0.24
  -3   2   3   -0.10    0.30
   2  -2  -3  134.29    6.25
   2  -2  -3  147.08    5.92
  -2   2   3  149.96    5.91
  -2   2   3  147.63    6.19
  -2   2   3  146.67    6.19
  -2   2   3  150.06    5.74
   1  -2  -3   29.62    1.65
   1  -2  -3   30.78    1.62
   1  -2  -3   29.02    1.67
   1  -2  -3   30.07    1.29
   1  -2  -3   29.40    1.24
  -1   2   3   29.11    1.45
  -1   2   3   28.01    1.57
  -1   2   3   29.61    1.24
   0  -2  -3    0.23    0.19
   0  -2  -3    0.02    0.13
   0  -2  -3    0.22    0.11
   0  -2  -3    0.14    0.16
   0  -2  -3    0.09    0.08
   0   2   3    0.15    0.09
   0   2   3    0.16    0.20
   0   2   3    0.17    0.19
   0   2   3   -0.10    0.15
  -1  -2  -3   79.50    3.40
  -1  -2  -3   80.80    3.36
  -1  -2  -3   77.47    3.03
  -1  -2  -3   78.52    3.72
   1   2   3   78.97    3.41
   1   2   3   74.76    3.38
   1   2   3   74.02    3.49
   1   2   3   77.65    3.65
  -2  -2  -3    2.75    0.54
  -2  -2  -3    3.47    0.48
   2   2   3    2.92    0.60
   2   2   3    3.53    0.23
   2   2   3    4.56    0.55
   2   2   3    3.76    0.58
   2   2   3    3.05    0.58
  -3  -2  -3   22.60    1.71
   3   2   3   24.74    1.80
   3   2   3   24.65    1.40
   3   2   3   24.40    1.72
   3   2   3   23.95    1.20
   3   2   3   23.38    1.65
  -4  -2  -3   10.59    1.39
  -4  -2  -3   10.63    0.90
   4   2   3    9.25    1.33
   4   2   3   10.16    1.39
  -5  -2  -3    5.99    1.14
   5   2   3    2.92    1.02
   5   2   3    4.65    1.04
  -6  -2  -3    1.87    0.98
   6   2   3    2.21    0.93
   6   2   3    0.56    0.72
  -7  -2  -3    5.67    1.60
   7   2   3    6.06    1.69
   7  -3  -3    1.29    0.76
   7  -3  -3    1.83    0.83
  -7   3   3    1.51    0.95
  -7   3   3    0.38    0.92
   6  -3  -3    0.23    0.64
   6  -3  -3   -0.70    0.43
  -6   3   3    0.36    0.74
  -6   3   3   -0.94    0.50
   5  -3  -3    2.01    0.72
   5  -3  -3    0.83    0.54
  -5   3   3    0.66    0.50
  -5   3   3    1.46    0.75
   4  -3  -3   11.56    1.19
   4  -3  -3    8.93    1.24
  -4   3   3   10.70    1.36
  -4   3   3   11.46    1.32
   3  -3  -3    4.89    0.82
   3  -3  -3    6.58    0.73
  -3   3   3    5.20    0.38
  -3   3   3    5.76    0.84
  -3   3   3    7.40    0.88
  -3   3   3    5.72    0.86
   2  -3  -3   19.14    1.35
  -2   3   3   19.11    1.03
  -2   3   3   16.30    1.23
  -2   3   3   18.98    0.97
   1  -3  -3   28.13    1.12
   1  -3  -3   26.50    1.64
  -1   3   3   27.76    1.61
  -1   3   3   29.98    1.54
   0  -3  -3   42.51    1.73
   0  -3  -3   39.66    2.11
   0   3   3   45.64    2.24
   0   3   3   40.28    2.16
   0   3   3   40.91    2.12
   0   3   3   40.52    1.78
  -1  -3  -3   29.84    1.62
  -1  -3  -3   29.78    1.49
   1   3   3   27.13    1.46
   1   3   3   30.47    1.64
   1   3   3   27.70    1.64
   1   3   3   28.04    1.80
   1   3   3   28.00    1.52
  -2  -3  -3    8.78    0.86
   2   3   3    9.98    1.19
   2   3   3    9.17    0.94
   2   3   3    7.21    0.88
   2   3   3    8.96    0.95
  -3  -3  -3    5.59    0.90
   3   3   3    5.61    0.32
   3   3   3    5.67    1.00
   3   3   3    4.50    0.82
   3   3   3    6.14    0.93
  -4  -3  -3   44.71    2.39
  -4  -3  -3   39.36    2.70
   4   3   3   43.89    2.90
   4   3   3   43.53    2.82
   4   3   3   41.78    1.94
   4   3   3   39.83    2.67
  -5  -3  -3    1.33    0.80
  -5  -3  -3    0.30    0.62
   5   3   3    0.37    0.54
   5   3   3    1.10    0.74
  -6  -3  -3    8.71    1.61
   6   3   3    5.84    1.49
   6   3   3    6.05    1.48
  -7  -3  -3    0.20    0.96
   7   3   3    0.13    0.72
   7  -4  -3    1.61    0.92
   7  -4  -3    1.57    0.89
  -7   4   3    2.26    1.07
  -7   4   3    3.60    1.24
   6  -4  -3    0.47    0.65
   6  -4  -3    0.20    0.66
  -6   4   3   -0.04    0.64
  -6   4   3   -0.70    0.64
   5  -4  -3    0.78    0.53
   5  -4  -3    0.86    0.53
  -5   4   3    2.16    0.80
  -5   4   3    0.19    0.40
   4  -4  -3   10.61    1.13
   4  -4  -3   12.78    1.45
  -4   4   3   10.01    1.32
  -4   4   3   12.62    0.72
   3  -4  -3    1.96    0.41
   3  -4  -3    2.13    0.64
  -3   4   3    2.08    0.56
  -3   4   3    1.80    0.53
  -3   4   3    2.26    0.43
   2  -4  -3    6.90    0.48
   2  -4  -3    6.58    0.92
  -2   4   3    7.65    0.91
  -2   4   3    7.88    0.50
   1  -4  -3   32.74    1.88
  -1   4   3   32.78    1.78
  -1   4   3   28.31    1.79
   0  -4  -3  235.31   10.16
   0  -4  -3  261.14    9.63
   0   4   3  243.90   10.15
   0   4   3  248.29   10.24
   0   4   3  250.51    9.66
  -1  -4  -3    8.08    0.38
  -1  -4  -3    8.91    0.67
  -1  -4  -3   10.29    1.01
   1   4   3    8.33    0.92
   1   4   3    8.38    0.66
   1   4   3    6.57    0.70
   1   4   3    7.35    0.99
  -2  -4  -3   10.28    1.05
   2   4   3   10.98    1.12
   2   4   3   12.90    1.21
   2   4   3   12.05    1.12
   2   4   3    9.44    1.27
  -3  -4  -3   12.28    1.39
  -3  -4  -3   14.55    1.16
   3   4   3   12.98    1.39
   3   4   3   11.26    1.27
   3   4   3   11.77    1.53
  -4  -4  -3   10.34    1.23
  -4  -4  -3   10.92    1.45
   4   4   3    9.79    1.36
   4   4   3   11.21    1.67
   4   4   3    9.97    1.40
  -5  -4  -3    1.92    0.84
  -5  -4  -3    0.44    0.50
   5   4   3    1.03    0.79
   5   4   3    0.90    0.68
  -6  -4  -3    5.38    1.36
   6   4   3    2.90    1.10
   6   4   3    2.58    1.20
  -7  -4  -3   21.06    2.69
   7   4   3   15.97    2.46
   7  -5  -3   -0.31    0.77
   7  -5  -3   -0.24    0.77
  -7   5   3   -0.33    0.75
  -7   5   3   -0.07    0.57
   6  -5  -3   29.76    2.45
   6  -5  -3   30.62    2.36
  -6   5   3   31.72    2.60
   5  -5  -3    4.52    0.90
   5  -5  -3    6.86    1.22
  -5   5   3    4.34    1.00
  -5   5   3    5.78    1.21
   4  -5  -3    0.45    0.38
   4  -5  -3    0.45    0.51
  -4   5   3    0.36    0.43
  -4   5   3    0.71    0.48
   3  -5  -3   47.96    2.82
   3  -5  -3   50.21    2.30
  -3   5   3   48.44    2.29
  -3   5   3   44.35    2.78
   2  -5  -3   43.28    1.77
   2  -5  -3   41.20    2.48
  -2   5   3   44.80    1.87
  -2   5   3   44.62    2.51
   1  -5  -3   46.34    2.57
  -1   5   3   45.99    2.50
  -1   5   3   44.31    2.42
   0  -5  -3   16.08    1.27
   0  -5  -3   17.86    0.86
   0   5   3   16.73    1.35
   0   5   3   16.75    0.86
   0   5   3   14.21    1.22
   0   5   3   17.41    0.86
  -1  -5  -3   10.90    1.13
  -1  -5  -3   10.41    0.54
  -1  -5  -3    8.98    0.83
   1   5   3    8.76    1.00
   1   5   3   10.15    0.82
   1   5   3   10.70    1.26
   1   5   3    9.45    0.76
  -2  -5  -3   28.21    1.88
   2   5   3   33.29    1.97
   2   5   3   32.62    1.87
   2   5   3   27.46    2.11
  -3  -5  -3   -0.65    0.33
  -3  -5  -3    0.31    0.39
   3   5   3   -0.33    0.24
   3   5   3    0.80    0.51
   3   5   3    0.27    0.56
  -4  -5  -3   13.60    1.72
  -4  -5  -3   16.95    1.72
   4   5   3   14.96    1.71
   4   5   3   15.35    1.96
   4   5   3   13.18    1.71
  -5  -5  -3    6.21    1.09
  -5  -5  -3    5.09    1.21
   5   5   3    7.43    1.37
   5   5   3    4.21    1.22
   5   5   3    5.58    1.30
  -6  -5  -3    0.04    0.71
   6   5   3   -0.39    0.89
   6   5   3    1.22    0.85
   7  -6  -3   -0.46    0.70
  -7   6   3   -0.33    0.85
  -7   6   3   -0.26    0.65
   6  -6  -3    1.36    0.81
   6  -6  -3    1.12    0.71
  -6   6   3    1.05    0.76
  -6   6   3    3.07    1.11
   5  -6  -3    4.41    0.82
   5  -6  -3    4.02    1.01
  -5   6   3    3.65    1.01
  -5   6   3    5.11    1.15
   4  -6  -3   18.60    1.95
   4  -6  -3   24.51    1.49
  -4   6   3   20.65    2.11
  -4   6   3   21.66    2.12
   3  -6  -3   47.17    2.12
   3  -6  -3   46.58    2.82
  -3   6   3   43.03    2.75
  -3   6   3   45.20    2.17
   2  -6  -3    1.92    0.64
  -2   6   3    1.18    0.56
  -2   6   3    2.44    0.26
   1  -6  -3    0.53    0.41
  -1   6   3    0.83    0.44
  -1   6   3    0.64    0.37
   0  -6  -3   21.42    1.65
   0   6   3   23.15    1.11
   0   6   3   20.84    1.67
   0   6   3   20.74    1.57
   0   6   3   23.41    1.13
  -1  -6  -3    2.89    0.73
  -1  -6  -3    4.11    0.65
  -1  -6  -3    4.04    0.39
   1   6   3    3.76    0.57
   1   6   3    3.67    0.83
   1   6   3    3.55    0.73
  -2  -6  -3   65.18    3.52
   2   6   3   67.12    3.87
   2   6   3   68.24    3.37
   2   6   3   73.32    3.59
  -3  -6  -3   57.65    3.23
   3   6   3   60.71    3.67
   3   6   3   56.28    3.24
   3   6   3   54.56    3.15
  -4  -6  -3    1.68    0.66
  -4  -6  -3    0.07    0.49
   4   6   3    1.36    0.71
   4   6   3    0.55    0.65
   4   6   3    0.81    0.81
  -5  -6  -3    1.75    0.74
  -5  -6  -3   -0.22    0.55
   5   6   3    1.33    0.84
   5   6   3    2.68    1.07
   5   6   3    0.54    0.59
  -6  -6  -3   16.64    2.26
   6   6   3   15.47    2.48
   6   6   3   18.94    2.58
  -7   7   3    3.66    1.39
  -7   7   3    2.56    1.11
   6  -7  -3    0.23    0.66
  -6   7   3   -0.20    0.57
  -6   7   3    0.45    0.64
   5  -7  -3    0.93    0.68
  -5   7   3    0.65    0.69
  -5   7   3   -1.09    0.52
   4  -7  -3    3.14    0.56
   4  -7  -3    2.78    0.78
  -4   7   3    3.20    0.87
   3  -7  -3    2.97    0.87
   3  -7  -3    1.81    0.27
  -3   7   3    3.21    0.81
   2  -7  -3   54.41    3.24
  -2   7   3   58.35    2.30
  -2   7   3   56.49    3.23
  -2   7   3   56.73    2.30
   1  -7  -3    0.05    0.29
  -1   7   3    0.09    0.40
  -1   7   3    0.27    0.43
   0  -7  -3   59.79    2.90
   0  -7  -3   56.52    3.32
   0   7   3   63.93    2.61
   0   7   3   58.87    3.38
   0   7   3   61.68    3.27
   0   7   3   60.07    2.63
  -1  -7  -3    0.09    0.46
  -1  -7  -3    0.11    0.17
   1   7   3    0.00    0.36
   1   7   3   -0.03    0.25
   1   7   3   -0.01    0.28
  -2  -7  -3   97.57    4.89
   2   7   3   96.31    4.55
   2   7   3  101.83    4.83
   2   7   3   96.17    5.19
  -3  -7  -3    8.62    1.33
   3   7   3    9.73    1.64
   3   7   3   10.77    1.39
   3   7   3   11.94    1.41
  -4  -7  -3   -0.08    0.57
  -4  -7  -3   -0.19    0.49
   4   7   3    0.15    0.54
   4   7   3    0.46    0.53
   4   7   3   -0.20    0.62
  -5  -7  -3   11.14    1.72
  -5  -7  -3    8.95    1.63
   5   7   3   13.53    1.94
   5   7   3    9.36    1.83
   5   7   3    8.87    1.61
  -6  -7  -3    0.88    0.93
   6   7   3    0.32    0.99
   6   7   3    2.59    1.31
  -7   8   3   14.11    2.34
   6  -8  -3    3.36    1.11
  -6   8   3    3.85    1.31
   5  -8  -3    1.77    0.79
  -5   8   3    0.33    0.58
   4  -8  -3   27.39    2.26
  -4   8   3   21.54    2.35
   3  -8  -3    1.53    0.73
  -3   8   3    1.17    0.68
   2  -8  -3   30.28    2.22
  -2   8   3   27.80    2.12
   1  -8  -3    1.28    0.54
  -1   8   3    2.25    0.76
  -1   8   3    1.86    0.19
  -1   8   3    2.90    0.77
   0  -8  -3    3.31    0.80
   0  -8  -3    2.42    0.53
   0   8   3    3.19    0.43
   0   8   3    2.79    0.37
   0   8   3    3.52    0.40
   0   8   3    2.96    0.76
   0   8   3    2.69    0.76
  -1  -8  -3    0.52    0.24
  -1  -8  -3    0.18    0.37
   1   8   3   -0.44    0.18
   1   8   3   -0.24    0.38
   1   8   3    0.47    0.34
  -2  -8  -3   40.04    2.68
   2   8   3   39.85    2.59
   2   8   3   41.79    2.40
   2   8   3   41.11    2.96
  -3  -8  -3   35.56    2.52
   3   8   3   33.90    2.25
   3   8   3   27.74    2.19
   3   8   3   29.94    2.64
  -4  -8  -3    8.77    1.51
  -4  -8  -3    7.18    1.41
   4   8   3    7.77    1.36
   4   8   3    7.44    1.41
   4   8   3    7.22    1.62
  -5  -8  -3    7.46    1.49
   5   8   3    5.89    1.40
   5   8   3   10.01    2.03
   5   8   3    4.40    1.27
   6  -9  -3    0.81    0.89
  -6   9   3    0.69    0.97
   5  -9  -3    3.32    1.13
  -5   9   3    1.87    1.04
   4  -9  -3    0.02    0.43
  -4   9   3    0.83    0.64
   3  -9  -3    7.64    1.35
  -3   9   3    5.44    1.15
   2  -9  -3    2.04    0.74
  -2   9   3    2.54    0.80
   1  -9  -3   21.27    1.61
   1  -9  -3   15.93    1.84
  -1   9   3   18.43    1.90
  -1   9   3   18.04    1.95
   0  -9  -3    7.58    1.26
   0  -9  -3    8.42    0.99
   0   9   3    9.36    1.50
   0   9   3   11.23    1.41
   0   9   3    9.59    0.73
  -1  -9  -3    1.91    0.66
   1   9   3    1.74    0.64
   1   9   3    2.01    0.53
   1   9   3    2.03    0.77
  -2  -9  -3    0.17    0.54
   2   9   3    0.39    0.74
   2   9   3   -0.31    0.39
   2   9   3    0.36    0.50
  -3  -9  -3    2.48    0.93
   3   9   3    2.27    0.80
   3   9   3    2.59    1.16
   3   9   3    2.20    0.74
  -4  -9  -3    7.54    1.60
  -4  -9  -3    6.27    1.33
   4   9   3    7.84    1.78
   4   9   3    7.52    1.44
   4   9   3    8.06    1.39
  -5  -9  -3    3.13    1.08
   5   9   3    1.30    1.04
   5   9   3    1.23    0.95
   5   9   3    0.13    0.90
   6 -10  -3    7.64    1.62
  -6  10   3    2.94    1.15
   5 -10  -3   10.29    1.76
  -5  10   3   11.63    2.00
   4 -10  -3    0.82    0.74
  -4  10   3    2.27    0.84
   3 -10  -3    0.46    0.55
  -3  10   3    0.54    0.80
   2 -10  -3    3.19    0.93
  -2  10   3    2.78    0.85
  -2  10   3    2.02    0.85
   1 -10  -3    7.42    1.11
   1 -10  -3    6.47    1.23
  -1  10   3    4.05    1.10
  -1  10   3    4.08    1.01
   0 -10  -3    1.67    0.57
   0 -10  -3    3.36    1.04
   0  10   3    1.85    0.88
   0  10   3    2.97    0.86
  -1 -10  -3   -0.33    0.37
   1  10   3   -0.36    0.31
   1  10   3    0.15    0.54
   1  10   3    0.16    0.52
  -2 -10  -3   15.27    2.01
   2  10   3   17.45    1.93
   2  10   3   17.46    1.69
   2  10   3   15.50    1.56
   2  10   3   13.77    2.11
  -3 -10  -3    3.85    1.07
   3  10   3    5.25    1.53
   3  10   3    2.94    0.88
   3  10   3    3.68    0.89
  -4 -10  -3    2.45    1.05
  -4 -10  -3    4.51    1.36
   4  10   3    3.32    1.07
   4  10   3    2.47    1.35
   4  10   3    3.42    1.09
   5 -11  -3    0.10    0.54
  -5  11   3    0.35    0.74
   4 -11  -3    2.17    1.07
  -4  11   3    3.01    1.12
   3 -11  -3    0.34    0.58
  -3  11   3    1.06    0.71
   2 -11  -3    0.52    0.57
   2 -11  -3    0.55    0.54
  -2  11   3    0.22    0.75
  -2  11   3    0.06    0.49
   1 -11  -3   11.36    1.82
   1 -11  -3   15.14    1.66
  -1  11   3   11.54    1.72
  -1  11   3   13.46    1.94
   0 -11  -3    0.38    0.49
   0  11   3    0.41    0.60
   0  11   3    0.32    0.59
  -1 -11  -3   10.93    1.74
   1  11   3   11.43    1.90
   1  11   3   11.61    1.64
  -2 -11  -3   36.45    3.09
   2  11   3   40.91    3.33
   2  11   3   42.42    2.90
  -3 -11  -3    6.87    1.58
   3  11   3    3.71    1.46
  -4 -11  -3    0.70    0.93
  -4 -11  -3   -0.15    0.94
   4  11   3    1.12    1.28
   5 -12  -3    0.22    0.74
  -5  12   3    0.21    1.05
   4 -12  -3    0.79    0.86
  -4  12   3    0.87    0.78
   3 -12  -3   14.49    1.93
   3 -12  -3   11.40    1.88
  -3  12   3   10.47    1.75
  -3  12   3    8.26    1.65
   2 -12  -3    7.92    1.47
   2 -12  -3    8.24    1.58
  -2  12   3    8.84    1.52
  -2  12   3    8.22    1.64
   1 -12  -3    5.30    1.05
   1 -12  -3    3.13    1.02
  -1  12   3    5.01    1.29
  -1  12   3    2.66    0.86
   0 -12  -3    3.80    1.10
   0  12   3    1.93    0.87
   0  12   3    2.67    1.22
  -1 -12  -3   -0.06    0.63
   1  12   3    0.33    0.64
   1  12   3   -0.16    0.52
  -2 -12  -3   15.14    2.22
   2  12   3   17.38    2.11
   2  12   3   15.84    2.44
  -3 -12  -3    0.32    0.89
   3  12   3    1.90    1.30
   4 -13  -3   11.51    2.07
   4 -13  -3    9.35    1.87
  -4  13   3   13.79    2.21
   3 -13  -3   -0.12    0.65
   3 -13  -3    0.14    0.84
  -3  13   3    1.17    0.94
  -3  13   3    0.39    0.89
   2 -13  -3    4.78    1.21
   2 -13  -3    3.42    1.25
  -2  13   3    4.65    1.34
  -2  13   3    3.87    1.23
   1 -13  -3    0.36    0.57
  -1  13   3    0.25    0.68
  -1  13   3    0.40    0.93
   0 -13  -3    3.20    1.22
   0  13   3    5.67    1.35
   0  13   3    6.36    1.70
  -1 -13  -3    2.74    1.26
   1  13   3    1.19    1.18
   1  13   3    2.74    1.01
  -2 -13  -3    9.94    1.92
   2  13   3   12.25    2.36
   3 -14  -3    1.21    1.19
   3 -14  -3    2.39    1.11
  -3  14   3    2.55    1.08
  -3  14   3    1.98    1.19
   2 -14  -3    8.48    1.92
  -2  14   3   11.78    1.95
  -2  14   3    9.21    1.99
   1 -14  -3   27.65    3.21
  -1  14   3   24.89    2.81
  -1  14   3   23.96    3.09
   0 -14  -3   14.80    2.30
   0  14   3   14.32    2.10
   0  14   3   14.33    2.41
  -1 -14  -3    1.10    1.00
   1  14   3    3.13    1.69
   1  14   3    1.23    1.05
   1  15  -4    1.59    0.92
  -1 -15   4    1.79    1.09
   0 -15   4   16.32    2.21
   0 -15   4   13.20    2.33
   0 -15   4   12.26    2.19
   1 -15   4    0.71    0.82
   1 -15   4    1.86    1.06
   1 -15   4    1.39    1.00
  -2  15  -4   -0.20    0.68
   2 -15   4   -0.20    0.83
   2 -15   4   -0.55    0.60
   2 -15   4   -0.30    0.56
  -3  15  -4   -0.97    0.65
   3 -15   4    0.58    0.76
   3 -15   4    0.76    0.86
   2  14  -4    5.05    1.24
  -2 -14   4    3.10    1.42
   1  14  -4   -0.02    0.64
  -1 -14   4    0.47    1.00
  -1 -14   4    0.75    0.70
   0  14  -4    4.36    1.07
   0 -14   4    0.92    0.88
   0 -14   4    1.07    1.07
   0 -14   4    1.71    0.96
  -1  14  -4    1.64    0.76
  -1  14  -4    1.49    0.89
   1 -14   4    0.03    0.84
   1 -14   4    0.61    0.81
   1 -14   4    1.33    0.93
  -2  14  -4   17.28    1.88
  -2  14  -4   11.67    1.77
   2 -14   4   11.96    1.96
   2 -14   4   13.80    2.08
  -3  14  -4    4.12    1.27
   3 -14   4    5.12    1.34
   3 -14   4    3.84    1.25
  -4  14  -4    0.95    1.06
   4 -14   4    0.97    0.89
   3  13  -4    4.16    1.27
   3  13  -4    4.99    1.48
  -3 -13   4    3.73    1.34
   2  13  -4    0.53    0.70
  -2 -13   4    0.35    0.91
   1  13  -4   -0.37    0.39
  -1 -13   4   -0.07    0.53
  -1 -13   4   -0.84    0.49
   0  13  -4   -0.09    0.53
   0 -13   4   -0.01    0.48
   0 -13   4   -0.30    0.59
   0 -13   4    0.79    0.72
  -1  13  -4   -0.01    0.54
  -1  13  -4    1.04    0.64
   1 -13   4    1.53    0.83
   1 -13   4    1.31    0.71
  -2  13  -4    0.98    0.64
  -2  13  -4    0.29    0.69
   2 -13   4    0.46    0.71
   2 -13   4    1.62    0.75
  -3  13  -4   40.87    3.12
  -3  13  -4   39.38    2.66
   3 -13   4   37.85    2.94
   3 -13   4   43.11    3.32
  -4  13  -4    0.23    0.70
  -4  13  -4   -0.20    0.84
   4 -13   4    0.87    0.96
   4 -13   4    1.31    1.06
  -5  13  -4    2.63    1.35
   5 -13   4    1.36    1.14
   4  12  -4    1.83    1.24
   4  12  -4    1.26    1.04
  -4 -12   4   -0.03    0.68
   3  12  -4   -0.23    0.67
   3  12  -4   -0.42    0.68
  -3 -12   4    0.54    0.82
   2  12  -4    4.07    1.05
  -2 -12   4    3.08    1.12
  -2 -12   4    4.21    1.04
   1  12  -4   14.01    1.69
  -1 -12   4   14.30    1.71
  -1 -12   4   14.44    2.05
   0  12  -4    0.81    0.56
   0  12  -4    1.65    0.71
   0 -12   4    1.24    0.80
   0 -12   4    2.13    0.86
   0 -12   4    1.33    0.70
  -1  12  -4   19.64    1.96
  -1  12  -4   21.30    1.96
   1 -12   4   23.92    2.42
   1 -12   4   20.72    2.29
  -2  12  -4    0.48    0.49
  -2  12  -4    0.10    0.56
   2 -12   4   -0.20    0.59
   2 -12   4    0.64    0.58
  -3  12  -4    3.33    1.09
  -3  12  -4    2.62    0.91
   3 -12   4    3.44    1.13
   3 -12   4    3.47    1.01
  -4  12  -4   44.70    3.42
   4 -12   4   41.92    2.87
   4 -12   4   50.88    4.78
   4 -12   4   36.26    3.22
  -5  12  -4    6.41    1.72
   5 -12   4    4.37    1.44
   5  11  -4    0.55    1.03
   5  11  -4    0.25    1.02
  -5 -11   4   -0.42    1.02
   4  11  -4    1.52    1.05
   4  11  -4    1.91    1.07
  -4 -11   4    3.04    1.18
   3  11  -4    1.85    0.90
  -3 -11   4    2.08    0.95
   2  11  -4    4.66    1.03
  -2 -11   4    4.39    1.20
  -2 -11   4    4.00    0.94
   1  11  -4    1.79    0.58
   1  11  -4    1.61    0.62
  -1 -11   4    2.26    0.79
  -1 -11   4    1.36    0.94
  -1 -11   4    1.51    0.65
   0  11  -4   35.00    2.33
   0  11  -4   33.38    2.11
   0 -11   4   38.26    2.72
   0 -11   4   33.02    2.67
   0 -11   4   34.16    2.48
  -1  11  -4    3.85    0.87
  -1  11  -4    2.91    0.76
   1 -11   4    2.88    0.81
   1 -11   4    4.10    0.99
  -2  11  -4    0.07    0.42
  -2  11  -4   -0.28    0.50
   2 -11   4   -0.24    0.36
   2 -11   4    0.33    0.45
  -3  11  -4    5.43    1.22
   3 -11   4    5.55    1.08
   3 -11   4    4.19    0.89
   3 -11   4    4.23    1.10
  -4  11  -4   -0.22    0.69
   4 -11   4    0.36    0.60
   4 -11   4    0.69    0.53
   4 -11   4   -0.55    0.63
  -5  11  -4   45.47    3.59
   5 -11   4   42.40    3.46
   5 -11   4   37.62    2.92
  -6  11  -4    7.76    1.80
   6 -11   4    7.52    1.75
   5  10  -4    1.75    1.05
   5  10  -4    1.10    0.79
  -5 -10   4   -0.03    0.64
   4  10  -4    3.81    1.08
   4  10  -4    1.02    0.98
  -4 -10   4   -0.07    0.79
   3  10  -4   20.00    2.12
  -3 -10   4   17.49    2.30
   2  10  -4   13.86    1.63
  -2 -10   4   15.10    2.03
  -2 -10   4   13.96    1.56
   1  10  -4    0.32    0.34
   1  10  -4    0.12    0.49
  -1 -10   4    0.55    0.51
  -1 -10   4    0.53    0.57
  -1 -10   4   -0.02    0.39
   0  10  -4   39.41    2.48
   0  10  -4   42.38    2.33
   0 -10   4   38.83    2.79
   0 -10   4   36.77    2.68
   0 -10   4   43.36    2.67
  -1  10  -4    4.16    0.84
  -1  10  -4    3.71    0.80
   1 -10   4    4.32    1.00
   1 -10   4    3.80    0.93
  -2  10  -4    0.01    0.48
   2 -10   4    0.48    0.48
   2 -10   4   -0.14    0.44
  -3  10  -4   15.37    1.91
   3 -10   4   12.49    1.73
   3 -10   4   13.75    1.54
   3 -10   4   12.99    1.48
  -4  10  -4    2.54    0.91
   4 -10   4    1.57    0.63
   4 -10   4    1.03    0.66
   4 -10   4    0.87    0.87
  -5  10  -4    5.18    1.37
   5 -10   4    5.91    1.50
   5 -10   4    7.37    1.37
  -6  10  -4    2.92    1.19
   6 -10   4    0.80    0.77
   6 -10   4    1.38    0.94
   6   9  -4   33.72    3.56
  -6  -9   4   31.57    3.53
  -6  -9   4   24.45    3.09
   5   9  -4    0.32    0.68
   5   9  -4    0.14    0.70
  -5  -9   4   -0.10    0.87
   4   9  -4    4.75    1.25
   4   9  -4    6.82    1.38
  -4  -9   4    8.20    1.55
   3   9  -4   -0.12    0.54
  -3  -9   4    0.78    0.57
   2   9  -4    3.46    0.84
  -2  -9   4    3.29    0.80
  -2  -9   4    2.61    0.81
   1   9  -4    0.55    0.46
   1   9  -4   -0.28    0.23
  -1  -9   4    0.13    0.41
  -1  -9   4    0.28    0.33
   0   9  -4   16.20    1.21
   0   9  -4   15.64    1.49
   0  -9   4   15.36    1.68
   0  -9   4   14.08    1.68
   0  -9   4   17.41    1.72
  -1   9  -4   11.72    1.31
  -1   9  -4   13.96    1.37
   1  -9   4   17.62    1.75
   1  -9   4   15.30    1.59
  -2   9  -4    6.85    1.12
   2  -9   4    4.86    0.98
   2  -9   4    6.89    0.98
   2  -9   4    6.28    0.96
  -3   9  -4    1.43    0.65
   3  -9   4    1.35    0.50
   3  -9   4    1.02    0.56
   3  -9   4    0.68    0.56
  -4   9  -4   10.38    1.68
   4  -9   4   14.65    1.66
   4  -9   4    9.86    1.64
   4  -9   4   14.93    1.42
  -5   9  -4    0.43    0.65
   5  -9   4    0.32    0.60
   5  -9   4   -1.16    0.48
  -6   9  -4   25.79    3.01
   6  -9   4   21.05    2.49
   6  -9   4   21.47    2.75
   6   8  -4   48.56    3.71
  -6  -8   4   40.07    3.47
  -6  -8   4   41.42    3.51
   5   8  -4    3.55    1.09
   5   8  -4    2.86    1.09
  -5  -8   4    0.90    0.90
   4   8  -4    1.94    0.81
   4   8  -4    0.63    0.74
  -4  -8   4    0.39    0.52
   3   8  -4   14.49    1.68
  -3  -8   4   15.66    1.48
  -3  -8   4   15.26    1.96
   2   8  -4    1.56    0.66
  -2  -8   4    1.07    0.47
  -2  -8   4    1.60    0.77
   1   8  -4   25.37    1.38
   1   8  -4   25.89    1.79
  -1  -8   4   26.68    2.05
  -1  -8   4   27.62    1.52
  -1  -8   4   24.41    1.78
   0   8  -4   35.04    2.18
   0   8  -4   39.86    2.06
   0  -8   4   40.92    2.38
   0  -8   4   37.85    2.39
   0  -8   4   36.74    2.40
  -1   8  -4    1.57    0.51
   1  -8   4    1.57    0.58
   1  -8   4    2.22    0.61
  -2   8  -4   67.16    3.61
   2  -8   4   67.06    3.44
   2  -8   4   68.05    3.71
   2  -8   4   66.34    3.38
  -3   8  -4    4.03    0.91
   3  -8   4    3.21    0.70
   3  -8   4    3.35    0.67
   3  -8   4    4.16    0.91
  -4   8  -4   -0.22    0.44
   4  -8   4    0.76    0.49
   4  -8   4    0.53    0.62
   4  -8   4    0.37    0.35
  -5   8  -4    5.95    1.41
   5  -8   4    6.36    1.40
   5  -8   4    7.75    1.33
  -6   8  -4    1.37    0.92
   6  -8   4    0.73    0.75
   6  -8   4    1.54    1.11
  -7   8  -4    0.02    0.78
   7  -8   4    0.21    0.84
   7  -8   4    0.02    0.69
   6   7  -4    0.27    0.94
  -6  -7   4    0.79    0.93
  -6  -7   4   -0.18    0.88
   5   7  -4    5.50    1.35
   5   7  -4    4.51    1.08
  -5  -7   4    3.26    1.13
   4   7  -4   17.26    2.02
   4   7  -4   22.08    2.19
  -4  -7   4   17.39    2.09
   3   7  -4   -0.14    0.46
  -3  -7   4   -0.01    0.17
  -3  -7   4   -0.40    0.29
   2   7  -4    0.35    0.34
  -2  -7   4    0.03    0.47
  -2  -7   4    0.43    0.21
  -2  -7   4    1.40    0.51
   1   7  -4   51.94    2.33
   1   7  -4   54.93    2.85
  -1  -7   4   55.41    2.45
  -1  -7   4   51.50    3.02
  -1  -7   4   50.17    2.80
   0   7  -4    5.19    0.75
   0  -7   4    3.97    0.75
   0  -7   4    5.19    0.43
   0  -7   4    6.80    0.97
   0  -7   4    5.56    0.83
   0  -7   4    7.14    0.79
  -1   7  -4    4.73    0.73
   1  -7   4    3.20    0.60
   1  -7   4    3.74    0.65
   1  -7   4    3.76    0.74
  -2   7  -4   13.21    1.40
   2  -7   4   12.26    1.41
   2  -7   4   11.19    1.25
   2  -7   4   13.60    1.08
  -3   7  -4    2.78    0.75
   3  -7   4    1.51    0.43
   3  -7   4    2.40    0.66
   3  -7   4    1.05    0.63
  -4   7  -4    2.38    0.80
  -4   7  -4    4.04    0.71
   4  -7   4    3.56    0.82
   4  -7   4    4.07    0.61
   4  -7   4    4.12    1.00
  -5   7  -4    6.41    1.06
  -5   7  -4    6.43    1.34
   5  -7   4    3.82    1.00
   5  -7   4    6.73    1.21
  -6   7  -4    5.21    1.38
   6  -7   4    4.11    1.13
   6  -7   4    4.40    1.10
  -7   7  -4    2.43    1.17
   7  -7   4    1.98    1.05
   7  -7   4    1.74    1.14
   7   6  -4   -0.11    0.84
  -7  -6   4    1.45    1.14
   6   6  -4    0.19    0.86
  -6  -6   4   -0.71    0.45
  -6  -6   4   -0.91    0.45
   5   6  -4    0.65    0.64
   5   6  -4    1.01    0.66
  -5  -6   4    1.10    0.83
  -5  -6   4    2.79    1.04
   4   6  -4   21.46    2.21
   4   6  -4   25.33    1.94
  -4  -6   4   23.00    1.35
  -4  -6   4   23.85    2.43
   3   6  -4    0.39    0.43
  -3  -6   4    0.18    0.17
  -3  -6   4    0.22    0.42
   2   6  -4    0.30    0.42
  -2  -6   4    0.28    0.14
  -2  -6   4   -0.28    0.22
  -2  -6   4    0.48    0.14
  -2  -6   4    0.57    0.31
   1   6  -4    6.54    0.84
   1   6  -4    5.90    0.43
  -1  -6   4    5.48    0.80
  -1  -6   4    5.80    0.89
  -1  -6   4    6.30    0.50
   0   6  -4   -0.17    0.16
   0   6  -4    0.29    0.22
   0  -6   4    0.22    0.13
   0  -6   4    0.50    0.25
   0  -6   4    0.16    0.24
   0  -6   4   -0.30    0.23
   0  -6   4    0.39    0.32
  -1   6  -4    4.05    0.66
   1  -6   4    4.46    0.77
   1  -6   4    3.71    0.60
   1  -6   4    4.62    0.68
   1  -6   4    4.83    0.68
  -2   6  -4   19.79    1.48
   2  -6   4   19.20    1.22
   2  -6   4   17.52    1.36
   2  -6   4   19.69    1.50
  -3   6  -4    6.73    0.71
  -3   6  -4    7.63    0.80
  -3   6  -4    5.46    1.06
   3  -6   4    6.19    1.02
   3  -6   4    5.59    0.65
   3  -6   4    5.91    0.94
  -4   6  -4    0.15    0.59
  -4   6  -4    0.02    0.40
   4  -6   4    0.56    0.29
   4  -6   4    0.18    0.49
   4  -6   4    0.24    0.22
   4  -6   4   -0.38    0.25
  -5   6  -4    3.57    1.06
  -5   6  -4    6.92    1.12
   5  -6   4    3.63    1.00
   5  -6   4    6.43    1.21
  -6   6  -4    6.36    1.28
  -6   6  -4    7.74    1.62
   6  -6   4    5.14    1.30
   6  -6   4    8.49    1.59
  -7   6  -4   -0.90    0.98
   7  -6   4   -0.16    0.87
   7  -6   4   -0.48    0.51
   7   5  -4    2.24    1.38
  -7  -5   4    3.57    1.50
   6   5  -4   -0.40    0.50
  -6  -5   4   -0.44    0.70
  -6  -5   4   -0.13    0.70
   5   5  -4   -0.01    0.42
   5   5  -4    0.29    0.67
  -5  -5   4   -0.70    0.32
  -5  -5   4    0.07    0.42
   4   5  -4    8.75    1.18
   4   5  -4    8.26    1.28
  -4  -5   4    8.55    0.81
  -4  -5   4    8.68    1.30
  -4  -5   4    9.22    1.42
   3   5  -4   10.34    1.26
  -3  -5   4   12.13    0.70
  -3  -5   4   13.90    1.54
   2   5  -4  137.66    6.02
  -2  -5   4  132.63    5.99
  -2  -5   4  135.70    6.19
   1   5  -4    7.60    0.41
   1   5  -4    5.57    0.76
  -1  -5   4    7.66    0.44
  -1  -5   4    6.60    0.83
  -1  -5   4    7.97    0.97
  -1  -5   4    6.13    0.69
   0   5  -4    3.05    0.54
   0   5  -4    3.66    0.45
   0  -5   4    2.89    0.55
   0  -5   4    3.26    0.44
   0  -5   4    2.82    0.53
  -1   5  -4    3.33    0.51
  -1   5  -4    2.60    0.52
   1  -5   4    3.11    0.54
   1  -5   4    4.04    0.55
   1  -5   4    3.99    0.58
   1  -5   4    3.58    0.64
  -2   5  -4    7.71    0.52
  -2   5  -4    7.21    0.95
  -2   5  -4    7.98    0.66
   2  -5   4    6.53    0.85
   2  -5   4    6.89    0.70
   2  -5   4    5.49    0.86
   2  -5   4    8.20    0.64
  -3   5  -4    1.79    0.55
  -3   5  -4    1.71    0.46
   3  -5   4    2.37    0.35
   3  -5   4    1.52    0.49
   3  -5   4    1.74    0.54
   3  -5   4    1.60    0.30
  -4   5  -4   11.91    1.27
  -4   5  -4    9.30    1.45
   4  -5   4   15.73    1.61
   4  -5   4   11.05    1.41
   4  -5   4   12.54    0.73
  -5   5  -4    5.68    1.04
  -5   5  -4    5.50    1.28
   5  -5   4    6.66    1.22
   5  -5   4    4.56    1.11
  -6   5  -4    0.69    0.70
  -6   5  -4   -1.05    0.44
   6  -5   4   -0.60    0.38
   6  -5   4    0.01    0.63
  -7   5  -4   44.57    3.74
  -7   5  -4   44.34    3.33
   7  -5   4   39.58    3.31
   7  -5   4   41.66    3.29
   7   4  -4   -0.30    0.60
  -7  -4   4   -0.26    0.76
   6   4  -4   12.84    1.89
  -6  -4   4   11.46    1.84
  -6  -4   4    9.19    1.76
   5   4  -4   -0.35    0.36
   5   4  -4   -0.08    0.46
  -5  -4   4    0.05    0.34
  -5  -4   4   -0.22    0.45
  -5  -4   4   -0.50    0.46
   4   4  -4   12.85    1.29
   4   4  -4   13.41    1.58
  -4  -4   4   13.11    1.59
  -4  -4   4   12.51    0.94
  -4  -4   4   11.43    1.50
   3   4  -4    0.21    0.32
  -3  -4   4   -0.25    0.39
  -3  -4   4    0.16    0.15
  -3  -4   4   -0.08    0.25
   2   4  -4    5.05    0.77
  -2  -4   4    5.81    0.85
  -2  -4   4    5.22    0.79
  -2  -4   4    5.38    0.78
   1   4  -4    1.98    0.43
   1   4  -4    2.27    0.16
  -1  -4   4    2.59    0.42
  -1  -4   4    2.99    0.57
  -1  -4   4    2.63    0.50
   0   4  -4    6.29    0.51
   0   4  -4    6.51    0.72
   0  -4   4    5.45    0.70
   0  -4   4    5.78    0.48
   0  -4   4    5.90    0.70
  -1   4  -4   49.69    2.52
  -1   4  -4   56.35    2.40
   1  -4   4   48.44    2.58
   1  -4   4   49.28    2.55
   1  -4   4   50.47    2.42
   1  -4   4   53.72    2.53
  -2   4  -4   34.52    2.10
  -2   4  -4   36.49    1.66
   2  -4   4   35.09    2.04
   2  -4   4   35.60    1.64
   2  -4   4   36.47    1.70
   2  -4   4   34.63    2.04
  -3   4  -4    5.52    0.95
   3  -4   4    3.60    0.72
   3  -4   4    5.65    0.37
   3  -4   4    3.99    0.76
  -4   4  -4   24.39    2.04
   4  -4   4   27.45    1.97
   4  -4   4   27.94    2.06
  -5   4  -4    2.07    0.80
   5  -4   4    1.59    0.79
   5  -4   4    3.12    0.84
  -6   4  -4    2.71    1.03
  -6   4  -4    2.20    0.92
   6  -4   4    1.74    0.88
   6  -4   4    1.12    0.74
  -7   4  -4   12.11    1.97
  -7   4  -4   10.24    1.93
   7  -4   4   10.26    1.78
   7  -4   4   11.47    2.03
   7   3  -4    8.74    1.69
  -7  -3   4    7.92    1.77
   6   3  -4   27.49    2.75
  -6  -3   4   28.77    2.40
  -6  -3   4   21.82    2.66
   5   3  -4    2.65    0.63
   5   3  -4    1.26    0.61
  -5  -3   4    2.18    0.60
  -5  -3   4    1.26    0.71
  -5  -3   4    1.54    0.81
   4   3  -4    0.21    0.28
   4   3  -4   -0.15    0.43
  -4  -3   4   -0.15    0.25
  -4  -3   4    0.47    0.58
  -4  -3   4    0.08    0.45
   3   3  -4   13.69    1.36
  -3  -3   4   12.98    0.81
  -3  -3   4   13.82    0.77
  -3  -3   4   13.13    1.42
  -3  -3   4   14.31    1.46
   2   3  -4   84.75    3.87
  -2  -3   4   82.16    4.01
  -2  -3   4   82.93    3.88
   1   3  -4  121.20    4.56
   1   3  -4  112.42    4.98
  -1  -3   4  113.53    5.13
  -1  -3   4  114.54    5.07
  -1  -3   4  119.71    4.94
   0   3  -4   12.83    0.74
   0   3  -4   14.86    1.00
   0   3  -4   12.41    0.92
   0   3  -4   13.39    0.95
   0   3  -4   12.47    0.78
   0  -3   4   15.20    0.81
   0  -3   4   12.86    0.93
   0  -3   4   12.23    0.95
   0  -3   4   13.39    0.94
  -1   3  -4   43.99    2.25
  -1   3  -4   46.81    2.04
   1  -3   4   45.22    2.11
   1  -3   4   49.63    2.29
   1  -3   4   42.40    2.29
   1  -3   4   45.68    2.30
  -2   3  -4  171.91    7.43
  -2   3  -4  175.66    6.77
   2  -3   4  179.86    7.36
   2  -3   4  173.35    6.83
   2  -3   4  170.60    7.39
  -3   3  -4   53.89    3.07
   3  -3   4   57.53    2.94
   3  -3   4   57.02    3.03
  -4   3  -4    0.36    0.41
   4  -3   4   -0.14    0.31
   4  -3   4    0.23    0.36
  -5   3  -4   16.87    2.00
   5  -3   4   13.62    1.77
   5  -3   4   14.67    1.62
  -6   3  -4   20.89    2.54
   6  -3   4   20.81    2.14
   6  -3   4   23.27    2.57
  -7   3  -4    0.79    0.98
  -7   3  -4    0.01    0.96
   7  -3   4    2.29    1.08
   7  -3   4    1.90    0.93
   7   2  -4    3.77    1.13
  -7  -2   4   -0.13    0.66
   6   2  -4   15.13    1.99
  -6  -2   4   13.19    2.01
  -6  -2   4   11.24    1.67
  -6  -2   4   11.37    1.43
   5   2  -4    3.34    0.87
   5   2  -4    4.08    0.60
  -5  -2   4    3.33    0.94
  -5  -2   4    3.16    0.71
  -5  -2   4    3.36    0.87
   4   2  -4  155.48    7.09
   4   2  -4  158.28    6.49
  -4  -2   4  153.63    7.15
  -4  -2   4  159.42    6.64
  -4  -2   4  157.78    7.28
   3   2  -4   -0.23    0.30
   3   2  -4    0.21    0.20
   3   2  -4    0.02    0.19
  -3  -2   4    0.07    0.31
  -3  -2   4    0.57    0.41
  -3  -2   4    0.29    0.20
  -3  -2   4   -0.11    0.17
   2   2  -4   69.46    3.38
   2   2  -4   74.99    3.01
  -2  -2   4   68.05    3.53
  -2  -2   4   77.91    3.04
  -2  -2   4   74.12    3.53
   1   2  -4  512.48   20.29
   1   2  -4  491.52   20.11
   1   2  -4  531.50   20.26
   1   2  -4  517.16   20.12
   1   2  -4  532.08   19.85
  -1  -2   4  502.72   19.82
  -1  -2   4  529.63   20.15
  -1  -2   4  538.03   20.14
  -1  -2   4  500.14   20.24
  -1  -2   4  512.16   20.31
   0   2  -4    0.07    0.12
   0   2  -4    0.30    0.17
   0   2  -4    0.10    0.18
   0   2  -4    0.03    0.13
   0   2  -4    0.00    0.10
   0   2  -4    0.28    0.17
   0  -2   4    0.01    0.13
   0  -2   4    0.10    0.17
   0  -2   4   -0.16    0.17
  -1   2  -4   41.15    2.22
  -1   2  -4   36.16    1.89
  -1   2  -4   41.63    2.36
  -1   2  -4   35.06    1.91
  -1   2  -4   39.58    1.75
   1  -2   4   39.32    1.95
   1  -2   4   37.44    2.05
   1  -2   4   38.78    1.76
   1  -2   4   36.76    1.90
   1  -2   4   35.28    1.94
  -2   2  -4    1.55    0.44
   2  -2   4    1.20    0.43
   2  -2   4    1.33    0.34
   2  -2   4    9.80    1.07
  -3   2  -4    1.16    0.54
   3  -2   4    2.63    0.63
   3  -2   4    2.23    0.50
   3  -2   4    2.69    0.60
  -4   2  -4   24.46    1.97
   4  -2   4   30.23    2.09
   4  -2   4   25.97    1.75
   4  -2   4   22.49    1.87
  -5   2  -4    2.78    1.00
   5  -2   4    0.84    0.52
   5  -2   4    0.90    0.60
   5  -2   4    0.83    0.72
  -6   2  -4    0.49    0.69
   6  -2   4    0.00    0.48
   6  -2   4    0.99    0.69
  -7   2  -4    7.69    1.79
   7  -2   4    8.27    1.68
   7   1  -4    5.89    1.37
  -7  -1   4    2.66    1.06
   6   1  -4    0.51    0.63
  -6  -1   4    0.32    0.53
  -6  -1   4    1.24    0.73
  -6  -1   4    0.55    0.66
   5   1  -4   47.40    3.00
  -5  -1   4   47.32    2.69
  -5  -1   4   47.91    3.03
  -5  -1   4   46.30    3.17
   4   1  -4   25.27    1.86
   4   1  -4   25.81    1.24
  -4  -1   4   24.92    2.00
  -4  -1   4   25.64    1.92
  -4  -1   4   26.48    1.62
   3   1  -4    5.21    0.77
   3   1  -4    6.15    0.43
   3   1  -4    5.83    0.67
  -3  -1   4    5.72    0.88
  -3  -1   4    6.59    0.69
  -3  -1   4    4.73    0.85
  -3  -1   4    5.53    0.63
   2   1  -4   58.93    2.59
   2   1  -4   57.53    2.79
  -2  -1   4   58.24    2.94
  -2  -1   4   59.26    3.00
  -2  -1   4   61.88    2.61
   1   1  -4  102.55    4.52
   1   1  -4  106.43    4.66
   1   1  -4  110.28    4.35
   1   1  -4  104.68    4.43
   1   1  -4  108.40    4.60
   1   1  -4  105.56    4.40
  -1  -1   4  104.27    4.42
  -1  -1   4  105.98    4.66
  -1  -1   4  104.88    4.32
   0   1  -4  140.30    5.68
   0   1  -4  136.75    5.63
   0   1  -4  141.62    5.61
   0   1  -4  135.71    5.52
   0   1  -4  151.26    5.65
   0  -1   4  125.92    5.50
   0  -1   4  133.04    5.60
   0  -1   4  129.66    5.56
   0  -1   4  130.92    5.65
   0  -1   4  130.37    5.61
  -1   1  -4    0.84    0.31
  -1   1  -4    0.32    0.17
  -1   1  -4    0.14    0.21
  -1   1  -4   -0.08    0.12
  -1   1  -4    0.18    0.14
  -1   1  -4    0.30    0.19
   1  -1   4   -0.05    0.12
   1  -1   4    0.16    0.17
   1  -1   4    0.33    0.16
   1  -1   4    0.19    0.27
  -2   1  -4    0.91    0.35
  -2   1  -4    0.35    0.10
   2  -1   4    0.54    0.27
   2  -1   4    0.60    0.32
   2  -1   4    0.18    0.20
  -3   1  -4    0.23    0.30
   3  -1   4    0.83    0.49
   3  -1   4    1.51    0.39
   3  -1   4    0.13    0.34
  -4   1  -4    1.16    0.61
   4  -1   4    0.54    0.53
   4  -1   4    0.61    0.38
   4  -1   4    0.32    0.49
  -5   1  -4   62.37    3.71
   5  -1   4   53.51    3.01
   5  -1   4   53.68    3.47
   5  -1   4   53.64    3.39
  -6   1  -4    1.81    1.02
   6  -1   4   -0.19    0.61
   6  -1   4    0.48    0.76
   6  -1   4    0.56    0.50
  -7   1  -4    0.76    1.02
   7  -1   4   -0.49    0.89
   7   0  -4   13.78    2.13
  -7   0   4   17.44    2.54
  -7   0   4   15.57    1.94
   6   0  -4    9.94    1.61
  -6   0   4   12.70    1.56
  -6   0   4   11.18    1.54
  -6   0   4   11.07    1.83
   5   0  -4   61.51    3.57
  -5   0   4   60.18    3.78
  -5   0   4   65.50    3.42
  -5   0   4   66.34    3.69
   4   0  -4   -0.11    0.41
  -4   0   4    0.90    0.59
  -4   0   4    0.14    0.31
  -4   0   4   -0.33    0.26
   3   0  -4    0.06    0.30
   3   0  -4    0.28    0.32
  -3   0   4    0.45    0.31
  -3   0   4    0.56    0.29
  -3   0   4    1.16    0.44
  -3   0   4    0.40    0.33
   2   0  -4   -0.02    0.17
   2   0  -4   -0.02    0.07
   2   0  -4   -0.04    0.12
  -2   0   4    0.08    0.20
  -2   0   4    0.12    0.19
  -2   0   4   -0.12    0.26
  -2   0   4    0.01    0.16
   1   0  -4   56.21    2.69
   1   0  -4   55.48    2.48
   1   0  -4   55.07    2.53
   1   0  -4   58.15    2.50
   1   0  -4   58.58    2.73
   1   0  -4   56.03    2.76
   1   0  -4   59.32    2.58
  -1   0   4   54.38    2.76
  -1   0   4   57.82    2.50
  -1   0   4   57.41    2.56
   0   0  -4    0.57    0.24
   0   0  -4    0.62    0.22
   0   0  -4    0.82    0.29
   0   0  -4    0.42    0.18
   0   0  -4    0.81    0.21
   0   0   4    0.05    0.19
   0   0   4    0.55    0.21
   0   0   4    0.40    0.19
   0   0   4    0.46    0.23
   0   0   4    0.52    0.21
  -1   0  -4   83.08    3.55
  -1   0  -4   77.23    3.28
  -1   0  -4   75.33    3.32
  -1   0  -4   77.50    3.37
  -1   0  -4   88.34    3.93
  -1   0  -4   82.86    3.98
   1   0   4   74.90    3.50
   1   0   4   79.44    3.35
   1   0   4   77.20    3.66
  -2   0  -4   31.92    1.46
  -2   0  -4   31.54    1.37
  -2   0  -4   26.74    1.79
   2   0   4   31.72    1.39
   2   0   4   33.50    1.58
   2   0   4   29.62    1.91
   2   0   4   31.05    1.82
  -3   0  -4   12.90    0.67
  -3   0  -4   11.11    1.29
   3   0   4   11.07    1.30
   3   0   4    9.74    1.21
   3   0   4   13.32    0.91
   3   0   4   12.92    0.67
  -4   0  -4   17.44    1.80
   4   0   4   16.75    1.80
   4   0   4   15.64    1.69
   4   0   4   14.70    1.14
   4   0   4   16.75    0.87
  -5   0  -4    1.78    0.86
   5   0   4    0.55    0.58
   5   0   4    1.59    0.54
   5   0   4    1.23    0.72
  -6   0  -4    1.50    0.93
   6   0   4   -0.03    0.79
   6   0   4    0.00    0.63
  -7   0  -4    6.49    1.69
   7   0   4    5.47    1.46
   7   0   4    4.13    1.28
   7  -1  -4   24.98    2.79
   7  -1  -4   20.33    2.40
  -7   1   4   19.01    2.60
  -7   1   4   20.00    2.28
   6  -1  -4   13.16    1.70
  -6   1   4    8.50    1.63
  -6   1   4   11.18    1.55
   5  -1  -4    1.58    0.68
  -5   1   4    1.50    0.74
  -5   1   4    1.08    0.57
  -5   1   4    1.52    0.65
   4  -1  -4    0.19    0.27
  -4   1   4   -0.53    0.21
  -4   1   4    0.15    0.31
  -4   1   4    1.00    0.46
   3  -1  -4    9.03    0.93
  -3   1   4    8.72    0.92
  -3   1   4    7.24    0.86
  -3   1   4    8.30    1.07
  -3   1   4    7.53    1.06
   2  -1  -4    1.65    0.41
   2  -1  -4    1.90    0.36
  -2   1   4    1.94    0.33
  -2   1   4    1.78    0.39
  -2   1   4    1.75    0.49
   1  -1  -4   13.85    1.10
   1  -1  -4   15.52    1.01
   1  -1  -4   15.79    0.87
   1  -1  -4   16.06    0.82
   1  -1  -4   14.56    0.88
  -1   1   4   15.07    0.90
  -1   1   4   13.95    0.97
   0  -1  -4    7.77    0.57
   0  -1  -4    7.75    0.78
   0  -1  -4    8.22    0.79
   0  -1  -4    7.41    0.73
   0  -1  -4    6.53    0.53
   0  -1  -4    7.30    0.71
   0   1   4    6.90    0.72
   0   1   4    5.40    0.66
   0   1   4    6.82    0.53
  -1  -1  -4   11.48    0.84
  -1  -1  -4   10.20    0.76
  -1  -1  -4   10.60    0.73
  -1  -1  -4   10.85    0.63
   1   1   4   11.54    0.99
   1   1   4   10.09    0.64
   1   1   4    9.86    0.80
   1   1   4   11.56    0.88
   1   1   4   11.62    0.76
  -2  -1  -4    7.44    0.94
  -2  -1  -4    9.24    0.63
   2   1   4    8.95    0.58
   2   1   4    8.23    0.93
   2   1   4    9.76    0.67
   2   1   4    6.89    0.96
  -3  -1  -4    3.31    0.73
   3   1   4    4.10    0.77
   3   1   4    4.97    0.94
   3   1   4    3.66    0.47
   3   1   4    4.74    0.52
  -4  -1  -4    3.22    0.45
  -4  -1  -4    1.97    0.79
   4   1   4    1.88    0.74
   4   1   4    3.57    0.85
   4   1   4    3.61    0.55
  -5  -1  -4   15.48    1.96
   5   1   4   17.69    1.31
   5   1   4   20.42    2.20
   5   1   4   19.07    2.13
  -6  -1  -4    1.95    0.87
   6   1   4    2.59    1.00
   6   1   4    2.32    0.97
  -7  -1  -4   -0.30    0.89
   7   1   4    0.15    0.77
   7   1   4   -0.31    0.80
   7  -2  -4    0.84    0.74
   7  -2  -4    0.21    0.64
  -7   2   4    1.33    1.07
  -7   2   4    1.54    0.92
   6  -2  -4    7.93    1.37
   6  -2  -4    8.00    1.34
  -6   2   4    6.07    1.21
  -6   2   4    9.23    1.60
   5  -2  -4    6.49    1.02
  -5   2   4    5.62    1.24
  -5   2   4    5.04    0.99
   4  -2  -4    0.76    0.44
  -4   2   4    1.24    0.53
  -4   2   4    0.15    0.51
  -4   2   4    0.61    0.45
   3  -2  -4   93.57    4.09
  -3   2   4   89.92    4.28
  -3   2   4   92.30    4.29
   2  -2  -4   -0.10    0.28
   2  -2  -4    0.33    0.20
  -2   2   4    0.18    0.14
  -2   2   4    0.48    0.31
  -2   2   4    0.56    0.22
   1  -2  -4   52.07    2.36
   1  -2  -4   52.33    2.16
   1  -2  -4   49.45    2.56
   1  -2  -4   50.74    2.08
  -1   2   4   47.17    2.46
  -1   2   4   48.68    2.34
   0  -2  -4    9.70    0.69
   0  -2  -4   10.34    0.66
   0  -2  -4   10.67    0.85
   0  -2  -4   10.22    0.86
   0   2   4    9.26    0.81
   0   2   4    9.65    0.83
   0   2   4   10.42    0.89
   0   2   4   10.03    0.65
  -1  -2  -4  161.75    6.28
  -1  -2  -4  142.21    6.29
  -1  -2  -4  152.33    5.98
   1   2   4  150.34    6.32
   1   2   4  150.40    6.64
   1   2   4  151.31    6.50
   1   2   4  161.35    6.38
  -2  -2  -4    0.35    0.23
   2   2   4    0.99    0.31
   2   2   4    0.91    0.41
   2   2   4    0.70    0.11
   2   2   4    0.36    0.29
  -3  -2  -4    4.55    0.88
   3   2   4    5.79    0.43
   3   2   4    5.49    0.91
   3   2   4    6.19    0.71
   3   2   4    6.61    1.09
  -4  -2  -4   20.57    1.30
  -4  -2  -4   21.69    2.09
   4   2   4   18.46    2.01
   4   2   4   20.71    1.16
   4   2   4   18.25    1.95
  -5  -2  -4   10.23    1.61
   5   2   4   10.07    1.54
   5   2   4    8.36    1.43
  -6  -2  -4    0.91    0.85
   6   2   4    0.68    0.74
   6   2   4    0.03    0.50
  -7  -2  -4    7.09    1.82
   7   2   4    5.25    1.64
   7   2   4    8.51    1.81
   7  -3  -4    4.47    1.22
   7  -3  -4    6.13    1.42
  -7   3   4    6.11    1.40
  -7   3   4    8.41    1.57
  -7   3   4    5.50    1.52
   6  -3  -4    6.36    1.25
   6  -3  -4    8.56    1.39
  -6   3   4    7.92    1.38
  -6   3   4    7.21    1.38
  -6   3   4    8.86    1.60
   5  -3  -4    1.12    0.58
   5  -3  -4    1.12    0.48
  -5   3   4    0.46    0.54
  -5   3   4    0.73    0.62
  -5   3   4    0.79    0.63
   4  -3  -4    3.85    0.83
   4  -3  -4    4.22    0.73
  -4   3   4    4.75    0.91
  -4   3   4    3.62    0.80
   3  -3  -4   -0.20    0.19
   3  -3  -4    0.63    0.39
  -3   3   4    0.17    0.08
  -3   3   4    1.06    0.43
  -3   3   4    0.36    0.26
   2  -3  -4    6.62    0.49
   2  -3  -4    6.36    0.90
  -2   3   4    5.86    0.81
  -2   3   4    8.03    0.51
  -2   3   4    6.81    0.57
   1  -3  -4   23.66    1.03
   1  -3  -4   20.95    1.49
  -1   3   4   22.25    1.45
  -1   3   4   24.73    1.41
   0  -3  -4    0.21    0.19
   0  -3  -4    0.26    0.13
   0   3   4   -0.14    0.13
   0   3   4    0.37    0.34
   0   3   4    0.51    0.17
  -1  -3  -4    9.75    0.73
  -1  -3  -4    9.38    0.47
  -1  -3  -4    8.94    0.90
   1   3   4    9.79    0.77
   1   3   4    7.75    0.94
   1   3   4    7.91    1.04
  -2  -3  -4   28.33    1.64
   2   3   4   29.74    1.88
   2   3   4   29.06    2.03
   2   3   4   29.10    1.79
  -3  -3  -4    3.76    0.86
  -3  -3  -4    3.24    0.58
   3   3   4    5.03    0.99
   3   3   4    3.17    0.75
  -4  -3  -4    0.60    0.40
  -4  -3  -4   -0.10    0.49
   4   3   4    1.19    0.65
   4   3   4    0.34    0.49
  -5  -3  -4   -0.41    0.46
   5   3   4   -0.44    0.36
   5   3   4   -0.32    0.59
  -6  -3  -4    9.33    1.77
   6   3   4    7.47    1.52
   6   3   4    9.59    1.82
  -7  -3  -4    1.95    1.11
   7   3   4    1.80    1.05
   7   3   4    1.67    1.24
   7  -4  -4    4.29    1.24
   7  -4  -4    6.95    1.43
  -7   4   4    5.22    1.43
  -7   4   4    5.77    1.36
   6  -4  -4    1.35    0.75
   6  -4  -4    2.14    0.89
  -6   4   4    3.21    0.94
  -6   4   4    2.04    0.91
   5  -4  -4    5.64    0.97
   5  -4  -4    5.88    1.17
  -5   4   4    4.48    1.03
  -5   4   4    6.01    1.19
   4  -4  -4    1.58    0.58
   4  -4  -4    1.17    0.49
  -4   4   4    2.88    0.82
  -4   4   4    0.88    0.48
   3  -4  -4    5.06    0.88
  -3   4   4    5.20    0.61
  -3   4   4    5.80    0.55
  -3   4   4    3.78    0.78
   2  -4  -4    3.66    0.76
  -2   4   4    4.01    0.71
  -2   4   4    4.44    0.32
  -2   4   4    4.76    0.60
   1  -4  -4    4.50    0.72
  -1   4   4    4.18    0.65
  -1   4   4    4.40    0.70
   0  -4  -4   82.90    3.23
   0  -4  -4   78.03    3.81
   0   4   4   79.92    3.88
   0   4   4   76.06    3.78
   0   4   4   80.46    3.30
  -1  -4  -4    6.13    0.84
  -1  -4  -4    6.63    0.35
  -1  -4  -4    6.54    0.68
   1   4   4    6.53    0.71
   1   4   4    7.28    0.92
   1   4   4    6.17    0.98
  -2  -4  -4   12.25    1.18
   2   4   4   13.90    1.36
   2   4   4   11.21    1.43
   2   4   4   11.99    1.19
  -3  -4  -4   63.91    3.19
  -3  -4  -4   63.87    3.55
   3   4   4   59.85    3.38
   3   4   4   62.56    3.72
  -4  -4  -4    5.82    1.13
  -4  -4  -4    5.64    0.91
   4   4   4    5.29    1.04
   4   4   4    4.42    1.10
  -5  -4  -4    5.99    1.30
   5   4   4    4.85    1.25
   5   4   4    3.20    1.05
  -6  -4  -4   10.92    1.91
   6   4   4    7.73    1.57
   6   4   4   10.18    1.99
   7  -5  -4    0.12    0.74
  -7   5   4   -0.38    0.78
  -7   5   4    1.11    0.93
   6  -5  -4   10.49    1.63
   6  -5  -4   10.68    1.49
  -6   5   4    9.56    1.65
  -6   5   4    6.73    1.44
   5  -5  -4   32.13    2.48
   5  -5  -4   29.05    2.07
  -5   5   4   33.17    2.46
  -5   5   4   32.41    2.49
   4  -5  -4    0.14    0.34
   4  -5  -4   -0.38    0.25
  -4   5   4    0.32    0.41
  -4   5   4    0.30    0.21
   3  -5  -4   18.35    1.83
   3  -5  -4   19.95    1.13
  -3   5   4   16.06    1.70
  -3   5   4   21.19    1.26
  -3   5   4   20.23    1.12
   2  -5  -4   11.57    1.29
  -2   5   4   13.02    1.01
  -2   5   4    8.08    1.11
   1  -5  -4   51.73    2.78
  -1   5   4   47.61    2.59
  -1   5   4   45.67    2.63
   0  -5  -4    1.96    0.56
   0  -5  -4    2.37    0.26
   0   5   4    1.53    0.48
   0   5   4    2.23    0.29
   0   5   4    1.88    0.49
  -1  -5  -4   27.16    1.80
  -1  -5  -4   26.85    1.47
  -1  -5  -4   27.33    1.17
  -1  -5  -4   26.46    1.16
   1   5   4   27.30    1.82
   1   5   4   28.28    1.55
   1   5   4   26.26    1.95
  -2  -5  -4  119.69    5.40
   2   5   4  118.01    5.51
   2   5   4  118.04    5.32
   2   5   4  118.03    5.86
   2   5   4  114.91    5.23
  -3  -5  -4   51.17    2.91
  -3  -5  -4   53.87    3.20
   3   5   4   63.56    3.68
   3   5   4   52.11    3.04
   3   5   4   50.24    2.97
  -4  -5  -4   13.33    1.76
  -4  -5  -4   17.30    1.71
   4   5   4   14.65    1.79
   4   5   4   13.72    2.00
  -5  -5  -4    0.86    0.73
   5   5   4    0.38    0.78
   5   5   4    0.26    0.70
  -6  -5  -4    0.64    0.90
   6   5   4    0.48    0.69
   6   5   4    1.19    0.91
   7  -6  -4    1.22    0.87
  -7   6   4    3.97    1.35
  -7   6   4    2.66    1.18
   6  -6  -4    6.12    1.29
  -6   6   4    6.17    1.36
  -6   6   4    2.98    1.11
   5  -6  -4   -1.33    0.40
   5  -6  -4    0.15    0.43
  -5   6   4   -0.02    0.46
   4  -6  -4   12.23    0.98
   4  -6  -4   10.70    1.52
  -4   6   4   10.89    0.90
  -4   6   4    9.85    1.45
   3  -6  -4    9.67    0.60
   3  -6  -4    8.67    1.27
  -3   6   4    9.17    1.27
  -3   6   4    9.60    0.66
  -3   6   4    9.81    1.02
   2  -6  -4   12.46    1.45
  -2   6   4    8.91    1.23
  -2   6   4   10.08    1.12
   1  -6  -4    1.01    0.45
  -1   6   4    1.00    0.46
  -1   6   4    0.70    0.48
   0  -6  -4   53.86    3.02
   0   6   4   53.02    2.97
   0   6   4   52.06    3.04
   0   6   4   54.71    2.28
  -1  -6  -4   71.11    3.72
  -1  -6  -4   70.65    2.89
  -1  -6  -4   75.72    3.27
   1   6   4   66.74    3.66
   1   6   4   65.68    3.87
   1   6   4   72.77    3.29
   1   6   4   72.79    3.24
  -2  -6  -4   10.66    1.31
   2   6   4   11.09    1.15
   2   6   4   10.77    1.32
   2   6   4   11.78    1.25
   2   6   4   11.42    1.64
  -3  -6  -4    1.29    0.53
   3   6   4    1.37    0.55
   3   6   4    1.58    0.76
   3   6   4    0.72    0.53
  -4  -6  -4    0.54    0.66
  -4  -6  -4    0.73    0.61
   4   6   4    0.36    0.77
   4   6   4    0.64    0.69
  -5  -6  -4    0.33    0.71
   5   6   4    0.41    0.79
   5   6   4    1.86    0.98
  -6  -6  -4    1.17    0.95
   6   6   4   -0.16    0.86
   6   6   4    0.13    0.89
   7  -7  -4    2.10    0.97
  -7   7   4    0.74    1.03
   6  -7  -4    6.48    1.43
  -6   7   4    5.28    1.38
   5  -7  -4    0.69    0.69
  -5   7   4    0.06    0.51
   4  -7  -4    0.27    0.41
  -4   7   4    0.25    0.40
  -4   7   4    0.15    0.58
   3  -7  -4  227.77   10.12
  -3   7   4  229.46   10.09
  -3   7   4  224.92    9.54
   2  -7  -4   65.29    3.77
  -2   7   4   67.46    3.54
  -2   7   4   71.92    3.83
   1  -7  -4    0.20    0.46
  -1   7   4    0.13    0.35
  -1   7   4   -0.03    0.36
   0  -7  -4   23.68    1.91
   0   7   4   23.21    1.96
   0   7   4   26.67    1.91
   0   7   4   27.76    1.22
  -1  -7  -4   33.71    1.56
  -1  -7  -4   32.15    2.28
   1   7   4   37.07    1.91
   1   7   4   32.56    2.25
   1   7   4   39.50    2.62
   1   7   4   35.29    1.86
  -2  -7  -4   12.55    1.48
   2   7   4   12.20    1.46
   2   7   4    9.63    1.10
   2   7   4   12.12    1.25
   2   7   4   10.19    1.60
  -3  -7  -4    4.00    0.87
   3   7   4    2.83    0.78
   3   7   4    2.68    0.81
   3   7   4    2.99    1.08
  -4  -7  -4   -0.22    0.57
  -4  -7  -4    0.49    0.63
   4   7   4    0.13    0.63
   4   7   4   -0.41    0.54
   4   7   4   -0.22    0.77
  -5  -7  -4    2.00    0.91
   5   7   4    1.34    1.04
   5   7   4    1.09    0.90
   6  -8  -4    3.15    1.05
  -6   8   4    3.10    1.17
   5  -8  -4    2.47    0.90
  -5   8   4    0.58    0.79
   4  -8  -4    5.91    1.23
  -4   8   4    5.11    1.05
  -4   8   4    4.84    1.10
   3  -8  -4    2.79    0.97
  -3   8   4    3.30    0.77
  -3   8   4    3.41    0.87
   2  -8  -4    0.04    0.39
  -2   8   4    0.16    0.56
  -2   8   4    0.27    0.53
   1  -8  -4   12.41    1.56
  -1   8   4   10.80    1.42
  -1   8   4   13.86    1.63
   0  -8  -4    4.99    0.98
   0  -8  -4    4.10    0.66
   0   8   4    3.56    0.88
   0   8   4    3.24    0.78
   0   8   4    4.61    0.32
  -1  -8  -4    0.17    0.55
   1   8   4   -0.19    0.28
   1   8   4    0.97    0.50
   1   8   4    1.03    0.74
   1   8   4   -0.09    0.28
  -2  -8  -4   14.53    1.75
   2   8   4   10.40    1.20
   2   8   4   10.47    1.42
   2   8   4   11.07    1.21
   2   8   4   11.11    1.70
  -3  -8  -4    9.80    1.51
   3   8   4    8.83    1.29
   3   8   4    9.70    1.71
   3   8   4    7.23    1.16
  -4  -8  -4   11.83    1.83
  -4  -8  -4   15.07    1.98
   4   8   4   13.27    2.26
   4   8   4   14.59    1.88
   4   8   4   16.82    1.95
  -5  -8  -4    1.30    0.92
   5   8   4   -1.09    0.63
   5   8   4    0.70    0.86
   6  -9  -4    8.45    1.81
  -6   9   4    8.28    1.77
   5  -9  -4    3.23    1.16
  -5   9   4    3.73    1.24
   4  -9  -4   -0.07    0.65
  -4   9   4    0.02    0.44
   3  -9  -4   -0.54    0.33
  -3   9   4   -0.19    0.40
  -3   9   4   -0.27    0.57
   2  -9  -4   26.66    2.21
  -2   9   4   28.01    2.27
  -2   9   4   23.96    2.02
   1  -9  -4    6.16    1.18
  -1   9   4    5.87    1.13
  -1   9   4    6.36    1.22
   0  -9  -4   35.02    2.03
   0  -9  -4   33.74    2.60
   0   9   4   37.41    2.56
   0   9   4   33.79    2.59
  -1  -9  -4    0.58    0.54
   1   9   4    0.23    0.45
   1   9   4    1.18    0.67
   1   9   4    0.53    0.36
  -2  -9  -4    0.49    0.62
   2   9   4    0.54    0.47
   2   9   4    0.47    0.45
   2   9   4    0.69    0.64
   2   9   4    0.79    0.62
  -3  -9  -4    9.12    1.56
   3   9   4   10.78    1.94
   3   9   4   11.07    1.42
   3   9   4    8.29    1.28
  -4  -9  -4    1.83    0.93
  -4  -9  -4    1.45    0.95
   4   9   4    1.48    1.18
   4   9   4    1.46    0.91
  -5  -9  -4    4.42    1.28
   5   9   4    3.86    1.26
   5   9   4    3.01    1.46
   6 -10  -4    5.86    1.55
  -6  10   4    5.86    1.58
   5 -10  -4    4.43    1.35
   4 -10  -4    0.33    0.72
  -4  10   4    0.47    0.75
   3 -10  -4    4.63    1.12
  -3  10   4    2.29    0.88
  -3  10   4    4.32    1.12
   2 -10  -4    0.38    0.59
  -2  10   4    1.19    0.75
  -2  10   4    0.20    0.56
   1 -10  -4    3.36    0.92
   1 -10  -4    5.67    1.01
  -1  10   4    3.06    1.04
  -1  10   4    4.35    1.04
   0 -10  -4    3.64    1.08
   0  10   4    2.41    0.89
   0  10   4    3.55    0.94
  -1 -10  -4    0.35    0.53
   1  10   4    0.03    0.55
   1  10   4    0.84    0.78
  -2 -10  -4   10.81    1.72
   2  10   4    7.36    1.64
   2  10   4    7.09    1.37
  -3 -10  -4    6.09    1.42
   3  10   4    7.12    1.74
  -4 -10  -4    1.26    0.97
  -4 -10  -4    0.75    0.89
   4  10   4    1.99    1.13
   5 -11  -4    0.20    0.59
  -5  11   4   -0.72    0.55
   4 -11  -4    6.28    1.53
  -4  11   4    5.61    1.48
   3 -11  -4    3.58    1.08
  -3  11   4    1.39    0.79
  -3  11   4    2.82    0.95
   2 -11  -4    0.07    0.57
   2 -11  -4    0.02    0.49
  -2  11   4   -0.96    0.52
  -2  11   4   -0.27    0.58
   1 -11  -4    1.02    0.83
   1 -11  -4    0.48    0.51
  -1  11   4    0.88    0.61
  -1  11   4    0.44    0.69
   0 -11  -4    4.06    1.08
   0  11   4    2.86    0.87
   0  11   4    2.67    1.09
  -1 -11  -4   27.03    2.84
   1  11   4   26.42    2.60
   1  11   4   22.64    2.80
  -2 -11  -4   -0.48    0.67
   2  11   4    0.05    0.62
   2  11   4    0.75    0.76
  -3 -11  -4    0.34    0.81
   3  11   4    3.49    1.37
   4 -12  -4    2.08    1.05
  -4  12   4    3.63    1.24
   3 -12  -4   46.18    3.32
   3 -12  -4   39.82    3.29
  -3  12   4   43.49    3.18
  -3  12   4   42.60    3.34
   2 -12  -4    0.82    0.76
   2 -12  -4    0.40    0.64
  -2  12   4    0.82    0.72
  -2  12   4    1.44    0.94
   1 -12  -4    3.63    1.28
  -1  12   4    4.89    1.41
  -1  12   4    6.25    1.36
   0 -12  -4    4.66    1.38
   0  12   4    3.63    0.99
   0  12   4    6.91    1.53
  -1 -12  -4    1.88    1.03
   1  12   4    0.73    0.78
   1  12   4    1.85    0.93
  -2 -12  -4    0.57    1.01
   2  12   4    1.81    0.88
   2  12   4    0.38    0.76
  -3 -12  -4    0.51    0.91
   3  12   4    0.17    1.01
   4 -13  -4    0.39    0.89
   3 -13  -4    7.20    1.59
   3 -13  -4   10.36    1.96
  -3  13   4    7.55    1.66
  -3  13   4    8.12    1.80
   2 -13  -4   21.54    2.67
  -2  13   4   16.49    2.35
  -2  13   4   20.30    2.62
   1 -13  -4    8.40    1.72
  -1  13   4    6.57    1.50
  -1  13   4    6.51    1.46
   0 -13  -4    0.61    0.68
   0  13   4    0.78    0.77
   0  13   4    0.32    0.89
  -1 -13  -4    1.53    0.87
   1  13   4   -0.15    0.75
   1  13   4    0.99    1.10
   2 -14  -4    0.30    1.05
  -2  14   4    1.88    1.18
  -2  14   4    0.47    0.83
   1 -14  -4    0.06    0.98
  -1  14   4   -0.48    0.46
  -1  14   4   -0.24    0.66
   1  15  -5    4.39    1.27
  -1 -15   5    3.79    1.59
   0  15  -5    0.31    0.76
   0 -15   5    1.27    0.88
   0 -15   5    1.13    0.94
  -1  15  -5   18.91    2.17
   1 -15   5   17.07    2.40
   1 -15   5   15.09    2.43
   1 -15   5   17.25    2.34
   2 -15   5    6.90    1.54
   2 -15   5    7.35    1.68
   2 -15   5    6.03    1.60
  -3  15  -5    0.92    0.99
   3 -15   5    0.23    1.00
   3 -15   5    1.39    1.08
   3 -15   5    0.85    0.90
   2  14  -5   11.51    1.77
  -2 -14   5    7.83    1.99
   1  14  -5    0.42    0.74
  -1 -14   5   -0.09    0.61
  -1 -14   5    0.23    0.94
   0  14  -5   -0.51    0.54
   0 -14   5   -0.34    0.77
   0 -14   5    0.34    0.70
  -1  14  -5    2.06    0.79
   1 -14   5    0.06    0.79
   1 -14   5    0.40    0.66
   1 -14   5    0.76    0.95
  -2  14  -5    2.15    0.82
  -2  14  -5    0.89    0.80
   2 -14   5    1.99    0.95
   2 -14   5    2.01    1.10
   2 -14   5    2.47    1.07
  -3  14  -5    5.33    1.41
  -3  14  -5    4.82    1.17
   3 -14   5    4.57    1.39
   3 -14   5    3.46    1.27
  -4  14  -5    0.88    1.12
   4 -14   5   -0.03    0.89
   3  13  -5    1.31    0.79
  -3 -13   5    2.31    1.39
   2  13  -5    6.67    1.36
  -2 -13   5    6.35    1.27
  -2 -13   5    8.71    1.83
   1  13  -5    7.46    1.32
  -1 -13   5    4.63    1.24
  -1 -13   5    8.18    1.43
   0  13  -5    4.77    1.09
   0 -13   5    5.59    1.27
   0 -13   5    6.38    1.36
   0 -13   5    4.62    1.36
  -1  13  -5    7.77    1.24
  -1  13  -5    8.28    1.32
   1 -13   5    7.02    1.43
   1 -13   5    9.44    1.61
   1 -13   5    4.23    1.17
  -2  13  -5    4.47    1.11
  -2  13  -5    3.48    0.95
   2 -13   5    4.81    1.26
   2 -13   5    3.02    1.02
   2 -13   5    3.08    1.07
  -3  13  -5    1.04    0.85
  -3  13  -5    0.96    0.70
   3 -13   5   -0.13    0.63
   3 -13   5    0.84    0.68
   3 -13   5    1.61    0.93
  -4  13  -5    0.21    0.87
   4 -13   5    0.13    0.66
  -5  13  -5    0.14    1.07
   5 -13   5    1.15    0.93
   4  12  -5   -0.47    0.65
   4  12  -5    0.63    0.76
  -4 -12   5    0.06    0.98
   3  12  -5    0.91    0.75
  -3 -12   5    3.00    1.19
   2  12  -5   19.28    2.19
  -2 -12   5   20.44    2.13
  -2 -12   5   17.19    2.38
   1  12  -5    4.03    1.08
  -1 -12   5    3.61    1.11
  -1 -12   5    2.63    0.87
   0  12  -5   25.54    2.03
   0  12  -5   25.17    1.82
   0 -12   5   24.15    2.43
   0 -12   5   22.68    2.52
   0 -12   5   23.25    2.41
  -1  12  -5    0.03    0.48
  -1  12  -5    0.27    0.51
   1 -12   5    1.26    0.66
   1 -12   5    0.76    0.57
   1 -12   5    0.23    0.72
  -2  12  -5    0.02    0.37
  -2  12  -5    0.49    0.42
   2 -12   5   -0.53    0.47
   2 -12   5   -0.50    0.59
   2 -12   5   -0.54    0.53
  -3  12  -5    1.27    0.84
   3 -12   5    0.79    0.71
   3 -12   5    0.39    0.57
   3 -12   5    1.15    0.66
  -4  12  -5   18.82    2.46
   4 -12   5   19.42    2.15
   4 -12   5   14.93    2.21
  -5  12  -5   13.49    2.18
   5 -12   5    9.79    1.93
   5  11  -5    0.76    0.84
   5  11  -5   -0.01    1.00
  -5 -11   5    0.03    1.02
  -5 -11   5   -1.21    0.78
   4  11  -5    2.71    1.15
   4  11  -5    1.51    1.19
  -4 -11   5    1.53    1.05
   3  11  -5    1.32    0.70
  -3 -11   5   -0.24    0.52
  -3 -11   5   -0.46    0.54
   2  11  -5    4.92    1.14
  -2 -11   5    6.62    1.40
  -2 -11   5    5.04    1.10
   1  11  -5   34.05    2.47
  -1 -11   5   35.44    2.50
  -1 -11   5   33.01    2.69
   0  11  -5    1.69    0.60
   0  11  -5    3.23    0.68
   0 -11   5    2.69    0.88
   0 -11   5    4.03    0.99
   0 -11   5    3.68    0.93
  -1  11  -5    4.13    0.87
  -1  11  -5    3.46    0.87
   1 -11   5    4.37    1.03
   1 -11   5    4.43    1.03
   1 -11   5    3.48    0.98
  -2  11  -5   36.72    2.47
  -2  11  -5   31.02    2.22
   2 -11   5   32.41    2.36
   2 -11   5   30.81    2.40
   2 -11   5   26.50    2.71
  -3  11  -5   13.35    1.85
   3 -11   5   12.70    1.86
   3 -11   5   16.82    1.78
   3 -11   5   11.98    1.55
   3 -11   5   12.51    1.58
  -4  11  -5   15.91    2.19
   4 -11   5   11.63    1.88
   4 -11   5   15.14    1.82
  -5  11  -5   12.90    2.10
   5 -11   5   14.27    2.18
   5 -11   5    9.98    1.76
  -6  11  -5   18.82    2.81
   6 -11   5   22.34    3.49
   6 -11   5   18.76    2.76
   5  10  -5   59.93    4.20
   5  10  -5   59.49    4.11
  -5 -10   5   53.22    4.02
  -5 -10   5   61.20    4.44
   4  10  -5    6.47    1.43
   4  10  -5    9.43    1.67
  -4 -10   5    7.19    1.54
   3  10  -5   14.45    1.86
  -3 -10   5   11.81    1.88
  -3 -10   5   17.46    1.88
   2  10  -5    3.47    0.95
  -2 -10   5    2.17    0.75
  -2 -10   5    2.33    0.99
   1  10  -5   28.36    1.54
   1  10  -5   25.61    1.99
  -1 -10   5   26.70    2.26
  -1 -10   5   27.03    2.07
   0  10  -5   23.65    1.59
   0  10  -5   25.40    1.92
   0 -10   5   26.81    2.09
   0 -10   5   25.62    2.01
   0 -10   5   22.71    2.00
  -1  10  -5   71.25    3.81
   1 -10   5   75.25    4.02
   1 -10   5   69.13    4.06
   1 -10   5   76.14    4.11
  -2  10  -5   15.81    1.74
   2 -10   5   13.21    1.72
   2 -10   5   13.33    1.52
   2 -10   5   16.15    1.72
  -3  10  -5    2.11    0.79
   3 -10   5    1.92    0.65
   3 -10   5    1.79    0.76
   3 -10   5    1.50    0.71
   3 -10   5    1.06    0.55
  -4  10  -5    8.70    1.64
   4 -10   5    8.91    1.60
   4 -10   5    8.96    1.46
   4 -10   5    7.35    1.34
  -5  10  -5   10.93    1.98
   5 -10   5    6.21    1.36
   5 -10   5    6.73    1.56
  -6  10  -5    6.48    1.76
   6 -10   5    6.00    1.51
   6 -10   5    5.07    1.46
   6   9  -5   -0.68    0.91
  -6  -9   5    0.08    0.66
  -6  -9   5    0.93    1.09
   5   9  -5   12.58    1.94
   5   9  -5   14.85    2.18
  -5  -9   5   13.99    2.20
  -5  -9   5   10.78    1.94
   4   9  -5    7.22    1.47
   4   9  -5    8.84    1.58
  -4  -9   5    7.42    1.51
  -4  -9   5    5.91    1.22
   3   9  -5    1.79    0.79
  -3  -9   5    1.76    0.81
  -3  -9   5    1.41    0.66
   2   9  -5    0.31    0.57
  -2  -9   5    0.61    0.54
  -2  -9   5    1.00    0.51
   1   9  -5   16.61    1.01
   1   9  -5   18.07    1.72
  -1  -9   5   14.82    1.60
  -1  -9   5   14.17    1.78
   0   9  -5    1.13    0.56
   0   9  -5    0.51    0.37
   0  -9   5    1.73    0.61
   0  -9   5    0.79    0.19
   0  -9   5    1.43    0.68
  -1   9  -5   64.66    3.49
  -1   9  -5   69.10    3.47
   1  -9   5   67.11    3.74
   1  -9   5   66.84    3.60
   1  -9   5   67.32    3.66
  -2   9  -5    6.30    1.07
   2  -9   5    8.07    1.27
   2  -9   5    9.00    1.20
   2  -9   5    7.25    1.04
   2  -9   5   10.29    1.25
  -3   9  -5    0.08    0.46
   3  -9   5   -0.72    0.39
   3  -9   5    0.11    0.44
   3  -9   5    0.68    0.49
   3  -9   5    0.06    0.35
  -4   9  -5    1.23    0.86
   4  -9   5    2.53    0.96
   4  -9   5    2.84    0.69
   4  -9   5    2.80    0.90
  -5   9  -5    0.21    0.83
   5  -9   5    2.14    0.91
   5  -9   5    0.01    0.68
  -6   9  -5   -0.09    1.00
   6  -9   5    0.28    0.84
   6  -9   5    0.04    0.82
   6   8  -5   -0.27    0.61
  -6  -8   5    0.76    0.75
  -6  -8   5    1.79    1.10
   5   8  -5    1.04    0.87
   5   8  -5    1.66    0.86
  -5  -8   5    2.37    0.98
  -5  -8   5    0.47    0.81
   4   8  -5    2.33    0.80
   4   8  -5    2.59    0.94
  -4  -8   5    1.35    0.84
  -4  -8   5    1.86    0.81
   3   8  -5   45.08    2.94
  -3  -8   5   44.52    3.09
   2   8  -5    6.56    1.06
  -2  -8   5    8.28    0.48
  -2  -8   5    5.39    0.97
  -2  -8   5    6.97    1.22
   1   8  -5   19.07    1.05
   1   8  -5   20.31    1.60
  -1  -8   5   19.27    1.14
  -1  -8   5   18.74    1.92
  -1  -8   5   18.75    1.25
  -1  -8   5   19.31    1.57
   0   8  -5   -0.08    0.26
   0  -8   5    0.01    0.28
   0  -8   5    0.24    0.47
  -1   8  -5    1.79    0.53
   1  -8   5    0.83    0.51
   1  -8   5    1.35    0.54
   1  -8   5    2.25    0.70
  -2   8  -5    1.18    0.53
   2  -8   5    1.20    0.52
   2  -8   5    1.72    0.69
   2  -8   5    2.19    0.57
   2  -8   5    1.41    0.58
  -3   8  -5   -0.64    0.27
   3  -8   5    0.03    0.37
   3  -8   5   -0.06    0.33
   3  -8   5    0.68    0.56
   3  -8   5    0.25    0.47
  -4   8  -5    5.16    1.21
   4  -8   5    5.28    1.05
   4  -8   5    3.25    0.63
   4  -8   5    5.88    1.18
  -5   8  -5    1.76    0.87
   5  -8   5    0.52    0.75
   5  -8   5    1.75    0.81
  -6   8  -5    0.13    1.02
   6  -8   5    4.41    1.14
   6  -8   5    1.83    1.07
   6   7  -5    1.89    1.09
  -6  -7   5    0.82    1.01
  -6  -7   5    4.18    1.43
   5   7  -5   -0.28    0.48
   5   7  -5   -0.39    0.64
  -5  -7   5   -0.16    0.47
  -5  -7   5   -0.21    0.67
   4   7  -5    5.13    1.08
   4   7  -5    4.22    0.99
  -4  -7   5    5.34    1.19
  -4  -7   5    6.18    1.20
   3   7  -5   54.16    3.12
  -3  -7   5   46.41    3.15
  -3  -7   5   50.54    2.99
   2   7  -5    0.34    0.41
  -2  -7   5    0.04    0.33
  -2  -7   5    1.02    0.51
  -2  -7   5    0.84    0.48
   1   7  -5    0.02    0.35
   1   7  -5    0.52    0.18
  -1  -7   5    0.18    0.18
  -1  -7   5    0.35    0.39
  -1  -7   5   -0.21    0.21
  -1  -7   5    0.49    0.29
   0   7  -5   22.27    1.35
   0   7  -5   25.93    1.65
   0  -7   5   22.59    1.67
   0  -7   5   21.42    1.67
   0  -7   5   24.12    1.40
  -1   7  -5    7.14    0.92
   1  -7   5    5.60    0.89
   1  -7   5    7.11    0.97
   1  -7   5    8.52    0.98
   1  -7   5   10.36    1.23
  -2   7  -5   10.62    1.28
   2  -7   5   10.14    1.07
   2  -7   5    9.23    1.23
   2  -7   5   10.01    0.99
   2  -7   5    8.69    1.14
  -3   7  -5    8.87    1.35
   3  -7   5    9.32    0.96
   3  -7   5    9.77    1.32
   3  -7   5   10.12    1.29
   3  -7   5    9.43    0.92
  -4   7  -5   12.78    1.19
  -4   7  -5   10.61    1.65
   4  -7   5   11.56    0.89
   4  -7   5   11.34    1.48
   4  -7   5   11.59    1.56
  -5   7  -5    2.99    1.12
   5  -7   5    2.76    0.85
   5  -7   5    1.62    0.73
  -6   7  -5   -0.80    0.76
   6  -7   5   -0.30    0.52
   6  -7   5   -0.12    0.53
  -7   7  -5    0.83    0.99
   7  -7   5    2.39    1.17
   7  -7   5    2.21    1.17
   6   6  -5    5.43    1.52
  -6  -6   5    7.07    1.67
  -6  -6   5    8.33    1.65
   5   6  -5   -0.14    0.65
   5   6  -5    0.19    0.49
  -5  -6   5    0.17    0.62
  -5  -6   5   -0.41    0.55
   4   6  -5    0.31    0.52
   4   6  -5   -0.26    0.32
  -4  -6   5   -0.13    0.59
  -4  -6   5    0.20    0.60
   3   6  -5    0.31    0.39
  -3  -6   5    0.12    0.48
  -3  -6   5    0.51    0.59
   2   6  -5    6.33    0.99
  -2  -6   5    6.76    0.89
  -2  -6   5    5.67    0.92
  -2  -6   5    5.16    0.96
   1   6  -5   59.27    3.04
   1   6  -5   60.35    2.41
  -1  -6   5   59.44    2.42
  -1  -6   5   57.88    2.74
  -1  -6   5   52.44    2.98
  -1  -6   5   54.68    3.13
   0   6  -5    8.30    0.71
   0   6  -5    8.97    1.00
   0  -6   5    8.74    1.07
   0  -6   5    8.58    1.07
   0  -6   5   10.02    0.75
  -1   6  -5    1.85    0.50
   1  -6   5    1.75    0.53
   1  -6   5    1.16    0.49
   1  -6   5    3.25    0.62
  -2   6  -5   29.64    1.63
  -2   6  -5   25.48    1.85
   2  -6   5   27.04    1.61
   2  -6   5   28.87    1.87
   2  -6   5   27.32    1.54
   2  -6   5   25.55    1.86
  -3   6  -5    1.65    0.37
  -3   6  -5    0.79    0.33
  -3   6  -5    0.66    0.58
   3  -6   5    1.75    0.67
   3  -6   5    0.84    0.31
   3  -6   5    1.11    0.49
   3  -6   5    0.91    0.31
  -4   6  -5   17.66    1.99
  -4   6  -5   15.52    1.26
   4  -6   5   11.23    1.55
   4  -6   5   15.09    1.70
  -5   6  -5   19.72    1.69
  -5   6  -5   24.09    2.56
   5  -6   5   20.96    2.23
   5  -6   5   23.15    2.32
  -6   6  -5   11.20    1.78
  -6   6  -5   10.17    1.95
   6  -6   5   15.61    2.06
   6  -6   5   12.27    1.84
  -7   6  -5   -0.89    0.56
   7  -6   5   -0.10    0.63
   7  -6   5   -0.56    0.70
   7   5  -5    0.24    1.06
  -7  -5   5    0.91    0.86
  -7  -5   5    3.21    1.25
   6   5  -5   -0.22    0.53
  -6  -5   5    1.12    0.75
  -6  -5   5   -0.81    0.77
   5   5  -5    3.79    0.87
   5   5  -5    2.41    0.82
  -5  -5   5    3.36    1.08
  -5  -5   5    3.55    1.02
   4   5  -5    0.78    0.61
   4   5  -5    0.69    0.50
  -4  -5   5    0.90    0.31
  -4  -5   5    0.42    0.50
  -4  -5   5    0.52    0.65
   3   5  -5    6.87    1.03
  -3  -5   5    5.16    0.99
  -3  -5   5    6.03    0.96
   2   5  -5    0.14    0.40
  -2  -5   5    0.57    0.33
  -2  -5   5    0.48    0.36
  -2  -5   5    0.32    0.34
   1   5  -5    1.14    0.17
   1   5  -5    0.95    0.41
  -1  -5   5    1.13    0.43
  -1  -5   5    1.31    0.35
  -1  -5   5    0.81    0.34
   0   5  -5   28.65    1.49
   0   5  -5   27.14    1.70
   0  -5   5   29.45    1.49
   0  -5   5   28.69    1.78
   0  -5   5   28.88    1.81
  -1   5  -5   18.49    1.24
  -1   5  -5   17.05    1.10
   1  -5   5   18.47    1.29
   1  -5   5   13.44    1.18
   1  -5   5   13.59    1.08
  -2   5  -5    0.72    0.42
  -2   5  -5    1.16    0.30
   2  -5   5    0.94    0.39
   2  -5   5    0.85    0.47
   2  -5   5    1.65    0.37
  -3   5  -5    2.10    0.67
   3  -5   5    3.04    0.36
   3  -5   5    2.33    0.65
   3  -5   5    3.56    0.74
  -4   5  -5    7.01    1.22
   4  -5   5    6.33    1.11
   4  -5   5    6.32    1.14
  -5   5  -5    0.63    0.59
  -5   5  -5    0.91    0.71
   5  -5   5    0.98    0.62
   5  -5   5    0.05    0.43
  -6   5  -5   39.32    3.23
  -6   5  -5   35.63    2.67
   6  -5   5   32.02    3.12
   6  -5   5   31.76    2.64
  -7   5  -5    4.18    1.62
   7  -5   5    2.29    1.32
   7  -5   5    2.80    1.09
   7   4  -5   23.78    2.91
  -7  -4   5   24.49    2.98
  -7  -4   5   27.64    3.25
   6   4  -5   -0.45    0.79
  -6  -4   5    0.28    0.78
  -6  -4   5    0.65    0.60
   5   4  -5    0.86    0.75
   5   4  -5    1.77    0.65
  -5  -4   5   -0.02    0.64
  -5  -4   5    1.07    0.81
   4   4  -5   30.41    1.87
   4   4  -5   30.12    2.17
  -4  -4   5   29.26    2.25
  -4  -4   5   29.98    2.22
  -4  -4   5   30.31    1.36
  -4  -4   5   27.09    1.47
   3   4  -5    0.57    0.46
  -3  -4   5    0.83    0.54
  -3  -4   5    0.25    0.42
   2   4  -5   42.90    2.49
  -2  -4   5   49.18    2.64
  -2  -4   5   47.92    2.71
  -2  -4   5   44.61    2.48
   1   4  -5   96.33    4.16
   1   4  -5   90.81    3.60
  -1  -4   5   86.20    4.24
  -1  -4   5   83.43    4.15
  -1  -4   5   93.17    3.97
   0   4  -5    0.35    0.20
   0   4  -5    0.47    0.19
   0  -4   5    0.64    0.21
   0  -4   5    0.79    0.33
   0  -4   5    0.54    0.27
  -1   4  -5  299.82   11.38
  -1   4  -5  291.06   11.58
   1  -4   5  281.27   11.46
   1  -4   5  285.81   11.69
   1  -4   5  274.86   11.66
  -2   4  -5   91.91    3.76
  -2   4  -5   88.11    4.35
   2  -4   5   91.93    4.36
   2  -4   5   92.72    4.32
   2  -4   5   92.85    3.88
  -3   4  -5    2.51    0.70
   3  -4   5    4.84    0.83
   3  -4   5    3.02    0.73
  -4   4  -5    2.33    0.75
   4  -4   5    3.71    0.82
   4  -4   5    2.11    0.67
  -5   4  -5   -0.60    0.58
   5  -4   5    0.42    0.57
   5  -4   5    0.78    0.56
  -6   4  -5   15.12    2.33
   6  -4   5   16.81    2.28
   6  -4   5   17.37    2.01
  -7   4  -5   16.86    2.57
  -7   4  -5   16.71    2.32
   7  -4   5   16.67    2.16
   7  -4   5   19.20    2.62
   7   3  -5    5.53    1.38
  -7  -3   5    8.11    1.69
  -7  -3   5    4.85    1.50
   6   3  -5    1.21    0.92
  -6  -3   5    1.12    0.98
  -6  -3   5    2.10    0.98
   5   3  -5    2.74    0.90
  -5  -3   5    2.84    0.57
  -5  -3   5    2.70    0.84
  -5  -3   5    2.53    0.90
  -5  -3   5    2.90    0.59
   4   3  -5    9.88    1.32
   4   3  -5    9.69    0.95
  -4  -3   5    8.40    1.33
  -4  -3   5    8.96    0.73
  -4  -3   5    9.13    1.36
  -4  -3   5   10.50    0.81
   3   3  -5   40.71    2.41
   3   3  -5   42.76    1.87
  -3  -3   5   38.26    2.50
  -3  -3   5   45.95    2.71
  -3  -3   5   42.98    1.85
   2   3  -5   54.99    2.87
  -2  -3   5   58.89    3.12
  -2  -3   5   57.48    2.31
  -2  -3   5   57.62    2.93
   1   3  -5   80.63    3.76
   1   3  -5   84.49    3.32
   1   3  -5   89.76    3.75
   1   3  -5   85.80    3.42
  -1  -3   5   78.08    3.92
  -1  -3   5   79.22    3.87
   0   3  -5    7.73    0.61
   0   3  -5    7.25    0.58
   0   3  -5    7.87    0.82
   0   3  -5    7.99    0.63
   0  -3   5    8.14    0.86
   0  -3   5    7.41    0.83
   0  -3   5    8.33    0.86
  -1   3  -5    0.94    0.36
  -1   3  -5    3.04    0.45
  -1   3  -5    2.14    0.34
   1  -3   5    2.30    0.53
   1  -3   5    1.98    0.49
   1  -3   5    2.53    0.48
   1  -3   5    1.95    0.38
  -2   3  -5  133.42    5.19
  -2   3  -5  128.71    5.91
   2  -3   5  133.90    5.83
   2  -3   5  136.03    5.95
   2  -3   5  134.96    5.34
  -3   3  -5    6.74    1.01
   3  -3   5    6.60    1.00
   3  -3   5    7.29    0.93
  -4   3  -5   16.82    1.86
   4  -3   5   15.03    1.66
   4  -3   5   14.60    1.48
  -5   3  -5    6.04    1.33
   5  -3   5    6.74    1.12
   5  -3   5    5.83    1.14
  -6   3  -5    1.02    0.89
   6  -3   5    0.52    0.59
   6  -3   5    0.70    0.61
  -7   3  -5    2.90    1.18
  -7   3  -5    1.11    0.98
   7  -3   5    2.36    1.25
   7   2  -5   -0.25    0.63
  -7  -2   5   -1.03    0.36
  -7  -2   5    0.29    0.81
   6   2  -5    3.60    1.17
  -6  -2   5    6.79    1.39
  -6  -2   5    4.54    1.18
   5   2  -5   18.06    2.02
  -5  -2   5   20.11    1.45
  -5  -2   5   23.87    1.56
  -5  -2   5   24.47    2.03
  -5  -2   5   20.78    2.30
   4   2  -5   31.32    1.88
   4   2  -5   25.96    1.95
   4   2  -5   27.21    1.44
  -4  -2   5   27.63    1.58
  -4  -2   5   29.40    2.22
  -4  -2   5   28.04    1.63
  -4  -2   5   27.97    2.15
   3   2  -5   77.48    3.27
   3   2  -5   70.25    3.65
  -3  -2   5   79.02    3.28
  -3  -2   5   77.81    3.91
  -3  -2   5   68.91    3.84
   2   2  -5    4.97    0.71
   2   2  -5    5.20    0.41
  -2  -2   5    4.34    0.79
  -2  -2   5    5.58    0.79
  -2  -2   5    5.86    0.46
   1   2  -5   13.35    0.93
   1   2  -5   11.47    0.89
   1   2  -5   12.04    0.92
   1   2  -5   13.24    0.77
  -1  -2   5   12.82    1.04
  -1  -2   5   12.07    0.74
  -1  -2   5   10.72    1.12
   0   2  -5    4.55    0.52
   0   2  -5    6.40    0.71
   0   2  -5    7.63    0.83
   0   2  -5    6.39    0.64
   0  -2   5    6.20    0.71
   0  -2   5    5.96    0.70
   0  -2   5    5.69    0.68
  -1   2  -5  113.74    4.59
  -1   2  -5  105.50    4.76
  -1   2  -5  116.97    5.03
   1  -2   5  108.63    4.96
   1  -2   5  105.81    4.75
   1  -2   5  108.03    4.83
   1  -2   5  108.32    4.59
  -2   2  -5   35.17    1.49
  -2   2  -5   30.57    1.97
   2  -2   5   33.77    2.13
   2  -2   5   31.98    1.97
   2  -2   5   33.41    1.86
  -3   2  -5    0.50    0.37
   3  -2   5    0.45    0.32
   3  -2   5    0.92    0.54
   3  -2   5    0.50    0.38
  -4   2  -5  151.15    7.35
   4  -2   5  156.79    6.89
   4  -2   5  161.10    7.39
   4  -2   5  160.09    7.32
  -5   2  -5    0.45    0.76
   5  -2   5   -0.15    0.61
   5  -2   5    0.19    0.60
   5  -2   5    0.11    0.41
  -6   2  -5   13.15    1.99
   6  -2   5    8.18    1.64
   6  -2   5   10.07    1.40
  -7   2  -5    1.42    1.22
   7  -2   5    0.98    1.06
   7   1  -5    8.35    1.56
  -7  -1   5   11.36    1.81
  -7  -1   5    6.57    1.60
   6   1  -5    3.41    1.10
  -6  -1   5    2.05    0.66
  -6  -1   5    3.79    1.07
  -6  -1   5    2.43    0.73
  -6  -1   5    0.88    0.66
   5   1  -5    3.38    0.85
  -5  -1   5    3.94    0.97
  -5  -1   5    2.72    0.63
  -5  -1   5    3.29    0.69
  -5  -1   5    3.43    0.93
   4   1  -5   33.31    2.13
  -4  -1   5   29.57    2.24
  -4  -1   5   28.93    1.72
  -4  -1   5   29.28    1.74
  -4  -1   5   27.94    2.16
   3   1  -5    0.12    0.21
   3   1  -5   -0.24    0.20
   3   1  -5    0.04    0.11
   3   1  -5    0.20    0.12
  -3  -1   5    0.26    0.28
  -3  -1   5    0.06    0.27
  -3  -1   5    0.00    0.21
   2   1  -5   11.63    0.78
   2   1  -5   12.12    0.75
   2   1  -5   11.97    0.93
  -2  -1   5   11.48    0.79
  -2  -1   5   10.38    1.13
  -2  -1   5   10.21    1.16
   1   1  -5   17.60    1.20
   1   1  -5   15.61    1.03
   1   1  -5   17.78    1.13
   1   1  -5   17.74    1.03
   1   1  -5   17.34    1.07
  -1  -1   5   17.40    1.25
  -1  -1   5   17.75    1.02
   0   1  -5   94.49    4.13
   0   1  -5   89.74    3.99
   0   1  -5   91.61    4.05
   0   1  -5   94.18    4.08
   0   1  -5   97.19    4.19
   0  -1   5   94.65    4.10
   0  -1   5   91.44    4.16
   0  -1   5   90.19    4.00
   0  -1   5   91.32    4.12
   0  -1   5   93.52    4.05
  -1   1  -5   41.89    2.02
  -1   1  -5   45.50    2.10
  -1   1  -5   42.36    1.91
  -1   1  -5   39.65    2.17
   1  -1   5   40.72    2.18
   1  -1   5   41.91    2.08
   1  -1   5   41.00    2.34
  -2   1  -5   64.70    2.60
  -2   1  -5   57.70    3.11
  -2   1  -5   60.28    2.38
   2  -1   5   61.14    2.85
   2  -1   5   59.00    3.24
   2  -1   5   60.07    3.08
  -3   1  -5    5.22    0.97
   3  -1   5    6.26    0.76
   3  -1   5    5.70    1.02
   3  -1   5    6.14    0.91
  -4   1  -5   17.85    1.93
   4  -1   5   20.13    1.41
   4  -1   5   19.08    1.95
   4  -1   5   19.20    2.00
  -5   1  -5   14.81    1.93
   5  -1   5   17.45    2.06
   5  -1   5   14.99    1.47
   5  -1   5   14.58    1.83
  -6   1  -5    0.97    0.75
   6  -1   5    0.33    0.70
   6  -1   5   -0.50    0.67
  -7   1  -5    2.97    1.23
   7  -1   5    2.58    1.24
   7   0  -5   -1.01    0.70
  -7   0   5    1.78    1.06
   6   0  -5    0.23    0.68
  -6   0   5    0.01    0.56
  -6   0   5    0.77    0.80
  -6   0   5    0.22    0.48
  -6   0   5    0.63    0.55
   5   0  -5    1.21    0.57
  -5   0   5    1.48    0.75
  -5   0   5    1.55    0.58
  -5   0   5    1.51    0.72
  -5   0   5    1.94    0.63
   4   0  -5   15.32    1.53
  -4   0   5   16.46    1.28
  -4   0   5   19.24    1.96
  -4   0   5   17.51    1.79
  -4   0   5   16.87    1.28
   3   0  -5   16.60    1.20
  -3   0   5   15.29    1.08
  -3   0   5   12.15    1.40
  -3   0   5   11.76    1.38
   2   0  -5   55.09    2.38
   2   0  -5   60.96    2.69
   2   0  -5   54.81    2.64
  -2   0   5   54.82    2.99
  -2   0   5   53.67    2.63
  -2   0   5   58.44    2.64
   1   0  -5   44.07    2.08
   1   0  -5   37.19    1.90
   1   0  -5   44.69    2.03
   1   0  -5   42.23    2.00
  -1   0   5   39.94    1.99
  -1   0   5   38.83    2.22
  -1   0   5   40.08    2.02
   0   0  -5  175.50    7.02
   0   0  -5  167.47    6.81
   0   0  -5  166.75    6.96
   0   0  -5  173.75    7.06
   0   0  -5  168.01    6.85
   0   0   5  166.45    6.86
   0   0   5  157.00    6.96
   0   0   5  167.52    6.90
   0   0   5  160.35    6.80
   0   0   5  163.09    6.95
  -1   0  -5    0.37    0.20
  -1   0  -5   -0.16    0.12
  -1   0  -5    0.20    0.21
   1   0   5    0.01    0.15
   1   0   5    0.17    0.24
   1   0   5   -0.02    0.15
  -2   0  -5    4.69    0.37
  -2   0  -5    4.81    0.52
  -2   0  -5    5.66    0.81
   2   0   5    3.04    0.67
   2   0   5    3.93    0.70
   2   0   5    4.02    0.51
  -3   0  -5   41.07    1.79
  -3   0  -5   38.96    2.49
   3   0   5   39.38    2.45
   3   0   5   36.47    2.49
   3   0   5   42.51    2.07
  -4   0  -5    5.01    1.10
   4   0   5    4.18    0.91
   4   0   5    4.68    1.04
   4   0   5    4.68    0.68
  -5   0  -5    6.56    1.39
   5   0   5   11.83    1.64
   5   0   5   10.21    1.12
   5   0   5    9.44    1.57
  -6   0  -5   16.72    2.29
   6   0   5   16.28    2.26
   6   0   5   14.91    2.06
  -7   0  -5   -0.82    0.94
   7   0   5    0.55    0.94
   7   0   5    0.64    1.00
   7  -1  -5    2.33    1.06
  -7   1   5    2.17    0.91
  -7   1   5    1.85    1.33
  -7   1   5    0.53    0.77
   6  -1  -5    0.18    0.62
  -6   1   5   -0.46    0.48
  -6   1   5   -0.44    0.63
  -6   1   5   -0.32    0.41
   5  -1  -5    1.66    0.59
  -5   1   5    1.42    0.69
  -5   1   5    1.62    0.81
  -5   1   5    1.92    0.69
  -5   1   5    1.46    0.61
   4  -1  -5    7.46    1.00
  -4   1   5    5.94    1.08
  -4   1   5    7.73    0.98
  -4   1   5    7.84    1.24
  -4   1   5    7.84    1.00
   3  -1  -5    0.50    0.32
  -3   1   5    0.40    0.31
  -3   1   5    1.26    0.53
   2  -1  -5  110.57    4.82
   2  -1  -5  116.75    4.66
  -2   1   5  122.59    4.85
  -2   1   5  112.71    5.02
  -2   1   5  115.42    5.35
   1  -1  -5    9.04    0.66
   1  -1  -5    8.67    0.58
   1  -1  -5    8.47    0.68
  -1   1   5    6.75    0.78
  -1   1   5    8.13    0.68
   0  -1  -5    5.04    0.56
   0  -1  -5    4.20    0.54
   0  -1  -5    5.40    0.67
   0  -1  -5    4.55    0.76
   0   1   5    4.77    0.53
   0   1   5    4.06    0.62
   0   1   5    4.18    0.62
  -1  -1  -5   12.20    0.79
  -1  -1  -5   13.88    0.99
  -1  -1  -5   14.63    0.93
   1   1   5   11.39    1.22
   1   1   5   14.12    0.84
   1   1   5   13.09    1.07
   1   1   5   14.43    1.02
  -2  -1  -5   49.34    2.31
  -2  -1  -5   47.34    2.76
   2   1   5   47.50    2.66
   2   1   5   52.30    2.95
   2   1   5   53.83    2.38
   2   1   5   54.42    2.30
  -3  -1  -5    0.01    0.33
   3   1   5    0.06    0.34
   3   1   5    0.60    0.26
   3   1   5    1.08    0.28
   3   1   5    0.96    0.42
  -4  -1  -5    1.98    0.80
  -4  -1  -5    3.33    0.43
   4   1   5    2.52    0.86
   4   1   5    3.16    0.83
   4   1   5    3.34    0.52
  -5  -1  -5    0.26    0.66
   5   1   5    0.87    0.59
   5   1   5    0.31    0.54
  -6  -1  -5    0.24    0.65
   6   1   5   -0.13    0.80
   6   1   5    0.45    0.80
  -7  -1  -5    1.88    1.24
   7   1   5    0.18    1.06
   7   1   5    0.81    1.04
   7  -2  -5    0.17    0.65
   7  -2  -5    1.76    0.91
  -7   2   5   -0.28    0.69
  -7   2   5    0.92    0.78
  -7   2   5    0.41    0.89
   6  -2  -5   -0.26    0.50
   6  -2  -5    0.08    0.64
  -6   2   5    1.78    0.89
  -6   2   5    2.98    0.90
  -6   2   5    0.36    0.62
   5  -2  -5    3.47    0.80
  -5   2   5    3.08    0.74
  -5   2   5    3.92    0.97
  -5   2   5    3.75    0.87
   4  -2  -5    0.65    0.41
  -4   2   5    0.96    0.48
   3  -2  -5    1.91    0.43
  -3   2   5    3.40    0.63
   2  -2  -5    0.57    0.34
   2  -2  -5    0.87    0.24
  -2   2   5    0.26    0.25
  -2   2   5    0.96    0.25
  -2   2   5    0.36    0.19
   1  -2  -5    2.51    0.56
   1  -2  -5    3.30    0.33
   1  -2  -5    3.17    0.51
   1  -2  -5    3.38    0.39
  -1   2   5    2.74    0.47
  -1   2   5    2.78    0.53
   0  -2  -5   25.51    1.37
   0  -2  -5   26.77    1.60
   0  -2  -5   25.30    1.40
   0   2   5   27.21    1.37
   0   2   5   27.12    1.66
   0   2   5   25.06    1.59
  -1  -2  -5   55.88    2.93
  -1  -2  -5   52.16    2.50
  -1  -2  -5   48.76    2.38
  -1  -2  -5   48.74    2.18
   1   2   5   51.68    2.48
   1   2   5   47.59    2.75
   1   2   5   48.25    2.63
   1   2   5   50.65    2.50
  -2  -2  -5    0.34    0.26
   2   2   5    0.98    0.37
   2   2   5    1.06    0.50
   2   2   5    0.39    0.28
  -3  -2  -5    2.74    0.73
  -3  -2  -5    4.10    0.57
   3   2   5    5.21    0.67
   3   2   5    3.27    0.33
   3   2   5    3.71    0.82
   3   2   5    3.80    0.86
  -4  -2  -5    4.23    0.63
  -4  -2  -5    2.32    0.84
   4   2   5    4.56    0.49
   4   2   5    3.96    0.90
   4   2   5    1.43    0.82
  -5  -2  -5    1.30    0.71
   5   2   5    0.72    0.58
   5   2   5    0.30    0.55
  -6  -2  -5   22.32    2.70
   6   2   5   21.20    2.61
   6   2   5   20.21    2.61
  -7  -2  -5    5.04    1.61
   7   2   5    7.63    1.84
   7   2   5    4.98    1.51
   7  -3  -5    2.09    1.01
   7  -3  -5    3.47    1.17
  -7   3   5    1.68    0.95
  -7   3   5    2.41    1.01
   6  -3  -5    2.95    0.96
   6  -3  -5    5.28    1.23
  -6   3   5    5.55    1.20
  -6   3   5    4.53    1.07
   5  -3  -5    5.62    1.15
   5  -3  -5    4.73    0.89
  -5   3   5    5.97    1.14
  -5   3   5    4.85    1.04
   4  -3  -5    7.16    1.19
   4  -3  -5    3.63    0.68
  -4   3   5    6.06    0.99
   3  -3  -5    1.63    0.54
   3  -3  -5    1.19    0.33
  -3   3   5    1.03    0.48
  -3   3   5    2.08    0.42
  -3   3   5    1.14    0.16
   2  -3  -5   30.84    1.49
   2  -3  -5   30.22    2.06
  -2   3   5   32.44    1.97
  -2   3   5   34.04    1.70
  -2   3   5   34.55    1.50
   1  -3  -5  117.06    4.72
   1  -3  -5  116.18    5.35
   1  -3  -5  119.27    4.55
  -1   3   5  116.57    5.16
  -1   3   5  120.04    5.29
   0  -3  -5    9.16    0.71
   0  -3  -5    8.62    0.55
   0  -3  -5    8.08    0.94
   0  -3  -5    8.44    0.63
   0   3   5    9.87    1.06
   0   3   5    7.87    0.60
   0   3   5    8.14    1.03
  -1  -3  -5    3.22    0.32
  -1  -3  -5    2.82    0.45
  -1  -3  -5    2.95    0.56
   1   3   5    2.96    0.73
   1   3   5    2.77    0.58
   1   3   5    3.05    0.51
  -2  -3  -5    2.38    0.50
   2   3   5    3.14    0.71
   2   3   5    1.55    0.65
   2   3   5    1.13    0.46
  -3  -3  -5    1.40    0.43
  -3  -3  -5    1.38    0.57
   3   3   5    1.14    0.67
   3   3   5    0.95    0.55
  -4  -3  -5  125.56    6.35
  -4  -3  -5  129.90    5.67
   4   3   5  127.55    6.56
   4   3   5  126.83    6.28
  -5  -3  -5   -0.26    0.56
   5   3   5    0.19    0.54
   5   3   5   -0.42    0.63
  -6  -3  -5   11.63    2.01
   6   3   5   13.81    2.21
   6   3   5   12.57    2.09
   7  -4  -5    1.57    1.17
   7  -4  -5    1.92    1.07
  -7   4   5    1.21    0.91
  -7   4   5    1.87    1.00
   6  -4  -5    0.94    0.73
   6  -4  -5    3.86    1.00
  -6   4   5    2.59    0.83
  -6   4   5    5.87    1.26
   5  -4  -5   -0.03    0.53
   5  -4  -5    0.78    0.69
  -5   4   5    0.26    0.56
   4  -4  -5    7.09    1.24
  -4   4   5    6.48    1.05
   3  -4  -5    3.20    0.77
  -3   4   5    4.42    0.53
  -3   4   5    4.73    0.52
  -3   4   5    4.44    0.83
   2  -4  -5    9.46    1.20
   2  -4  -5    9.90    0.56
  -2   4   5    8.04    1.06
  -2   4   5    9.93    0.86
   1  -4  -5   29.99    1.98
  -1   4   5   30.50    1.94
  -1   4   5   32.31    1.92
   0  -4  -5    7.51    0.46
   0  -4  -5    6.55    0.93
   0   4   5    7.19    0.53
   0   4   5    5.25    0.85
   0   4   5    6.52    0.96
  -1  -4  -5   11.28    0.88
  -1  -4  -5   12.79    0.65
  -1  -4  -5   13.64    1.31
   1   4   5   13.17    1.38
   1   4   5   13.04    0.97
   1   4   5   11.88    1.43
  -2  -4  -5    6.66    0.87
   2   4   5    4.29    0.76
   2   4   5    5.34    1.06
   2   4   5    7.22    1.03
  -3  -4  -5    0.57    0.58
  -3  -4  -5    0.59    0.41
   3   4   5    0.22    0.48
   3   4   5   -0.07    0.33
  -4  -4  -5   20.52    2.21
  -4  -4  -5   19.48    1.50
   4   4   5   14.70    2.10
   4   4   5   16.99    1.96
  -5  -4  -5    0.94    0.61
   5   4   5    0.02    0.80
   5   4   5    1.18    0.69
  -6  -4  -5    7.16    1.69
   6   4   5    3.98    1.23
   6   4   5    4.46    1.42
   7  -5  -5    0.40    0.94
  -7   5   5    1.29    0.90
   6  -5  -5    5.59    1.35
  -6   5   5    6.99    1.41
   5  -5  -5   13.00    1.41
   5  -5  -5   12.50    1.75
  -5   5   5   12.11    1.67
   4  -5  -5    5.54    1.10
   4  -5  -5    6.83    0.83
  -4   5   5    4.52    0.92
   3  -5  -5    4.98    0.52
   3  -5  -5    3.33    0.82
  -3   5   5    5.75    0.69
  -3   5   5    4.56    0.48
  -3   5   5    4.66    0.89
   2  -5  -5   56.34    3.22
  -2   5   5   55.21    2.84
  -2   5   5   55.11    3.12
   1  -5  -5   31.33    2.11
  -1   5   5   31.16    1.99
  -1   5   5   29.06    1.98
   0  -5  -5   41.53    2.49
   0  -5  -5   42.44    1.72
   0   5   5   35.35    2.44
   0   5   5   40.59    2.44
   0   5   5   40.91    1.83
  -1  -5  -5    0.32    0.28
  -1  -5  -5   -0.15    0.35
  -1  -5  -5    0.45    0.12
  -1  -5  -5    0.44    0.13
   1   5   5    0.20    0.25
   1   5   5    0.40    0.43
   1   5   5    0.41    0.52
  -2  -5  -5   10.99    1.25
   2   5   5   11.86    1.24
   2   5   5   11.15    1.57
   2   5   5   13.44    1.47
  -3  -5  -5   23.22    1.75
  -3  -5  -5   24.28    2.02
   3   5   5   24.94    1.92
   3   5   5   27.91    2.39
  -4  -5  -5   15.31    1.92
   4   5   5   13.08    1.93
   4   5   5   12.84    1.72
  -5  -5  -5    3.65    1.10
   5   5   5    3.34    1.04
   5   5   5    3.21    1.09
  -6  -5  -5   -0.10    0.88
   6   5   5    1.22    0.91
   6   5   5    0.77    0.83
   7  -6  -5   20.26    2.62
  -7   6   5   27.68    3.00
   6  -6  -5    2.02    0.93
  -6   6   5    2.59    1.07
   5  -6  -5    2.58    0.99
  -5   6   5    0.31    0.69
   4  -6  -5  110.88    5.67
  -4   6   5  105.26    5.51
   3  -6  -5   20.48    2.07
  -3   6   5   19.62    1.38
  -3   6   5   16.63    1.85
   2  -6  -5   59.26    3.36
  -2   6   5   59.06    3.05
  -2   6   5   51.67    3.17
   1  -6  -5    2.14    0.66
  -1   6   5    2.10    0.65
  -1   6   5    1.92    0.63
   0  -6  -5    8.79    1.19
   0   6   5    9.30    1.33
   0   6   5    7.71    1.12
   0   6   5    9.14    0.56
  -1  -6  -5   23.30    1.03
  -1  -6  -5   22.03    1.35
  -1  -6  -5   23.02    1.81
  -1  -6  -5   22.75    1.02
   1   6   5   20.91    2.19
   1   6   5   25.79    1.90
   1   6   5   23.36    1.43
  -2  -6  -5   19.90    1.65
   2   6   5   19.54    1.92
   2   6   5   18.48    2.17
   2   6   5   19.67    1.50
  -3  -6  -5    0.70    0.53
   3   6   5   -0.13    0.46
   3   6   5   -0.19    0.42
  -4  -6  -5   17.92    2.18
   4   6   5   18.94    2.45
   4   6   5   14.84    1.87
  -5  -6  -5   13.06    1.98
   5   6   5    8.20    1.63
   5   6   5   13.31    2.26
  -6  -6  -5   21.19    2.75
   6   6   5   17.37    2.52
   6   6   5   17.07    2.64
   7  -7  -5   -0.55    0.76
  -7   7   5    0.79    0.98
   6  -7  -5    0.07    0.63
  -6   7   5    0.39    0.87
   5  -7  -5   42.13    3.13
  -5   7   5   42.61    3.15
   4  -7  -5    0.65    0.66
  -4   7   5    0.64    0.52
   3  -7  -5   17.88    2.03
  -3   7   5   13.56    1.77
  -3   7   5   19.66    1.48
   2  -7  -5   19.49    2.04
  -2   7   5   20.88    2.06
  -2   7   5   22.92    1.74
   1  -7  -5   10.09    1.35
  -1   7   5    8.89    1.31
  -1   7   5    8.48    1.21
   0  -7  -5   23.05    1.86
   0   7   5   22.47    0.98
   0   7   5   23.47    1.96
   0   7   5   18.82    1.92
  -1  -7  -5   34.57    2.36
   1   7   5   32.52    2.56
   1   7   5   32.98    2.35
   1   7   5   32.25    1.82
  -2  -7  -5   14.89    1.69
   2   7   5   15.59    2.00
   2   7   5   12.88    1.63
   2   7   5   13.87    1.40
  -3  -7  -5    5.31    1.07
   3   7   5    6.87    1.13
   3   7   5    8.12    1.66
  -4  -7  -5    4.63    1.24
   4   7   5    3.53    1.20
   4   7   5    5.93    1.23
  -5  -7  -5   11.14    1.89
   5   7   5   12.40    2.20
   5   7   5    9.91    1.69
   6  -8  -5    3.10    1.16
  -6   8   5    2.51    1.24
   5  -8  -5   32.24    3.15
  -5   8   5   31.39    3.07
   4  -8  -5   -0.20    0.46
  -4   8   5    0.12    0.48
   3  -8  -5    3.86    1.01
  -3   8   5    3.94    1.03
  -3   8   5    5.49    0.91
   2  -8  -5    0.33    0.49
  -2   8   5   -0.38    0.36
  -2   8   5    0.18    0.39
   1  -8  -5    0.33    0.47
  -1   8   5    0.85    0.58
  -1   8   5   -0.02    0.37
   0  -8  -5    3.53    0.62
   0  -8  -5    4.42    0.97
   0   8   5    3.48    0.83
   0   8   5    3.60    0.94
  -1  -8  -5   11.18    1.58
   1   8   5   11.65    1.70
   1   8   5    9.27    0.94
   1   8   5   10.01    1.45
  -2  -8  -5    1.72    0.79
   2   8   5    1.59    0.65
   2   8   5    2.63    0.94
   2   8   5   -0.13    0.38
  -3  -8  -5    2.14    0.87
   3   8   5    2.99    0.83
   3   8   5    0.79    0.85
  -4  -8  -5    1.42    0.95
   4   8   5    2.51    0.90
   4   8   5    4.58    1.50
  -5  -8  -5    1.11    0.86
   5   8   5    0.70    0.98
   5   8   5    1.23    1.00
   6  -9  -5    0.31    0.98
  -6   9   5    0.46    0.74
   5  -9  -5    2.62    1.04
  -5   9   5    3.32    1.17
   4  -9  -5   -1.34    0.57
  -4   9   5   -0.39    0.45
   3  -9  -5    4.59    1.16
  -3   9   5    2.22    0.73
  -3   9   5    2.73    0.99
   2  -9  -5    0.74    0.71
  -2   9   5    0.17    0.66
  -2   9   5    0.74    0.57
   1  -9  -5    7.60    1.33
  -1   9   5   10.29    1.53
  -1   9   5    9.29    1.45
   0  -9  -5    2.21    0.63
   0  -9  -5    1.62    0.74
   0   9   5    1.31    0.76
   0   9   5    0.97    0.53
  -1  -9  -5    1.98    0.80
   1   9   5    3.13    0.92
   1   9   5    2.93    1.07
  -2  -9  -5    5.33    1.25
   2   9   5    4.09    1.20
   2   9   5    4.53    1.04
  -3  -9  -5    2.78    1.01
   3   9   5    2.52    1.21
  -4  -9  -5    1.45    0.95
   4   9   5   -0.24    0.63
   5 -10  -5    0.19    0.64
  -5  10   5    0.53    0.76
   4 -10  -5    0.79    0.66
  -4  10   5    0.34    0.84
   3 -10  -5    5.24    1.36
  -3  10   5    6.08    1.17
  -3  10   5    3.11    1.15
   2 -10  -5   22.04    2.47
  -2  10   5   19.54    2.19
  -2  10   5   21.34    2.36
   1 -10  -5    5.92    1.29
   1 -10  -5    7.25    1.10
  -1  10   5    5.39    1.21
  -1  10   5    6.55    1.29
   0 -10  -5   -0.41    0.62
   0  10   5    0.08    0.52
   0  10   5    0.34    0.62
  -1 -10  -5   -0.36    0.57
   1  10   5    0.38    0.83
   1  10   5    0.83    0.73
  -2 -10  -5    0.29    0.68
   2  10   5    1.42    0.81
   2  10   5    1.37    1.06
  -3 -10  -5    0.62    0.83
   3  10   5    0.26    0.75
  -4 -10  -5   -0.23    0.88
  -4 -10  -5    1.33    1.02
   4  10   5    2.14    1.37
   5 -11  -5   -0.47    0.80
  -5  11   5    0.35    0.73
   4 -11  -5   23.57    2.80
  -4  11   5   21.44    2.73
   3 -11  -5    2.45    1.12
  -3  11   5    8.10    1.63
  -3  11   5    4.03    1.07
   2 -11  -5    3.36    1.22
  -2  11   5    2.19    0.98
  -2  11   5    1.57    0.96
   1 -11  -5   10.81    1.76
  -1  11   5   12.41    1.82
  -1  11   5   10.43    1.79
   0 -11  -5   12.02    1.89
   0  11   5   11.66    1.78
   0  11   5    7.40    1.55
  -1 -11  -5    0.05    0.73
   1  11   5    0.71    0.92
   1  11   5    1.78    0.86
  -2 -11  -5   11.12    1.92
   2  11   5    9.73    1.69
   2  11   5   10.04    2.07
  -3 -11  -5    3.79    1.29
   3  11   5    2.86    1.24
   4 -12  -5    0.52    0.79
  -4  12   5   -0.32    0.87
   3 -12  -5    7.74    1.79
  -3  12   5   10.77    1.83
   2 -12  -5    1.92    1.05
  -2  12   5    0.87    0.94
  -2  12   5    0.12    0.77
   1 -12  -5   13.94    2.14
  -1  12   5    8.33    1.62
  -1  12   5    9.71    1.65
   0 -12  -5   -0.73    0.69
   0  12   5    0.05    0.67
   0  12   5    0.67    0.94
  -1 -12  -5    0.56    0.69
   1  12   5    1.49    0.91
   1  12   5    2.25    1.01
  -2 -12  -5    0.58    0.98
   2  12   5    1.70    1.01
   2  12   5    0.61    0.81
   3 -13  -5    0.28    1.33
   3 -13  -5    1.26    1.20
  -3  13   5    1.43    0.93
   2 -13  -5    7.41    1.72
  -2  13   5   10.72    1.93
  -2  13   5   11.09    1.97
   1 -13  -5   66.87    4.76
  -1  13   5   72.08    4.59
  -1  13   5   69.12    4.72
   0 -13  -5   -0.08    0.64
   0  13   5   -0.67    0.78
   0  13   5    0.69    0.77
  -1 -13  -5   -0.30    0.81
   1  13   5    0.29    1.11
   1  13   5    0.96    0.84
   1  15  -6    3.10    1.10
  -1 -15   6    3.66    1.14
  -1 -15   6    3.94    1.53
   0  15  -6    0.49    0.70
   0 -15   6    1.96    0.92
   0 -15   6    0.95    0.84
  -1  15  -6    1.06    0.60
   1 -15   6    0.77    0.77
   1 -15   6    2.07    1.05
  -2  15  -6   -0.19    0.65
   2 -15   6    0.73    0.72
   2 -15   6    2.23    1.16
   2  14  -6    2.39    0.99
  -2 -14   6    1.48    1.04
   1  14  -6    2.67    1.07
  -1 -14   6    4.45    1.36
  -1 -14   6    5.79    1.32
   0  14  -6    1.40    0.80
   0 -14   6   -0.18    0.58
   0 -14   6    1.62    1.07
  -1  14  -6    1.01    0.72
   1 -14   6   -0.55    0.75
   1 -14   6    0.04    0.62
  -2  14  -6   -0.45    0.62
  -2  14  -6    0.84    0.79
   2 -14   6    1.49    0.77
   2 -14   6    0.10    0.76
   2 -14   6    1.50    0.76
  -3  14  -6    0.45    0.97
  -3  14  -6    1.78    0.78
   3 -14   6    1.10    0.88
   3 -14   6    2.52    1.19
  -4  14  -6    0.50    0.76
  -4  14  -6   -0.11    0.97
  -4  14  -6    0.36    0.82
   4 -14   6    1.93    1.19
   3  13  -6    5.20    1.40
  -3 -13   6    6.89    1.69
   2  13  -6    3.03    1.05
  -2 -13   6    0.42    0.72
  -2 -13   6    1.30    0.86
   1  13  -6   -0.01    0.49
  -1 -13   6    0.55    0.76
  -1 -13   6    2.08    0.86
   0  13  -6   11.19    1.62
   0 -13   6   10.26    1.83
   0 -13   6   13.35    1.91
  -1  13  -6    6.33    1.23
  -1  13  -6    6.27    1.28
   1 -13   6    6.53    1.48
   1 -13   6    8.40    1.64
  -2  13  -6    1.21    0.74
  -2  13  -6    1.75    0.79
   2 -13   6    1.59    0.83
   2 -13   6    0.19    0.72
   2 -13   6    2.03    0.87
  -3  13  -6    0.10    0.68
  -3  13  -6    1.77    1.08
   3 -13   6    1.73    0.97
   3 -13   6    0.34    0.89
   3 -13   6    2.51    0.92
  -4  13  -6    8.91    1.85
   4 -13   6    6.07    1.59
   4  12  -6    9.16    1.99
   4  12  -6    9.33    1.88
  -4 -12   6   10.88    2.12
   3  12  -6    7.21    1.49
  -3 -12   6    6.51    1.38
  -3 -12   6    5.93    1.61
   2  12  -6   15.85    1.99
  -2 -12   6   13.02    2.05
  -2 -12   6   16.20    1.99
   1  12  -6    8.29    1.45
  -1 -12   6   10.43    1.61
  -1 -12   6    6.93    1.51
   0  12  -6   19.91    2.10
   0 -12   6   22.16    2.38
   0 -12   6   16.49    2.18
  -1  12  -6   11.64    1.41
  -1  12  -6    9.93    1.46
   1 -12   6   11.42    1.71
   1 -12   6    6.37    1.37
  -2  12  -6    1.59    0.73
  -2  12  -6    1.41    0.67
   2 -12   6    1.06    0.69
   2 -12   6    0.46    0.66
   2 -12   6    0.72    0.64
  -3  12  -6    5.23    1.33
   3 -12   6    3.15    1.19
   3 -12   6    1.52    0.81
   3 -12   6    3.23    1.03
  -4  12  -6    0.48    0.72
   4 -12   6    2.23    0.90
   4 -12   6    0.05    0.55
  -5  12  -6   12.59    2.11
   5 -12   6   13.48    1.97
   5 -12   6    8.83    1.94
   5  11  -6    3.11    1.25
  -5 -11   6    5.95    1.73
  -5 -11   6    6.58    1.65
   4  11  -6   11.64    2.00
   4  11  -6    7.34    1.55
  -4 -11   6    9.87    2.08
  -4 -11   6   13.73    1.96
   3  11  -6    1.14    0.84
  -3 -11   6    0.88    0.66
  -3 -11   6   -0.07    0.78
  -3 -11   6   -0.12    0.63
   2  11  -6    4.71    1.05
  -2 -11   6    5.01    1.31
  -2 -11   6    5.05    1.12
   1  11  -6   38.35    2.67
  -1 -11   6   42.08    2.83
  -1 -11   6   37.11    2.92
   0  11  -6   45.36    2.77
   0  11  -6   38.38    2.29
   0 -11   6   38.26    2.91
   0 -11   6   42.85    2.88
  -1  11  -6   25.29    2.25
  -1  11  -6   23.25    1.80
   1 -11   6   22.70    2.37
   1 -11   6   22.15    2.30
  -2  11  -6   -0.65    0.45
  -2  11  -6    0.11    0.37
   2 -11   6   -0.26    0.45
   2 -11   6    0.65    0.53
   2 -11   6   -0.45    0.55
  -3  11  -6   10.52    1.58
   3 -11   6    9.56    1.32
   3 -11   6    6.75    1.20
   3 -11   6   10.56    1.55
   3 -11   6    8.62    1.64
  -4  11  -6   -0.42    0.73
   4 -11   6    0.59    0.61
   4 -11   6    0.82    0.65
  -5  11  -6    0.41    0.99
   5 -11   6    0.33    0.65
   5 -11   6   -0.01    0.86
   5  10  -6    4.58    1.43
  -5 -10   6    3.31    1.32
  -5 -10   6    3.81    1.47
   4  10  -6   10.98    1.93
   4  10  -6   12.32    1.92
  -4 -10   6   12.60    1.83
  -4 -10   6   14.00    2.20
   3  10  -6    1.54    0.75
  -3 -10   6    2.48    0.87
  -3 -10   6    1.63    0.74
  -3 -10   6    1.61    0.81
   2  10  -6   16.47    1.86
  -2 -10   6   17.25    1.90
  -2 -10   6   16.88    2.14
  -2 -10   6   17.69    1.48
   1  10  -6    2.48    0.77
  -1 -10   6    2.38    0.77
  -1 -10   6    4.54    0.69
  -1 -10   6    3.72    1.08
   0  10  -6    1.46    0.49
   0  10  -6    0.56    0.56
   0 -10   6    1.03    0.57
   0 -10   6    1.81    0.69
  -1  10  -6    7.25    1.13
  -1  10  -6    5.96    0.96
   1 -10   6    5.41    1.08
   1 -10   6    6.89    1.16
  -2  10  -6    3.88    0.96
   2 -10   6    5.25    1.01
   2 -10   6    4.08    1.09
   2 -10   6    5.86    1.02
  -3  10  -6    0.99    0.75
   3 -10   6    0.74    0.49
   3 -10   6    1.92    0.69
   3 -10   6    1.32    0.72
   3 -10   6    0.58    0.52
  -4  10  -6    1.02    0.67
   4 -10   6    0.41    0.74
   4 -10   6    1.23    0.76
  -5  10  -6    1.77    1.17
   5 -10   6    4.24    1.08
   5 -10   6    3.66    1.15
  -6  10  -6   10.27    2.13
   6 -10   6   12.44    2.15
   6 -10   6   14.86    2.25
   5   9  -6    6.91    1.68
  -5  -9   6    9.13    1.93
  -5  -9   6   11.52    1.90
   4   9  -6    5.34    1.27
   4   9  -6    3.64    1.07
  -4  -9   6    6.98    1.56
  -4  -9   6    6.48    1.24
   3   9  -6    3.94    1.08
  -3  -9   6    4.38    1.15
  -3  -9   6    4.07    1.02
  -3  -9   6    3.87    0.97
   2   9  -6    7.77    1.24
  -2  -9   6    3.93    1.15
  -2  -9   6    7.69    1.22
  -2  -9   6    6.67    0.98
   1   9  -6    2.80    0.40
   1   9  -6    2.18    0.78
  -1  -9   6    2.42    0.83
  -1  -9   6    2.89    0.80
  -1  -9   6    2.81    0.55
   0   9  -6    4.46    0.90
   0  -9   6    4.72    1.00
   0  -9   6    3.78    0.94
  -1   9  -6    1.38    0.63
  -1   9  -6    2.81    0.67
   1  -9   6    2.64    0.75
   1  -9   6    1.64    0.67
  -2   9  -6   11.53    1.45
   2  -9   6   11.06    1.27
   2  -9   6   10.74    1.47
   2  -9   6   11.22    1.39
   2  -9   6   13.27    1.45
  -3   9  -6   -0.24    0.56
   3  -9   6    1.60    0.77
   3  -9   6    1.14    0.52
   3  -9   6    0.05    0.56
   3  -9   6    1.24    0.50
  -4   9  -6    0.85    0.70
   4  -9   6    0.22    0.46
   4  -9   6   -0.65    0.58
  -5   9  -6   -0.17    0.56
   5  -9   6    0.07    0.72
   5  -9   6   -0.82    0.58
  -6   9  -6    1.61    1.20
   6  -9   6    0.40    0.93
   6  -9   6    1.60    0.92
   6   8  -6    2.86    1.22
  -6  -8   6    3.08    1.39
  -6  -8   6    1.72    1.18
   5   8  -6    5.31    1.93
   5   8  -6    5.59    1.34
  -5  -8   6    8.49    1.85
  -5  -8   6    8.94    1.61
   4   8  -6    6.46    1.28
  -4  -8   6    6.93    1.30
  -4  -8   6    6.43    1.47
   3   8  -6   13.16    1.68
  -3  -8   6   15.11    1.67
  -3  -8   6   13.97    1.92
   2   8  -6   21.42    2.06
  -2  -8   6   23.82    1.86
  -2  -8   6   24.84    1.70
  -2  -8   6   25.16    2.13
   1   8  -6    0.23    0.17
   1   8  -6   -0.10    0.43
  -1  -8   6    0.29    0.52
  -1  -8   6    0.37    0.29
  -1  -8   6    0.32    0.20
  -1  -8   6    0.21    0.42
   0   8  -6    8.64    1.11
   0   8  -6   10.64    0.88
   0  -8   6    9.49    1.27
   0  -8   6   10.19    1.36
  -1   8  -6   10.63    1.16
   1  -8   6   12.09    1.37
   1  -8   6   12.84    1.54
  -2   8  -6    6.85    1.10
   2  -8   6    7.10    1.13
   2  -8   6    5.26    0.85
   2  -8   6    5.36    0.99
  -3   8  -6    0.39    0.50
   3  -8   6   -0.04    0.37
   3  -8   6    0.78    0.50
   3  -8   6    0.26    0.36
  -4   8  -6    6.63    1.40
   4  -8   6    5.49    1.15
   4  -8   6    5.25    1.13
  -5   8  -6    0.83    0.95
   5  -8   6    2.57    0.89
   5  -8   6    2.33    0.96
  -6   8  -6    3.84    1.46
   6  -8   6    4.02    1.29
   6  -8   6    5.50    1.37
   6   7  -6    2.62    1.06
  -6  -7   6   -0.27    0.78
  -6  -7   6   -1.28    0.75
   5   7  -6    3.85    1.09
  -5  -7   6    3.62    1.12
  -5  -7   6    3.61    1.08
   4   7  -6    4.73    1.20
  -4  -7   6    2.91    0.95
  -4  -7   6    4.06    0.98
   3   7  -6    3.10    0.88
  -3  -7   6    1.01    0.58
  -3  -7   6    3.28    1.02
   2   7  -6    9.54    1.25
  -2  -7   6    7.77    1.23
  -2  -7   6    9.77    1.14
  -2  -7   6   11.67    1.40
   1   7  -6   20.62    1.02
   1   7  -6   18.98    1.53
  -1  -7   6   20.94    1.30
  -1  -7   6   17.06    1.51
  -1  -7   6   22.67    1.02
  -1  -7   6   16.39    1.77
   0   7  -6   15.22    1.52
   0   7  -6   19.53    1.19
   0  -7   6   18.88    1.18
   0  -7   6   18.96    1.55
   0  -7   6   16.99    1.47
  -1   7  -6   13.72    1.30
   1  -7   6   13.18    1.38
   1  -7   6   14.48    1.40
   1  -7   6   11.23    1.37
  -2   7  -6    0.42    0.40
   2  -7   6    0.41    0.39
   2  -7   6    0.05    0.45
   2  -7   6   -0.17    0.27
  -3   7  -6    1.76    0.67
   3  -7   6    1.36    0.42
   3  -7   6    1.97    0.74
   3  -7   6    1.41    0.65
  -4   7  -6   18.06    2.06
   4  -7   6   15.52    1.81
   4  -7   6   13.32    1.76
  -5   7  -6    1.27    0.96
   5  -7   6    0.93    0.79
   5  -7   6    1.79    0.71
  -6   7  -6   10.78    2.07
   6  -7   6   10.30    1.79
   6  -7   6    5.38    1.39
   7  -7   6    7.11    1.61
   6   6  -6   10.57    1.93
  -6  -6   6   13.30    2.09
  -6  -6   6   13.07    2.11
   5   6  -6    2.39    1.04
  -5  -6   6    1.85    0.97
  -5  -6   6    3.00    1.07
   4   6  -6    2.11    0.75
  -4  -6   6    1.49    0.85
  -4  -6   6    1.37    0.65
   3   6  -6    1.87    0.75
  -3  -6   6    3.24    0.86
  -3  -6   6    2.43    0.73
   2   6  -6    1.25    0.58
  -2  -6   6    1.19    0.54
  -2  -6   6    1.15    0.48
  -2  -6   6    1.51    0.52
   1   6  -6    5.69    0.86
   1   6  -6    7.44    0.47
  -1  -6   6    6.84    0.78
  -1  -6   6    7.73    1.08
  -1  -6   6    5.96    0.93
   0   6  -6   63.76    2.85
   0   6  -6   56.94    3.13
   0  -6   6   57.00    3.23
   0  -6   6   62.41    3.26
   0  -6   6   66.26    2.86
  -1   6  -6    3.83    0.68
   1  -6   6    4.29    0.71
   1  -6   6    4.27    0.81
   1  -6   6    4.17    0.76
  -2   6  -6    8.70    0.85
  -2   6  -6    9.18    0.47
  -2   6  -6   10.01    1.19
   2  -6   6    7.41    1.12
   2  -6   6    8.44    0.89
   2  -6   6    7.43    1.08
  -3   6  -6    1.34    0.49
  -3   6  -6    0.79    0.64
   3  -6   6    1.45    0.58
   3  -6   6    0.98    0.55
   3  -6   6    1.63    0.36
  -4   6  -6    1.05    0.53
  -4   6  -6    0.31    0.52
   4  -6   6    0.33    0.58
   4  -6   6    0.53    0.47
  -5   6  -6    0.23    0.62
  -5   6  -6   -0.30    0.54
   5  -6   6    0.09    0.50
   5  -6   6    0.68    0.68
  -6   6  -6    4.19    1.41
   6  -6   6    3.42    1.11
   6  -6   6    3.66    1.20
  -7   6  -6    8.00    1.89
   7  -6   6    9.04    1.76
   7  -6   6    8.71    1.79
   7   5  -6    4.94    1.57
  -7  -5   6    4.14    1.37
  -7  -5   6    5.81    1.73
   6   5  -6   37.16    2.97
  -6  -5   6   35.28    3.02
  -6  -5   6   34.55    3.45
   5   5  -6    6.46    1.33
  -5  -5   6    5.29    1.22
  -5  -5   6    8.59    1.64
   4   5  -6   24.37    1.77
   4   5  -6   27.75    2.12
  -4  -5   6   24.63    2.04
  -4  -5   6   26.26    2.59
   3   5  -6    0.58    0.55
  -3  -5   6    0.01    0.38
  -3  -5   6    0.37    0.49
   2   5  -6    1.80    0.52
  -2  -5   6    3.22    0.65
  -2  -5   6    2.91    0.72
  -2  -5   6    1.79    0.61
   1   5  -6    1.72    0.24
   1   5  -6    1.32    0.46
  -1  -5   6    1.32    0.50
  -1  -5   6    2.46    0.65
   0   5  -6   10.96    0.84
   0   5  -6   11.12    1.12
   0  -5   6   12.64    0.85
   0  -5   6   12.14    1.25
   0  -5   6   13.70    1.15
  -1   5  -6    0.17    0.12
  -1   5  -6    0.02    0.30
  -1   5  -6   -0.22    0.25
   1  -5   6    0.10    0.28
   1  -5   6    0.17    0.36
   1  -5   6    0.14    0.35
  -2   5  -6    8.53    0.66
  -2   5  -6    9.68    1.17
   2  -5   6    7.32    0.79
   2  -5   6    8.57    1.10
   2  -5   6    8.88    1.11
  -3   5  -6    1.31    0.57
   3  -5   6    0.75    0.56
   3  -5   6    1.28    0.59
   3  -5   6    1.45    0.24
  -4   5  -6   11.59    1.69
   4  -5   6   11.48    1.50
   4  -5   6    8.70    1.28
  -5   5  -6    2.48    1.03
   5  -5   6    0.70    0.57
   5  -5   6    1.28    0.67
  -6   5  -6   19.19    2.63
  -6   5  -6   24.59    2.50
   6  -5   6   21.60    2.32
   6  -5   6   19.34    2.44
  -7   5  -6    4.76    1.63
   7  -5   6    6.31    1.42
   7  -5   6    6.27    1.64
   7   4  -6    0.16    0.74
  -7  -4   6    0.18    0.93
  -7  -4   6   -0.49    0.95
   6   4  -6    9.65    1.71
  -6  -4   6   11.03    1.88
  -6  -4   6   11.45    1.95
   5   4  -6    7.04    1.35
  -5  -4   6    6.12    1.34
  -5  -4   6    8.33    1.44
   4   4  -6   16.02    1.77
   4   4  -6   14.23    1.20
  -4  -4   6   14.47    1.83
  -4  -4   6   14.02    1.71
   3   4  -6    1.65    0.54
  -3  -4   6    0.78    0.55
  -3  -4   6    0.78    0.57
   2   4  -6    9.23    1.06
  -2  -4   6    9.69    1.24
  -2  -4   6    8.51    1.02
  -2  -4   6    8.64    1.10
   1   4  -6    2.03    0.29
   1   4  -6    1.86    0.49
   1   4  -6    1.73    0.21
  -1  -4   6    1.61    0.48
  -1  -4   6    1.25    0.45
   0   4  -6   13.16    0.89
   0   4  -6   12.02    0.81
   0   4  -6   13.20    0.88
   0  -4   6   11.39    1.16
   0  -4   6   10.43    1.14
  -1   4  -6  217.80    8.90
  -1   4  -6  217.00    8.67
  -1   4  -6  219.82    8.81
   1  -4   6  214.02    8.81
   1  -4   6  211.11    9.03
   1  -4   6  205.79    9.00
  -2   4  -6   55.84    3.00
  -2   4  -6   55.84    2.37
   2  -4   6   54.77    2.51
   2  -4   6   50.79    2.89
   2  -4   6   57.03    3.05
  -3   4  -6    6.02    1.03
   3  -4   6    7.54    1.03
   3  -4   6    6.76    1.03
  -4   4  -6    0.08    0.58
   4  -4   6   -0.11    0.46
   4  -4   6    0.72    0.51
  -5   4  -6    3.88    1.14
   5  -4   6    2.40    0.99
   5  -4   6    2.40    0.78
  -6   4  -6    5.13    1.55
   6  -4   6    8.37    1.58
   6  -4   6    4.63    1.08
  -7   4  -6    3.07    1.97
  -7   4  -6    3.27    1.44
   7  -4   6    1.42    1.15
   7   3  -6    3.51    1.20
  -7  -3   6    5.42    1.44
  -7  -3   6    3.09    1.42
   6   3  -6   -0.19    0.69
  -6  -3   6    1.74    0.92
  -6  -3   6    0.55    0.61
   5   3  -6    0.08    0.46
  -5  -3   6   -0.22    0.60
  -5  -3   6    0.21    0.62
   4   3  -6   68.41    3.84
   4   3  -6   68.37    3.22
  -4  -3   6   69.06    4.04
  -4  -3   6   72.43    3.08
  -4  -3   6   71.23    4.00
   3   3  -6   59.80    3.38
   3   3  -6   68.49    2.73
  -3  -3   6   67.13    2.78
  -3  -3   6   65.27    3.70
  -3  -3   6   65.17    3.54
   2   3  -6    0.34    0.30
   2   3  -6    0.19    0.07
  -2  -3   6    0.29    0.34
  -2  -3   6   -0.31    0.23
  -2  -3   6    0.06    0.13
   1   3  -6  163.47    6.42
   1   3  -6  163.47    6.51
   1   3  -6  175.50    7.13
   1   3  -6  156.67    6.82
  -1  -3   6  153.58    6.99
  -1  -3   6  158.62    7.06
   0   3  -6   26.23    1.48
   0   3  -6   27.29    1.48
   0  -3   6   26.94    1.70
   0  -3   6   29.53    1.72
   0  -3   6   26.95    1.69
  -1   3  -6  110.56    4.63
  -1   3  -6  101.76    4.73
   1  -3   6  108.11    4.84
   1  -3   6  109.22    4.65
   1  -3   6  103.81    4.86
  -2   3  -6   37.38    1.54
  -2   3  -6   36.34    2.22
   2  -3   6   36.48    1.73
   2  -3   6   33.63    2.07
   2  -3   6   38.37    2.28
  -3   3  -6    5.74    1.02
   3  -3   6    5.21    0.95
   3  -3   6    6.70    0.92
  -4   3  -6   29.63    2.29
   4  -3   6   27.63    2.17
   4  -3   6   28.62    1.97
  -5   3  -6   10.83    1.71
   5  -3   6    8.46    1.24
   5  -3   6   10.00    1.56
  -6   3  -6    9.15    1.85
   6  -3   6   12.49    2.01
   6  -3   6   11.07    1.51
  -7   3  -6    5.36    1.57
   7  -3   6    5.06    1.48
   7   2  -6   16.32    2.31
  -7  -2   6   12.49    2.22
  -7  -2   6   20.31    2.59
   6   2  -6    1.24    0.85
  -6  -2   6    2.14    0.96
  -6  -2   6    2.29    0.94
   5   2  -6    4.61    1.08
  -5  -2   6    2.93    0.62
  -5  -2   6    4.15    1.04
  -5  -2   6    4.11    1.12
   4   2  -6   26.86    1.36
   4   2  -6   30.95    2.15
  -4  -2   6   28.77    2.26
  -4  -2   6   29.67    1.62
  -4  -2   6   27.75    2.21
   3   2  -6   36.09    1.73
   3   2  -6   33.03    2.11
  -3  -2   6   34.91    2.36
  -3  -2   6   32.37    2.26
  -3  -2   6   36.97    1.78
   2   2  -6  135.30    6.03
   2   2  -6  138.76    5.63
   2   2  -6  139.57    5.86
  -2  -2   6  141.12    6.38
  -2  -2   6  143.71    5.71
   1   2  -6  183.48    7.64
   1   2  -6  190.22    7.48
   1   2  -6  194.97    7.74
  -1  -2   6  179.91    7.86
  -1  -2   6  175.24    7.89
  -1  -2   6  184.15    7.46
   0   2  -6   70.29    3.18
   0   2  -6   69.83    3.12
   0  -2   6   69.33    3.32
   0  -2   6   65.29    3.23
   0  -2   6   68.68    3.31
  -1   2  -6   33.37    2.03
  -1   2  -6   39.56    1.96
   1  -2   6   36.26    1.93
   1  -2   6   39.50    2.08
   1  -2   6   38.97    2.28
   1  -2   6   38.62    2.16
  -2   2  -6   39.27    1.56
  -2   2  -6   38.38    1.56
  -2   2  -6   37.15    2.29
  -2   2  -6   39.33    1.78
   2  -2   6   40.03    2.29
   2  -2   6   39.77    2.46
   2  -2   6   33.70    2.05
  -3   2  -6    3.38    0.83
   3  -2   6    4.43    0.73
   3  -2   6    4.63    1.01
   3  -2   6    3.02    0.75
  -4   2  -6    4.92    1.11
   4  -2   6    7.27    1.23
   4  -2   6    5.53    1.10
   4  -2   6    6.17    0.92
  -5   2  -6    1.67    0.76
   5  -2   6    1.53    0.84
   5  -2   6    3.74    1.13
   5  -2   6    1.13    0.56
  -6   2  -6    0.57    0.76
   6  -2   6    0.52    0.65
   6  -2   6    1.94    1.01
  -7   2  -6    1.12    1.17
   7  -2   6   -0.45    0.56
   7   1  -6    8.83    1.75
  -7  -1   6   13.53    2.08
  -7  -1   6    7.77    1.73
   6   1  -6    3.62    1.08
  -6  -1   6    3.54    1.15
  -6  -1   6    2.32    0.94
   5   1  -6   -0.11    0.52
  -5  -1   6   -0.18    0.57
  -5  -1   6   -0.35    0.28
  -5  -1   6   -0.23    0.50
   4   1  -6    9.23    1.19
  -4  -1   6   12.37    1.58
  -4  -1   6   11.46    1.09
  -4  -1   6    8.39    1.37
   3   1  -6    0.11    0.26
   3   1  -6    0.17    0.14
   3   1  -6   -0.06    0.24
  -3  -1   6    0.77    0.32
  -3  -1   6    0.39    0.48
  -3  -1   6    0.06    0.44
   2   1  -6  151.57    6.33
   2   1  -6  162.88    6.47
   2   1  -6  149.15    6.53
   2   1  -6  153.17    6.36
  -2  -1   6  160.29    6.42
  -2  -1   6  152.74    6.95
   1   1  -6  263.10   10.13
   1   1  -6  253.14   10.02
   1   1  -6  232.90    9.98
  -1  -1   6  247.10   10.00
  -1  -1   6  250.67   10.41
   0  -1   6   13.84    1.04
   0  -1   6   14.19    1.07
   0  -1   6   15.41    1.17
   0  -1   6   16.24    1.17
   0  -1   6   14.33    1.04
  -1   1  -6   26.34    1.65
  -1   1  -6   25.22    1.51
  -1   1  -6   28.38    1.43
   1  -1   6   27.61    1.57
   1  -1   6   27.42    1.68
   1  -1   6   26.08    1.79
  -2   1  -6    0.05    0.36
  -2   1  -6    0.21    0.20
  -2   1  -6    0.14    0.11
   2  -1   6    0.15    0.25
   2  -1   6    0.60    0.42
   2  -1   6    0.47    0.32
  -3   1  -6   23.62    1.92
   3  -1   6   25.21    2.00
   3  -1   6   27.36    1.95
   3  -1   6   25.79    1.59
  -4   1  -6   15.87    1.83
   4  -1   6   15.85    1.75
   4  -1   6   15.42    1.86
   4  -1   6   14.49    1.19
  -5   1  -6    7.30    1.39
   5  -1   6    6.54    0.95
   5  -1   6    4.78    1.12
   5  -1   6    5.61    1.30
  -6   1  -6   -0.85    0.44
   6  -1   6    0.06    0.74
   6  -1   6    0.12    0.78
  -7   1  -6    1.00    1.08
   7  -1   6    0.30    0.70
   7   0  -6    3.24    1.15
  -7   0   6    0.99    0.86
   6   0  -6    5.05    1.17
  -6   0   6    6.34    1.05
  -6   0   6    3.62    1.04
  -6   0   6    2.63    1.00
  -6   0   6    6.03    1.04
   5   0  -6    3.69    0.89
  -5   0   6    4.80    1.08
  -5   0   6    4.32    0.82
  -5   0   6    3.41    0.97
   4   0  -6    2.93    0.69
  -4   0   6    1.35    0.57
  -4   0   6    1.88    0.78
  -4   0   6    2.15    0.54
   3   0  -6    6.69    0.87
  -3   0   6    9.54    1.27
  -3   0   6    7.05    0.86
   2   0  -6    0.30    0.26
   2   0  -6    0.09    0.24
   2   0  -6    0.06    0.17
  -2   0   6   -0.02    0.22
  -2   0   6   -0.06    0.28
   1   0  -6  121.31    5.07
   1   0  -6  122.77    5.22
   1   0  -6  132.71    5.50
  -1   0   6  118.62    5.49
  -1   0   6  117.37    5.20
  -1   0   6  118.03    5.22
   0   0   6  105.93    4.69
   0   0   6  108.78    4.77
   0   0   6  108.55    4.80
   0   0   6  111.10    4.93
  -1   0  -6   46.60    2.31
  -1   0  -6   44.85    2.18
  -1   0  -6   42.15    2.13
   1   0   6   45.85    2.21
   1   0   6   46.35    2.38
   1   0   6   41.40    2.52
  -2   0  -6   31.10    1.67
  -2   0  -6   31.56    1.50
  -2   0  -6   27.04    1.97
   2   0   6   33.50    1.70
   2   0   6   33.01    2.01
   2   0   6   29.91    2.11
  -3   0  -6    0.05    0.37
  -3   0  -6    0.04    0.19
   3   0   6   -0.03    0.23
   3   0   6   -0.04    0.33
   3   0   6   -0.08    0.26
  -4   0  -6    3.10    0.87
   4   0   6    3.33    1.05
   4   0   6    5.22    1.06
   4   0   6    5.09    0.71
  -5   0  -6   21.43    2.43
   5   0   6   16.32    2.03
   5   0   6   18.20    2.25
  -6   0  -6    4.57    1.45
   6   0   6    3.13    1.17
   6   0   6    2.53    1.16
  -7   0  -6    6.67    1.69
   7   0   6    8.68    1.87
   7   0   6    6.95    1.64
   7  -1  -6    3.14    1.13
  -7   1   6    4.03    1.37
   6  -1  -6    6.74    1.27
  -6   1   6    6.26    1.15
  -6   1   6    5.24    1.42
   5  -1  -6    1.39    0.64
  -5   1   6    1.06    0.71
  -5   1   6    0.77    0.58
  -5   1   6    1.15    0.53
   4  -1  -6   22.19    1.61
  -4   1   6   23.15    1.64
  -4   1   6   20.00    2.08
   3  -1  -6    0.14    0.25
  -3   1   6    0.28    0.41
  -3   1   6    0.26    0.22
   2  -1  -6    6.31    0.68
   2  -1  -6    6.95    0.56
  -2   1   6    5.14    0.92
  -2   1   6    7.45    0.86
  -2   1   6    6.02    0.59
   1  -1  -6    0.76    0.26
   1  -1  -6    0.53    0.21
   1  -1  -6    0.80    0.31
   1  -1  -6    0.96    0.37
  -1   1   6    0.61    0.29
  -1   1   6    0.45    0.30
   0  -1  -6   12.10    0.89
   0  -1  -6   11.52    0.86
   0  -1  -6   10.42    1.02
   0   1   6    9.32    1.00
   0   1   6   10.37    1.12
   0   1   6   11.04    0.84
  -1  -1  -6  143.52    5.77
  -1  -1  -6  140.08    5.89
   1   1   6  143.41    5.81
   1   1   6  138.21    6.17
   1   1   6  140.57    6.01
   1   1   6  131.04    6.28
  -2  -1  -6   15.68    1.09
  -2  -1  -6   14.60    1.53
  -2  -1  -6   14.96    0.97
   2   1   6   17.31    0.98
   2   1   6   13.93    1.38
   2   1   6   13.59    1.56
  -3  -1  -6   15.80    1.72
  -3  -1  -6   12.63    0.86
  -3  -1  -6   15.98    1.03
   3   1   6   14.64    0.93
   3   1   6   11.42    1.36
   3   1   6   13.83    1.69
  -4  -1  -6    0.74    0.53
   4   1   6    0.78    0.34
   4   1   6    0.60    0.60
   4   1   6    0.56    0.68
  -5  -1  -6    0.21    0.76
   5   1   6    0.57    0.63
   5   1   6    0.03    0.67
  -6  -1  -6    0.68    0.91
   6   1   6    2.29    1.07
   6   1   6    1.53    1.04
  -7  -1  -6    6.43    1.79
   7   1   6    6.65    1.65
   7  -2  -6   -0.23    0.63
   7  -2  -6    0.20    0.84
  -7   2   6    0.10    0.69
   6  -2  -6    1.83    0.80
   6  -2  -6    2.01    0.91
  -6   2   6    2.16    0.79
   5  -2  -6    1.85    0.67
  -5   2   6    1.12    0.63
   4  -2  -6    0.03    0.33
  -4   2   6    1.28    0.56
   3  -2  -6    4.02    0.59
   3  -2  -6    2.54    0.72
  -3   2   6    3.39    0.71
   2  -2  -6   13.81    0.86
   2  -2  -6   13.53    0.92
   2  -2  -6   12.66    1.42
  -2   2   6   11.24    1.19
  -2   2   6   14.70    0.93
   1  -2  -6   59.95    3.15
   1  -2  -6   67.95    3.27
   1  -2  -6   61.47    2.59
   1  -2  -6   59.93    2.71
  -1   2   6   57.41    2.94
  -1   2   6   58.23    3.03
   0  -2  -6   20.44    1.43
   0  -2  -6   20.77    1.24
   0  -2  -6   21.07    1.29
   0   2   6   21.08    1.23
   0   2   6   22.24    1.53
   0   2   6   20.39    1.46
  -1  -2  -6   43.74    1.96
  -1  -2  -6   42.31    2.23
   1   2   6   40.83    2.42
   1   2   6   39.41    2.18
   1   2   6   40.46    2.51
  -2  -2  -6    0.33    0.29
   2   2   6    0.09    0.39
   2   2   6    0.74    0.41
  -3  -2  -6    6.71    0.75
  -3  -2  -6    5.83    1.10
   3   2   6    8.28    0.49
   3   2   6    6.67    1.09
   3   2   6   10.56    1.00
   3   2   6    5.33    1.20
  -4  -2  -6    0.38    0.48
  -4  -2  -6   -0.06    0.49
   4   2   6    0.75    0.62
   4   2   6    1.40    0.81
  -5  -2  -6    0.19    0.59
   5   2   6    0.10    0.65
   5   2   6   -0.30    0.71
  -6  -2  -6    1.32    0.82
   6   2   6   -0.20    0.59
   6   2   6    1.84    1.12
   7  -3  -6    2.24    1.03
   7  -3  -6    0.97    0.94
  -7   3   6    1.51    0.89
   6  -3  -6   -0.39    0.62
  -6   3   6    0.00    0.55
   5  -3  -6   15.77    1.55
   5  -3  -6   12.41    1.74
  -5   3   6   14.75    1.69
   4  -3  -6   -0.03    0.26
   4  -3  -6   -0.31    0.47
  -4   3   6   -0.33    0.39
   3  -3  -6   21.87    1.34
   3  -3  -6   23.69    1.93
  -3   3   6   21.46    1.66
  -3   3   6   24.24    1.13
  -3   3   6   25.08    1.36
   2  -3  -6   53.31    2.26
   2  -3  -6   52.28    2.37
   2  -3  -6   50.48    3.00
  -2   3   6   55.54    2.56
  -2   3   6   45.96    2.77
   1  -3  -6   42.24    2.54
   1  -3  -6   46.38    2.03
   1  -3  -6   43.66    1.85
  -1   3   6   45.83    2.44
  -1   3   6   44.11    2.50
   0  -3  -6    5.14    0.60
   0  -3  -6    5.93    0.69
   0  -3  -6    6.88    0.57
   0  -3  -6    5.19    0.81
   0   3   6    4.73    0.54
   0   3   6    5.26    0.87
   0   3   6    4.01    0.72
  -1  -3  -6   91.14    4.21
  -1  -3  -6   89.84    4.22
  -1  -3  -6   89.79    3.75
   1   3   6   88.82    4.56
   1   3   6   89.50    4.09
   1   3   6   94.00    4.47
  -2  -3  -6   12.44    1.06
   2   3   6   13.84    1.35
   2   3   6   14.13    1.72
   2   3   6   14.20    1.51
  -3  -3  -6   43.27    2.33
  -3  -3  -6   42.93    2.86
   3   3   6   42.79    2.70
   3   3   6   47.15    3.16
  -4  -3  -6    4.17    1.13
   4   3   6    1.57    0.96
   4   3   6    2.14    0.74
  -5  -3  -6    2.18    0.87
   5   3   6    0.80    0.63
   5   3   6    1.87    0.93
  -6  -3  -6    0.94    0.92
   6   3   6   -1.29    0.72
   6   3   6   -1.25    0.72
   7  -4  -6    0.03    0.83
  -7   4   6    0.58    0.83
   6  -4  -6    1.53    0.77
   6  -4  -6    2.52    0.90
  -6   4   6    1.74    0.89
   5  -4  -6   -0.32    0.59
  -5   4   6    1.29    0.75
   4  -4  -6   11.00    1.54
  -4   4   6    9.23    1.35
   3  -4  -6    3.40    0.85
  -3   4   6    4.94    0.54
  -3   4   6    5.30    0.91
  -3   4   6    5.40    0.59
   2  -4  -6   49.45    2.97
   2  -4  -6   48.82    2.13
  -2   4   6   49.05    2.82
  -2   4   6   51.51    2.58
   1  -4  -6  180.06    6.93
   1  -4  -6  168.80    7.77
  -1   4   6  176.59    7.64
  -1   4   6  177.85    7.75
   0  -4  -6    2.01    0.58
   0  -4  -6    1.88    0.44
   0  -4  -6    1.22    0.25
   0   4   6    1.23    0.46
   0   4   6    1.98    0.35
   0   4   6    1.67    0.61
  -1  -4  -6   22.05    1.64
  -1  -4  -6   25.95    1.57
  -1  -4  -6   22.49    1.14
   1   4   6   23.12    1.80
   1   4   6   24.02    1.91
   1   4   6   25.89    1.53
  -2  -4  -6    1.09    0.48
   2   4   6    1.60    0.74
   2   4   6    1.74    0.71
   2   4   6    2.16    0.59
  -3  -4  -6    0.31    0.57
  -3  -4  -6   -0.03    0.33
   3   4   6   -0.02    0.43
   3   4   6    1.08    0.73
  -4  -4  -6   13.52    1.86
   4   4   6   12.05    1.67
   4   4   6   12.12    1.91
  -5  -4  -6    0.58    0.85
   5   4   6    1.01    0.94
   5   4   6   -0.52    0.61
  -6  -4  -6    6.73    1.65
   6   4   6    5.42    1.60
   6   4   6    7.02    1.63
   7  -5  -6   -0.35    0.83
  -7   5   6    0.03    0.85
   6  -5  -6    1.43    1.05
  -6   5   6    1.75    0.96
   5  -5  -6   51.40    3.53
  -5   5   6   51.01    3.35
   4  -5  -6    0.02    0.31
   4  -5  -6    0.76    0.58
  -4   5   6    0.77    0.53
   3  -5  -6   24.30    2.03
   3  -5  -6   23.52    1.23
  -3   5   6   22.32    1.91
  -3   5   6   25.61    1.50
   2  -5  -6    7.62    1.22
  -2   5   6    8.54    1.02
  -2   5   6    7.84    1.17
   1  -5  -6   79.67    4.19
  -1   5   6   79.06    4.13
  -1   5   6   83.83    4.11
   0  -5  -6   70.84    3.37
   0  -5  -6   74.01    3.85
   0  -5  -6   71.53    2.92
   0   5   6   70.71    3.08
   0   5   6   71.97    3.93
   0   5   6   79.76    3.94
  -1  -5  -6   92.69    4.73
  -1  -5  -6   98.36    3.92
  -1  -5  -6  103.69    4.45
   1   5   6   95.93    4.89
   1   5   6   93.23    5.04
   1   5   6   99.28    4.37
  -2  -5  -6   61.88    3.37
   2   5   6   64.42    3.90
   2   5   6   63.81    3.29
   2   5   6   63.92    3.65
  -3  -5  -6   29.82    2.38
  -3  -5  -6   24.73    1.86
   3   5   6   31.09    2.58
   3   5   6   29.05    2.11
  -4  -5  -6    7.51    1.42
   4   5   6    6.67    1.58
   4   5   6   10.18    1.54
  -5  -5  -6    3.67    1.23
   5   5   6    3.74    1.21
   5   5   6    2.31    1.09
  -6  -5  -6   31.66    3.40
   6   5   6   30.98    3.35
   6   5   6   29.39    3.53
   7  -6  -6    4.31    1.29
  -7   6   6    9.66    1.74
   6  -6  -6   13.23    2.10
  -6   6   6   10.44    1.77
   5  -6  -6    3.32    1.07
  -5   6   6    3.91    1.01
   4  -6  -6   30.02    2.53
  -4   6   6   29.87    2.43
   3  -6  -6    1.06    0.60
  -3   6   6    0.81    0.44
  -3   6   6    1.28    0.59
   2  -6  -6   31.63    2.38
  -2   6   6   35.38    2.19
  -2   6   6   32.78    2.32
   1  -6  -6    4.78    0.99
  -1   6   6    6.95    1.08
  -1   6   6    3.76    0.85
   0  -6  -6    0.20    0.37
   0   6   6    0.26    0.17
   0   6   6    0.01    0.50
   0   6   6    0.92    0.60
  -1  -6  -6   23.42    1.89
  -1  -6  -6   22.24    1.14
   1   6   6   22.67    2.29
   1   6   6   23.84    1.91
   1   6   6   26.46    1.52
  -2  -6  -6   32.62    2.21
   2   6   6   27.39    2.25
   2   6   6   32.40    2.01
   2   6   6   27.34    2.43
  -3  -6  -6   10.18    1.35
   3   6   6    8.48    1.61
   3   6   6   10.98    1.42
  -4  -6  -6    0.93    0.87
   4   6   6    1.19    0.65
   4   6   6    0.87    1.00
  -5  -6  -6    4.70    1.25
   5   6   6    2.85    1.12
   5   6   6    2.74    1.12
   6  -7  -6   11.57    1.98
  -6   7   6   12.86    1.97
   5  -7  -6   -0.33    0.68
  -5   7   6   -0.24    0.43
   4  -7  -6    6.12    1.37
  -4   7   6    6.29    1.35
   3  -7  -6    0.52    0.54
  -3   7   6    1.59    0.58
  -3   7   6    0.61    0.55
   2  -7  -6   -0.05    0.42
  -2   7   6   -0.38    0.52
  -2   7   6    1.06    0.58
   1  -7  -6   20.89    2.11
  -1   7   6   21.21    2.10
  -1   7   6   21.61    2.11
   0  -7  -6   10.02    1.43
   0   7   6   10.42    1.54
   0   7   6   10.68    1.47
  -1  -7  -6    5.53    1.05
   1   7   6    5.96    0.74
   1   7   6    4.70    1.09
   1   7   6    5.38    1.19
  -2  -7  -6   -0.24    0.47
   2   7   6    0.09    0.40
   2   7   6    0.50    0.47
   2   7   6    0.09    0.48
  -3  -7  -6   11.19    1.54
   3   7   6   10.65    1.84
   3   7   6   11.20    1.44
  -4  -7  -6    2.36    1.00
   4   7   6    3.22    1.22
   4   7   6    0.18    0.65
  -5  -7  -6    3.91    1.29
   5   7   6    1.77    1.02
   5   7   6    1.21    1.16
   6  -8  -6    5.94    1.46
  -6   8   6    5.50    1.43
   5  -8  -6    0.98    0.70
  -5   8   6    0.38    0.62
   4  -8  -6    7.22    1.48
  -4   8   6    5.64    1.29
   3  -8  -6    2.56    1.01
  -3   8   6    3.11    0.93
  -3   8   6    3.59    0.85
   2  -8  -6    1.73    0.84
  -2   8   6    0.31    0.50
  -2   8   6    0.63    0.52
   1  -8  -6    1.01    0.71
  -1   8   6    2.60    0.83
  -1   8   6    1.96    0.81
   0  -8  -6   57.43    3.66
   0   8   6   59.56    3.69
   0   8   6   66.93    3.95
  -1  -8  -6    1.76    0.78
   1   8   6    1.44    0.90
   1   8   6    2.02    0.81
  -2  -8  -6    1.66    0.72
   2   8   6    3.71    1.27
   2   8   6    1.20    0.76
   2   8   6    0.45    0.53
  -3  -8  -6    2.39    0.97
   3   8   6    2.52    1.21
   3   8   6    2.75    0.89
  -4  -8  -6    7.22    1.64
   4   8   6    5.20    1.48
   4   8   6    7.80    1.45
   6  -9  -6    1.24    1.18
  -6   9   6    2.70    1.11
   5  -9  -6    1.15    1.08
  -5   9   6    0.76    0.76
   4  -9  -6    2.08    0.97
  -4   9   6    2.97    1.10
   3  -9  -6   -0.19    0.68
  -3   9   6    0.56    0.59
  -3   9   6    0.37    0.72
   2  -9  -6    6.62    1.34
  -2   9   6    6.61    1.20
  -2   9   6    4.89    1.17
   1  -9  -6    5.19    1.24
  -1   9   6    7.81    1.39
  -1   9   6    6.30    1.30
   0  -9  -6    2.54    0.87
   0   9   6    3.49    1.08
   0   9   6    2.55    0.82
  -1  -9  -6    5.89    1.23
   1   9   6    4.58    1.14
   1   9   6    4.16    1.15
  -2  -9  -6    2.12    0.80
   2   9   6    1.09    0.80
   2   9   6    0.64    0.77
  -3  -9  -6   -0.70    0.63
   3   9   6    0.40    0.73
  -4  -9  -6    1.08    0.81
   4   9   6    1.82    1.26
   5 -10  -6   31.37    3.41
  -5  10   6   20.05    2.65
   4 -10  -6    2.12    1.09
  -4  10   6    0.51    0.86
   3 -10  -6    4.49    1.21
  -3  10   6    6.46    1.47
  -3  10   6    6.18    1.52
   2 -10  -6    0.04    0.49
  -2  10   6    0.64    0.76
  -2  10   6    0.42    0.62
   1 -10  -6    1.02    0.89
  -1  10   6    1.36    0.73
  -1  10   6    2.73    1.01
   0 -10  -6   -0.29    0.53
   0  10   6    0.82    0.71
   0  10   6    0.24    0.68
  -1 -10  -6   23.95    2.66
   1  10   6   24.42    2.82
   1  10   6   17.78    2.24
  -2 -10  -6   13.86    1.98
   2  10   6   18.07    2.26
   2  10   6   15.09    2.45
  -3 -10  -6    8.67    1.70
   3  10   6    8.43    1.99
   4 -11  -6    2.56    1.19
  -4  11   6    4.36    1.38
   3 -11  -6   -0.43    0.55
  -3  11   6    0.36    0.86
   2 -11  -6    0.42    0.68
  -2  11   6    0.32    0.71
  -2  11   6    0.23    0.77
   1 -11  -6    7.74    1.70
  -1  11   6    6.02    1.26
  -1  11   6    4.32    1.28
   0 -11  -6    3.70    1.22
   0  11   6    3.90    1.10
   0  11   6    4.78    1.45
  -1 -11  -6   18.72    2.43
   1  11   6   15.56    2.40
   1  11   6   22.72    2.58
  -2 -11  -6    5.84    1.48
   2  11   6    2.63    1.48
   2  11   6    5.48    1.36
   3 -12  -6    0.25    0.75
  -3  12   6    0.25    0.86
   2 -12  -6   16.85    2.44
  -2  12   6   10.17    1.82
  -2  12   6   19.35    2.48
   1 -12  -6    3.86    1.24
  -1  12   6    6.36    1.54
  -1  12   6    4.83    1.27
   0 -12  -6   21.86    2.78
   0  12   6   25.10    2.81
   0  12   6   20.43    2.81
  -1 -12  -6    4.72    1.46
   1  12   6    4.92    1.34
   1  12   6    3.31    1.28
   2 -13  -6   21.33    2.90
  -2  13   6   16.67    2.50
  -2  13   6   18.79    2.63
   1 -13  -6   12.25    2.19
  -1  13   6   10.59    1.95
  -1  13   6   24.49    2.89
   1  15  -7    1.90    1.00
  -1 -15   7    3.47    1.39
  -1 -15   7    2.21    1.15
   0  15  -7   10.93    1.80
   0 -15   7   10.69    1.99
   0 -15   7    9.84    1.99
  -1  15  -7    0.74    0.69
   1 -15   7    0.20    0.77
   1 -15   7    1.95    1.17
  -2  15  -7    1.69    0.88
   2 -15   7   -1.09    0.82
   2 -15   7    0.35    0.67
   2  14  -7    1.88    1.09
  -2 -14   7    1.25    1.18
  -2 -14   7    2.40    1.04
   1  14  -7    0.89    0.81
  -1 -14   7    1.14    0.92
  -1 -14   7    0.13    0.64
   0  14  -7    0.94    0.78
   0 -14   7    2.93    1.27
   0 -14   7    2.08    0.98
  -1  14  -7    4.18    1.09
   1 -14   7    1.78    1.12
   1 -14   7    3.74    1.32
  -2  14  -7    0.38    0.76
   2 -14   7    0.31    0.88
   2 -14   7    2.06    1.11
  -3  14  -7   22.60    2.53
  -3  14  -7   20.77    2.54
   3 -14   7   21.44    2.76
   3  13  -7    0.22    0.86
  -3 -13   7    2.01    1.03
  -3 -13   7    1.26    1.42
   2  13  -7    9.42    1.73
  -2 -13   7   11.21    1.82
  -2 -13   7   10.76    2.01
  -1 -13   7    0.75    0.81
  -1 -13   7    0.66    0.62
   0  13  -7    1.89    0.87
   0 -13   7    2.88    1.15
   0 -13   7    2.55    1.09
  -1  13  -7   13.10    1.73
   1 -13   7   12.17    1.89
   1 -13   7   13.97    2.08
  -2  13  -7    6.50    1.33
  -2  13  -7    6.02    1.20
   2 -13   7    7.57    1.60
   2 -13   7    6.75    1.49
  -3  13  -7    0.67    0.81
  -3  13  -7   -0.49    0.58
   3 -13   7   -0.76    0.48
  -4  13  -7    0.62    1.06
   4 -13   7    0.53    0.98
   4  12  -7    6.65    1.78
   4  12  -7    5.58    1.59
  -4 -12   7    7.70    2.00
   3  12  -7    1.20    0.96
  -3 -12   7    0.72    0.81
  -3 -12   7    0.12    0.60
   2  12  -7   25.56    2.64
  -2 -12   7   23.07    2.84
  -2 -12   7   29.60    2.45
   1  12  -7    0.90    0.77
  -1 -12   7    0.39    0.62
  -1 -12   7    0.41    0.66
   0  12  -7   11.75    1.62
   0 -12   7    9.52    1.61
   0 -12   7    8.71    1.51
  -1  12  -7   24.28    2.34
  -1  12  -7   22.39    1.82
   1 -12   7   24.26    2.58
   1 -12   7   21.32    2.40
  -2  12  -7    0.76    0.66
  -2  12  -7    0.20    0.41
   2 -12   7   -0.91    0.47
   2 -12   7    0.26    0.70
  -3  12  -7    2.66    1.07
   3 -12   7    1.81    0.86
   3 -12   7    1.24    0.86
  -4  12  -7    1.87    1.08
   4 -12   7    1.31    1.03
   4 -12   7   -0.03    0.82
  -5  12  -7    3.45    1.29
   5 -12   7    3.42    1.17
   5 -12   7    3.92    1.39
   4  11  -7    2.60    1.03
  -4 -11   7    4.47    1.39
  -4 -11   7    1.34    1.46
   3  11  -7    0.05    0.82
  -3 -11   7    2.13    0.94
  -3 -11   7    0.73    0.95
   2  11  -7    2.90    0.90
  -2 -11   7    0.93    0.92
  -2 -11   7    1.83    0.85
   1  11  -7    1.59    0.74
  -1 -11   7    0.52    0.64
  -1 -11   7   -0.28    0.64
   0  11  -7   20.57    2.10
   0 -11   7   17.97    2.11
   0 -11   7   20.85    2.29
  -1  11  -7    3.66    1.00
   1 -11   7    3.96    1.04
   1 -11   7    2.09    0.99
  -2  11  -7    4.48    1.02
   2 -11   7    3.23    0.92
   2 -11   7    3.57    0.99
  -3  11  -7    0.14    0.73
   3 -11   7   -0.50    0.64
   3 -11   7    0.07    0.75
   3 -11   7    0.45    0.58
  -4  11  -7    3.84    1.19
   4 -11   7    3.31    1.13
   4 -11   7    4.16    1.20
  -5  11  -7    5.04    1.57
   5 -11   7    2.35    1.14
   5 -11   7    3.19    1.23
   5  10  -7   19.67    2.75
  -5 -10   7   19.87    2.52
  -5 -10   7   17.56    2.77
   4  10  -7    0.90    0.90
  -4 -10   7    1.16    0.86
  -4 -10   7   -0.17    0.86
   3  10  -7    6.23    1.29
  -3 -10   7    5.60    1.37
  -3 -10   7    9.95    1.46
  -3 -10   7    7.64    1.38
   2  10  -7    0.13    0.50
  -2 -10   7    1.62    0.77
  -2 -10   7    0.35    0.57
  -2 -10   7    0.15    0.48
   1  10  -7    1.56    0.67
  -1 -10   7    1.26    0.69
  -1 -10   7    0.75    0.60
   0  10  -7    6.15    1.12
   0  10  -7    5.45    0.80
   0 -10   7    4.45    1.07
   0 -10   7    5.65    1.13
  -1  10  -7   55.04    3.00
  -1  10  -7   50.78    3.18
   1 -10   7   50.97    3.20
   1 -10   7   57.08    3.50
  -2  10  -7   14.70    1.68
   2 -10   7   13.67    1.60
   2 -10   7   12.62    1.80
  -3  10  -7    2.05    0.92
   3 -10   7    2.45    0.88
   3 -10   7    1.84    0.73
   3 -10   7    1.98    0.66
  -4  10  -7    0.52    0.86
   4 -10   7   -0.27    0.46
   4 -10   7   -0.63    0.35
  -5  10  -7    0.31    0.91
   5 -10   7   -0.54    0.45
   5 -10   7    0.88    0.90
  -6  10  -7   12.68    2.43
   6 -10   7   16.49    2.47
   6 -10   7   10.68    1.96
   5   9  -7    1.43    0.91
  -5  -9   7   -0.74    0.74
  -5  -9   7   -0.41    0.71
   4   9  -7   -0.11    0.54
  -4  -9   7   -0.40    0.54
  -4  -9   7    1.09    1.03
   3   9  -7   19.47    2.14
  -3  -9   7   17.48    1.86
  -3  -9   7   17.50    2.02
  -3  -9   7   13.59    1.98
   2   9  -7    0.53    0.52
  -2  -9   7    0.47    0.52
  -2  -9   7    0.95    0.57
  -2  -9   7    1.25    0.49
   1   9  -7    0.16    0.55
  -1  -9   7    0.17    0.48
  -1  -9   7   -0.04    0.37
   0   9  -7   27.61    1.97
   0  -9   7   26.41    2.04
   0  -9   7   20.35    2.11
  -1   9  -7   -0.07    0.35
  -1   9  -7    0.47    0.50
   1  -9   7   -0.02    0.39
   1  -9   7    0.65    0.53
  -2   9  -7   17.81    1.87
   2  -9   7   22.41    1.70
   2  -9   7   18.85    1.92
   2  -9   7   20.63    2.17
  -3   9  -7   17.38    2.04
   3  -9   7   17.36    1.42
   3  -9   7   17.38    2.00
   3  -9   7   17.30    2.03
  -4   9  -7    0.87    0.68
   4  -9   7    1.01    0.77
   4  -9   7    0.16    0.69
  -5   9  -7   -0.11    0.57
   5  -9   7    0.75    0.85
   5  -9   7    0.01    0.70
  -6   9  -7    7.03    1.90
   6  -9   7    6.22    1.63
   6  -9   7    6.37    1.47
   6   8  -7   23.85    2.97
  -6  -8   7   14.00    2.44
  -6  -8   7   15.54    2.50
   5   8  -7    0.09    0.57
  -5  -8   7    0.50    0.85
  -5  -8   7    0.43    0.69
   4   8  -7    3.33    1.08
  -4  -8   7    5.47    1.16
  -4  -8   7    6.50    1.51
   3   8  -7    0.97    0.58
  -3  -8   7    0.37    0.53
  -3  -8   7   -0.49    0.34
   2   8  -7    0.56    0.58
  -2  -8   7    0.78    0.55
  -2  -8   7    0.15    0.38
  -2  -8   7    0.98    0.61
   1   8  -7   21.84    2.00
   1   8  -7   20.46    1.05
  -1  -8   7   19.46    1.94
  -1  -8   7   20.55    2.07
   0   8  -7    6.84    1.08
   0   8  -7    7.39    0.81
   0  -8   7    7.63    1.19
   0  -8   7    6.31    1.15
  -1   8  -7    1.01    0.48
   1  -8   7    0.65    0.50
   1  -8   7    2.09    0.68
  -2   8  -7    4.48    0.96
   2  -8   7    6.72    1.12
   2  -8   7    5.05    0.87
   2  -8   7    5.10    1.02
  -3   8  -7   19.08    2.08
   3  -8   7   21.75    1.48
   3  -8   7   19.97    2.09
   3  -8   7   19.38    2.09
  -4   8  -7    2.65    0.95
   4  -8   7    4.82    1.17
   4  -8   7    9.43    1.51
  -5   8  -7    3.33    1.24
   5  -8   7    2.94    1.02
   5  -8   7    1.34    0.99
  -6   8  -7    2.30    1.28
   6  -8   7   -0.71    0.45
   6  -8   7   -0.09    0.67
   6   7  -7    5.84    1.48
  -6  -7   7    3.95    1.44
  -6  -7   7    5.27    1.54
   5   7  -7   13.12    1.96
  -5  -7   7   11.48    2.00
  -5  -7   7   11.83    1.84
   4   7  -7    2.24    0.97
  -4  -7   7    4.58    1.24
  -4  -7   7    2.82    0.85
   3   7  -7    2.72    0.86
  -3  -7   7    2.01    0.71
  -3  -7   7    0.77    0.76
   2   7  -7    0.31    0.39
  -2  -7   7    0.20    0.38
  -2  -7   7   -0.35    0.43
  -2  -7   7   -0.19    0.41
   1   7  -7    7.90    0.52
   1   7  -7    6.36    1.03
  -1  -7   7    6.81    1.11
  -1  -7   7    6.79    1.12
   0   7  -7   -0.27    0.24
   0   7  -7   -0.10    0.25
   0  -7   7   -0.20    0.27
   0  -7   7    0.23    0.26
   0  -7   7   -0.15    0.28
  -1   7  -7    9.97    1.12
   1  -7   7    8.96    1.11
   1  -7   7    7.90    1.19
   1  -7   7    9.11    1.18
  -2   7  -7   -0.24    0.31
   2  -7   7   -0.03    0.30
   2  -7   7   -0.35    0.24
   2  -7   7    0.31    0.52
  -3   7  -7    0.32    0.63
   3  -7   7    0.47    0.50
   3  -7   7    1.27    0.59
   3  -7   7    0.63    0.37
  -4   7  -7    9.16    1.58
   4  -7   7    4.91    1.12
   4  -7   7    8.26    1.32
  -5   7  -7    1.85    0.93
   5  -7   7    1.93    0.96
   5  -7   7    3.36    0.96
  -6   7  -7    1.14    1.11
   6  -7   7   -0.81    0.66
   6  -7   7    0.85    0.94
   6   6  -7    1.10    1.03
  -6  -6   7    2.64    1.20
  -6  -6   7    2.94    1.32
   5   6  -7    0.55    0.81
  -5  -6   7    0.46    0.69
  -5  -6   7    2.66    0.90
   4   6  -7    2.69    0.98
  -4  -6   7    3.78    0.96
  -4  -6   7    4.20    1.18
   3   6  -7    0.73    0.64
  -3  -6   7    0.58    0.50
  -3  -6   7    0.02    0.27
   2   6  -7    4.33    0.84
  -2  -6   7    3.97    0.98
  -2  -6   7    5.71    0.88
  -2  -6   7    4.56    0.94
   1   6  -7   23.17    1.16
   1   6  -7   24.55    1.76
  -1  -6   7   24.86    1.84
  -1  -6   7   21.15    1.75
   0   6  -7    0.04    0.36
   0   6  -7    0.17    0.25
   0  -6   7    0.02    0.37
   0  -6   7    0.19    0.23
   0  -6   7   -0.12    0.32
  -1   6  -7    4.14    0.73
   1  -6   7    3.89    0.74
   1  -6   7    3.12    0.70
   1  -6   7    2.45    0.70
  -2   6  -7    1.12    0.43
  -2   6  -7    0.00    0.32
   2  -6   7    1.12    0.39
   2  -6   7   -0.04    0.29
   2  -6   7   -0.40    0.36
  -3   6  -7   26.86    2.13
   3  -6   7   27.53    2.12
   3  -6   7   26.48    1.45
   3  -6   7   29.81    2.12
  -4   6  -7   -0.31    0.63
   4  -6   7    0.31    0.44
   4  -6   7    0.00    0.38
  -5   6  -7    8.01    1.54
   5  -6   7    5.13    1.27
   5  -6   7    5.54    1.15
  -6   6  -7    9.69    2.03
   6  -6   7   14.16    2.21
   6  -6   7   11.16    1.79
   6   5  -7    7.40    1.52
  -6  -5   7    6.12    1.47
  -6  -5   7    6.80    1.67
   5   5  -7    0.99    0.82
  -5  -5   7    2.98    1.15
  -5  -5   7    1.57    0.84
   4   5  -7    2.42    0.77
  -4  -5   7    1.62    0.73
  -4  -5   7    1.60    0.86
   3   5  -7    4.69    0.97
  -3  -5   7    7.03    1.14
  -3  -5   7    4.08    1.03
   2   5  -7    5.33    0.88
  -2  -5   7    6.51    0.92
  -2  -5   7    6.08    1.00
  -2  -5   7    5.81    1.04
   1   5  -7   15.34    0.86
   1   5  -7   14.31    1.41
   1   5  -7   15.04    0.75
  -1  -5   7   14.98    1.52
  -1  -5   7   13.95    1.50
   0   5  -7   -0.28    0.21
   0   5  -7    0.07    0.23
   0   5  -7   -0.47    0.20
   0  -5   7    0.33    0.36
   0  -5   7   -0.11    0.24
  -1   5  -7  140.95    6.04
   1  -5   7  136.09    6.20
   1  -5   7  136.65    6.24
   1  -5   7  132.34    5.99
  -2   5  -7   84.05    4.33
  -2   5  -7   86.82    3.75
   2  -5   7   89.70    3.95
   2  -5   7   87.73    4.37
   2  -5   7   88.80    4.44
  -3   5  -7    3.05    0.89
   3  -5   7    4.34    0.92
   3  -5   7    4.30    0.90
   3  -5   7    4.13    0.35
  -4   5  -7   14.27    1.84
   4  -5   7   16.09    1.74
   4  -5   7   13.25    1.73
  -5   5  -7    5.98    1.49
   5  -5   7    4.36    1.05
   5  -5   7    9.55    1.59
  -6   5  -7   13.20    2.26
   6  -5   7   14.02    1.88
   6  -5   7   15.58    2.24
  -7   5  -7    1.55    1.52
   7   4  -7   18.61    2.56
  -7  -4   7   12.63    2.28
  -7  -4   7   15.63    2.54
   6   4  -7    1.22    0.95
  -6  -4   7    0.31    0.89
  -6  -4   7   -0.22    0.55
   5   4  -7    0.23    0.68
  -5  -4   7    0.18    0.64
  -5  -4   7    1.01    0.84
   4   4  -7   15.55    1.78
  -4  -4   7   15.43    1.97
  -4  -4   7   17.48    1.95
   3   4  -7   23.04    1.79
  -3  -4   7   21.63    2.16
  -3  -4   7   21.25    1.72
   2   4  -7    7.67    0.99
  -2  -4   7    8.88    1.21
  -2  -4   7    6.41    1.09
   1   4  -7   -0.19    0.21
   1   4  -7    0.11    0.15
   1   4  -7    0.21    0.19
  -1  -4   7    0.08    0.29
  -1  -4   7    0.84    0.49
   0   4  -7   35.04    1.76
   0   4  -7   33.92    1.72
   0  -4   7   27.78    1.95
   0  -4   7   29.14    1.95
  -1   4  -7   35.72    2.10
  -1   4  -7   37.79    1.94
   1  -4   7   39.50    2.11
   1  -4   7   32.77    2.17
   1  -4   7   37.45    2.26
  -2   4  -7   41.64    2.54
  -2   4  -7   45.30    1.97
   2  -4   7   42.14    2.14
   2  -4   7   47.14    2.69
   2  -4   7   41.37    2.49
  -3   4  -7   56.94    3.37
   3  -4   7   57.00    3.17
   3  -4   7   57.12    3.33
  -4   4  -7    0.46    0.66
   4  -4   7    0.10    0.34
   4  -4   7    0.29    0.59
  -5   4  -7    3.47    1.17
   5  -4   7    5.84    1.24
   5  -4   7    4.31    0.96
  -6   4  -7    1.50    1.05
   6  -4   7    4.95    1.09
   6  -4   7    6.03    1.50
  -7   4  -7    1.82    1.14
   7  -4   7    1.31    1.20
   7   3  -7   11.36    2.05
  -7  -3   7   10.40    2.01
  -7  -3   7    7.81    1.90
   6   3  -7   31.71    3.07
  -6  -3   7   29.07    3.13
  -6  -3   7   27.59    3.01
   5   3  -7    3.03    0.90
  -5  -3   7    2.12    0.82
  -5  -3   7    3.10    0.94
   4   3  -7  105.87    4.57
   4   3  -7  104.33    5.25
  -4  -3   7  105.78    5.46
  -4  -3   7  102.03    5.54
  -4  -3   7  109.03    4.44
   3   3  -7   57.61    2.44
   3   3  -7   59.21    3.23
  -3  -3   7   59.17    2.56
  -3  -3   7   57.21    3.33
  -3  -3   7   61.47    3.55
   2   3  -7   78.88    3.93
   2   3  -7   81.82    3.35
  -2  -3   7   87.74    3.51
  -2  -3   7   78.18    4.22
   1   3  -7   22.63    1.49
   1   3  -7   22.62    1.25
   1   3  -7   21.62    1.16
  -1  -3   7   19.47    1.56
  -1  -3   7   20.65    1.57
   0   3  -7    0.76    0.31
   0  -3   7    0.36    0.28
   0  -3   7    0.87    0.42
   0  -3   7    0.17    0.35
  -1   3  -7    0.15    0.30
   1  -3   7    0.25    0.29
   1  -3   7    0.20    0.28
   1  -3   7    0.08    0.33
  -2   3  -7    0.40    0.16
  -2   3  -7    0.37    0.25
  -2   3  -7    0.85    0.19
  -2   3  -7    0.13    0.32
   2  -3   7    0.11    0.33
   2  -3   7    0.20    0.32
  -3   3  -7   26.58    2.12
   3  -3   7   32.27    2.17
   3  -3   7   28.97    1.92
   3  -3   7   26.95    2.17
  -4   3  -7    0.31    0.47
   4  -3   7    1.07    0.50
   4  -3   7    1.09    0.61
  -5   3  -7    3.08    1.11
   5  -3   7    3.00    0.79
   5  -3   7    3.00    1.08
  -6   3  -7    1.68    1.08
   6  -3   7    0.12    0.84
   6  -3   7   -0.12    0.73
  -7   3  -7    0.08    1.13
   7  -3   7    0.25    1.00
   7   2  -7   10.27    1.93
  -7  -2   7    8.96    2.04
  -7  -2   7   10.80    1.98
   6   2  -7    7.61    1.51
  -6  -2   7    6.75    1.57
  -6  -2   7    6.29    1.43
   5   2  -7    0.30    0.61
  -5  -2   7    0.73    0.72
  -5  -2   7    0.23    0.76
   4   2  -7   14.63    1.62
  -4  -2   7   15.09    1.80
  -4  -2   7   12.51    1.68
  -4  -2   7   14.19    1.05
   3   2  -7    2.19    0.65
   3   2  -7    3.32    0.48
   3   2  -7    4.07    0.55
  -3  -2   7    4.56    0.94
  -3  -2   7    3.71    0.53
   2   2  -7  117.84    4.97
   2   2  -7  118.05    4.85
   2   2  -7  112.90    4.71
   2   2  -7  105.45    5.04
  -2  -2   7  108.96    5.44
  -2  -2   7  113.70    4.80
   1   2  -7   15.25    1.03
   1   2  -7   13.78    1.06
  -1  -2   7   15.73    1.32
  -1  -2   7   13.56    1.40
  -1  -2   7   14.78    1.01
   0   2  -7   84.07    3.80
   0  -2   7   81.38    3.92
   0  -2   7   84.07    4.00
   0  -2   7   85.38    4.03
  -1   2  -7   29.62    1.87
  -1   2  -7   26.93    1.77
   1  -2   7   28.68    1.67
   1  -2   7   28.53    1.75
   1  -2   7   28.90    1.84
   1  -2   7   28.15    1.95
  -2   2  -7   75.79    3.06
  -2   2  -7   66.21    3.74
  -2   2  -7   76.57    3.28
   2  -2   7   73.88    4.01
   2  -2   7   73.62    3.81
   2  -2   7   76.55    3.63
  -3   2  -7   49.57    3.18
   3  -2   7   53.52    3.35
   3  -2   7   54.17    3.19
   3  -2   7   58.24    2.91
  -4   2  -7   -0.18    0.51
   4  -2   7    0.67    0.44
   4  -2   7    0.04    0.65
   4  -2   7    0.30    0.62
  -5   2  -7    1.32    0.90
   5  -2   7    3.33    1.10
   5  -2   7    2.46    0.70
   5  -2   7    3.59    1.11
  -6   2  -7   18.97    2.53
   6  -2   7   12.61    2.07
  -7   2  -7    2.68    1.21
   7  -2   7    1.65    1.31
   7   1  -7    0.07    0.83
  -7  -1   7    0.29    0.62
  -7  -1   7    1.12    1.03
   6   1  -7    0.76    0.72
  -6  -1   7    0.09    0.61
  -6  -1   7    1.14    0.89
   5   1  -7    0.95    0.65
  -5  -1   7    1.79    0.82
  -5  -1   7    1.04    0.69
  -5  -1   7    0.72    0.44
   4   1  -7    1.09    0.51
  -4  -1   7    1.20    0.64
  -4  -1   7    1.45    0.67
  -4  -1   7    0.86    0.41
   3   1  -7   33.43    1.89
   3   1  -7   33.46    1.60
   3   1  -7   37.47    2.14
  -3  -1   7   35.92    1.93
  -3  -1   7   35.05    2.45
   2   1  -7    8.63    0.85
   2   1  -7    7.83    0.91
   2   1  -7    9.26    0.88
  -2  -1   7    8.48    1.15
  -2  -1   7    8.74    0.88
   1   1  -7    6.36    0.72
  -1  -1   7    8.41    1.10
  -1  -1   7    7.04    0.80
   0  -1   7   65.22    3.28
   0  -1   7   66.39    3.36
   0  -1   7   63.14    3.15
   0  -1   7   62.92    3.14
   0  -1   7   68.35    3.26
  -1   1  -7   14.30    1.23
  -1   1  -7   15.82    1.04
   1  -1   7   15.37    1.25
   1  -1   7   15.14    1.60
   1  -1   7   15.62    1.16
  -2   1  -7   48.20    2.12
  -2   1  -7   50.27    2.34
  -2   1  -7   41.71    2.69
   2  -1   7   46.67    2.72
   2  -1   7   48.65    2.49
   2  -1   7   50.10    3.02
  -3   1  -7   25.50    1.21
  -3   1  -7   27.31    2.07
   3  -1   7   29.53    1.71
   3  -1   7   24.18    1.91
   3  -1   7   25.21    2.11
  -4   1  -7    0.02    0.42
   4  -1   7    0.58    0.53
   4  -1   7    0.20    0.31
   4  -1   7   -0.23    0.62
  -5   1  -7   -0.88    0.57
   5  -1   7    0.24    0.60
   5  -1   7   -0.25    0.52
   5  -1   7    0.65    0.65
  -6   1  -7   -0.60    0.82
   6  -1   7   -0.19    0.61
   6  -1   7    0.40    0.63
   7   0  -7    0.95    0.75
  -7   0   7   -0.26    0.67
   6   0  -7   16.35    1.97
  -6   0   7   14.89    2.13
  -6   0   7   14.99    2.20
   5   0  -7   15.47    1.70
  -5   0   7   15.32    1.97
  -5   0   7   15.47    1.53
   4   0  -7    2.15    0.64
  -4   0   7    2.07    0.59
  -4   0   7    0.87    0.54
   3   0  -7   17.14    1.31
  -3   0   7   18.08    1.31
  -3   0   7   19.66    1.99
   2   0  -7    3.37    0.56
   2   0  -7    4.99    0.61
  -2   0   7    5.34    0.75
  -2   0   7    3.75    0.81
   1   0  -7    0.35    0.25
  -1   0   7    0.56    0.37
  -1   0   7    0.42    0.31
  -1   0   7    0.35    0.30
   0   0  -7    1.49    0.40
   0   0   7    1.39    0.36
   0   0   7    0.87    0.44
   0   0   7    1.57    0.43
   0   0   7    1.27    0.37
  -1   0  -7   23.51    1.47
   1   0   7   27.11    1.93
   1   0   7   28.18    1.72
   1   0   7   26.01    1.55
  -2   0  -7    5.38    0.56
  -2   0  -7    6.74    0.78
  -2   0  -7    4.45    0.81
   2   0   7    4.60    0.97
   2   0   7    4.89    0.81
   2   0   7    5.77    0.71
  -3   0  -7   14.91    1.73
  -3   0  -7   13.83    1.39
   3   0   7   13.01    1.55
   3   0   7   15.30    1.08
   3   0   7   10.61    1.56
  -4   0  -7    0.37    0.49
   4   0   7    0.95    0.40
   4   0   7    1.89    0.71
   4   0   7    1.21    0.70
  -5   0  -7    1.43    0.92
   5   0   7    1.50    0.98
   5   0   7    0.65    0.57
  -6   0  -7    4.23    1.28
   6   0   7    4.88    1.48
   6   0   7    3.04    1.30
   7  -1  -7    0.64    0.92
   7  -1  -7    0.71    0.80
   6  -1  -7    0.96    0.76
  -6   1   7    0.03    0.61
   5  -1  -7   -0.19    0.41
  -5   1   7    0.03    0.46
  -5   1   7    0.07    0.48
   4  -1  -7    5.04    0.85
  -4   1   7    3.92    0.76
  -4   1   7    6.35    1.24
   3  -1  -7    0.49    0.35
  -3   1   7   -0.10    0.36
  -3   1   7    0.19    0.34
   2  -1  -7    0.15    0.22
   2  -1  -7    0.22    0.25
  -2   1   7   -0.45    0.25
  -2   1   7    0.08    0.21
  -2   1   7   -0.09    0.19
   1  -1  -7   11.13    1.23
   1  -1  -7   13.76    0.86
  -1   1   7   11.81    1.03
  -1   1   7    9.18    1.04
   0  -1  -7   12.58    1.05
   0   1   7   10.91    1.18
   0   1   7   12.05    1.28
   0   1   7   12.60    0.98
  -1  -1  -7   26.05    1.40
  -1  -1  -7   22.98    1.44
   1   1   7   20.54    1.59
   1   1   7   19.35    1.65
   1   1   7   22.90    1.53
  -2  -1  -7    6.83    1.09
  -2  -1  -7    6.42    0.71
   2   1   7    7.77    1.22
   2   1   7    7.39    0.72
   2   1   7    6.06    0.93
  -3  -1  -7    0.74    0.51
  -3  -1  -7    0.03    0.21
   3   1   7   -0.63    0.29
   3   1   7   -0.17    0.44
   3   1   7    0.34    0.23
  -4  -1  -7    1.87    0.89
   4   1   7    1.88    0.69
   4   1   7    1.70    0.86
  -5  -1  -7    5.62    1.34
   5   1   7    4.64    1.24
   5   1   7    3.51    1.17
  -6  -1  -7    0.99    1.06
   6   1   7    3.09    1.24
   6   1   7    0.69    0.95
   7  -2  -7    0.74    0.81
   7  -2  -7    0.75    0.89
   6  -2  -7    0.20    0.61
   6  -2  -7   -0.30    0.45
  -6   2   7   -0.30    0.51
   5  -2  -7   -0.12    0.48
   5  -2  -7    0.90    0.60
  -5   2   7    0.86    0.59
   4  -2  -7   64.18    3.98
   4  -2  -7   74.09    3.52
  -4   2   7   69.48    3.68
   3  -2  -7   20.29    2.03
   3  -2  -7   23.32    1.38
  -3   2   7   18.42    1.54
   2  -2  -7    3.01    0.45
   2  -2  -7    2.19    0.63
   2  -2  -7    3.20    0.62
  -2   2   7    3.07    0.64
  -2   2   7    2.76    0.52
   1  -2  -7    7.37    1.01
   1  -2  -7    7.94    0.75
   1  -2  -7    8.64    0.62
  -1   2   7    8.38    1.01
  -1   2   7    7.33    1.01
   0  -2  -7    4.27    0.75
   0   2   7    3.29    0.53
   0   2   7    3.28    0.72
   0   2   7    4.92    0.85
  -1  -2  -7   13.05    1.10
  -1  -2  -7   14.58    0.94
   1   2   7   12.99    1.41
   1   2   7   13.09    1.09
   1   2   7   10.78    1.41
  -2  -2  -7   22.04    1.35
   2   2   7   17.97    1.99
   2   2   7   16.90    1.46
  -3  -2  -7    2.13    0.84
  -3  -2  -7    2.90    0.52
   3   2   7    4.16    0.87
   3   2   7    1.85    0.77
  -4  -2  -7    2.96    0.95
   4   2   7    1.82    0.74
   4   2   7    2.12    0.98
  -5  -2  -7    1.94    0.99
   5   2   7    1.80    1.11
   5   2   7    0.67    0.77
  -6  -2  -7    2.12    1.18
   6   2   7    1.82    0.90
   6   2   7    1.22    0.93
  -7   3   7    2.11    1.21
   6  -3  -7    0.08    0.71
  -6   3   7   -0.75    0.51
   5  -3  -7    4.14    1.05
   5  -3  -7    4.58    0.85
  -5   3   7    3.90    0.94
   4  -3  -7   35.06    1.97
   4  -3  -7   33.04    2.52
  -4   3   7   29.52    2.18
   3  -3  -7    9.93    1.45
   3  -3  -7   15.80    1.02
  -3   3   7   13.14    1.46
  -3   3   7   16.27    0.91
   2  -3  -7   18.09    0.99
   2  -3  -7   16.82    1.75
   2  -3  -7   20.79    1.15
  -2   3   7   19.75    1.32
  -2   3   7   15.60    1.57
   1  -3  -7    6.87    0.47
   1  -3  -7    7.08    0.68
   1  -3  -7    5.54    0.94
  -1   3   7    7.44    0.97
  -1   3   7    6.59    0.96
   0  -3  -7    0.43    0.32
   0  -3  -7    0.04    0.26
   0  -3  -7    0.35    0.23
   0   3   7    0.22    0.30
   0   3   7    0.06    0.25
   0   3   7    1.44    0.53
  -1  -3  -7   34.01    2.07
  -1  -3  -7   34.34    1.69
   1   3   7   34.76    1.97
   1   3   7   33.21    2.27
   1   3   7   31.48    2.35
  -2  -3  -7   24.50    1.63
   2   3   7   22.10    1.85
   2   3   7   24.85    2.15
   2   3   7   23.53    1.72
  -3  -3  -7   85.26    3.90
  -3  -3  -7   79.43    4.57
   3   3   7   85.07    4.38
   3   3   7   80.90    4.79
  -4  -3  -7    0.99    0.83
   4   3   7    0.67    0.67
   4   3   7    1.15    0.80
  -5  -3  -7    7.72    1.66
   5   3   7    8.27    1.58
   5   3   7    9.55    1.82
  -6  -3  -7    1.20    1.07
   6   3   7    0.77    0.92
   6   3   7    1.84    1.30
   7  -4  -7    9.90    1.93
  -7   4   7    8.87    1.73
   6  -4  -7   10.77    1.83
  -6   4   7    9.48    1.61
   5  -4  -7    2.39    0.95
  -5   4   7    5.03    1.12
   4  -4  -7   10.83    1.61
  -4   4   7   14.19    1.69
   3  -4  -7   27.93    2.25
  -3   4   7   26.03    2.02
  -3   4   7   30.88    1.60
   2  -4  -7   74.77    4.07
   2  -4  -7   74.80    3.12
  -2   4   7   66.82    3.80
  -2   4   7   76.98    3.62
   1  -4  -7   39.88    1.82
   1  -4  -7   42.06    2.60
  -1   4   7   37.07    2.36
  -1   4   7   36.89    2.43
   0  -4  -7   17.66    0.96
   0  -4  -7   16.96    1.67
   0   4   7   15.19    1.61
   0   4   7   17.20    1.79
   0   4   7   17.93    1.10
  -1  -4  -7    0.99    0.51
  -1  -4  -7    0.34    0.22
   1   4   7    0.33    0.33
   1   4   7   -0.17    0.36
   1   4   7    0.59    0.52
  -2  -4  -7   34.97    2.20
   2   4   7   35.60    2.74
   2   4   7   33.95    2.45
   2   4   7   37.97    2.30
  -3  -4  -7    4.28    1.09
  -3  -4  -7    4.52    0.77
   3   4   7    4.17    1.15
   3   4   7    6.67    1.09
  -4  -4  -7    4.62    1.15
   4   4   7    1.91    1.11
   4   4   7    4.10    0.97
  -5  -4  -7   10.12    1.93
   5   4   7   14.84    1.97
   5   4   7   14.31    2.38
  -6  -4  -7   26.07    3.14
   6   4   7   19.45    2.68
   6   4   7   22.74    3.08
   7  -5  -7   18.10    2.56
  -7   5   7   16.40    2.29
   6  -5  -7   31.93    3.28
  -6   5   7   30.33    2.56
   5  -5  -7   27.75    2.88
  -5   5   7   26.49    2.58
   4  -5  -7   30.29    2.56
  -4   5   7   35.73    2.57
   3  -5  -7    0.91    0.58
  -3   5   7    1.16    0.41
  -3   5   7    0.58    0.59
   2  -5  -7   10.81    1.47
  -2   5   7    9.00    1.12
  -2   5   7   10.01    1.35
   1  -5  -7    7.87    1.25
  -1   5   7    6.15    1.08
  -1   5   7    8.53    1.19
   0  -5  -7    1.05    0.52
   0  -5  -7    1.63    0.23
   0   5   7    1.89    0.35
   0   5   7    1.80    0.75
   0   5   7    1.67    0.68
  -1  -5  -7  173.74    7.78
   1   5   7  165.93    7.93
   1   5   7  173.67    8.20
   1   5   7  178.15    7.32
  -2  -5  -7    1.13    0.60
   2   5   7    1.12    0.68
   2   5   7    1.41    0.65
   2   5   7    1.41    0.57
  -3  -5  -7    1.08    0.56
  -3  -5  -7    0.20    0.65
   3   5   7    0.24    0.49
   3   5   7    2.02    0.85
  -4  -5  -7    0.31    0.54
   4   5   7    0.66    0.64
   4   5   7    0.61    0.72
  -5  -5  -7    9.18    1.80
   5   5   7    8.79    1.99
   5   5   7    5.21    1.36
   6  -6  -7    6.73    1.53
  -6   6   7    7.71    1.61
   5  -6  -7    7.50    1.52
  -5   6   7    8.54    1.55
   4  -6  -7    1.29    0.83
  -4   6   7   -0.31    0.56
   3  -6  -7   22.25    2.34
  -3   6   7   23.79    1.62
  -3   6   7   20.78    2.17
   2  -6  -7   30.95    2.37
  -2   6   7   29.84    2.07
  -2   6   7   29.37    2.24
   1  -6  -7    5.78    1.10
  -1   6   7    4.79    1.01
  -1   6   7    5.49    1.05
   0  -6  -7   13.06    1.65
   0   6   7   13.92    1.74
   0   6   7   17.02    0.89
   0   6   7   13.61    1.64
  -1  -6  -7    5.53    1.08
   1   6   7    3.92    0.96
   1   6   7    5.02    0.72
   1   6   7    5.78    1.26
  -2  -6  -7   16.23    1.76
   2   6   7   18.63    2.04
   2   6   7   18.20    2.24
   2   6   7   14.66    1.51
  -3  -6  -7    0.74    0.62
  -3  -6  -7    0.61    0.52
   3   6   7    0.36    0.57
   3   6   7    0.09    0.52
  -4  -6  -7    0.61    0.78
   4   6   7    0.25    0.65
   4   6   7    0.29    0.72
  -5  -6  -7    0.21    0.85
   5   6   7    2.44    1.43
   5   6   7    0.51    0.86
   6  -7  -7    1.65    1.06
  -6   7   7    1.88    1.11
   5  -7  -7   42.77    3.37
  -5   7   7   36.61    3.01
   4  -7  -7   -0.10    0.49
  -4   7   7    0.15    0.54
   3  -7  -7   10.31    1.66
  -3   7   7    6.32    1.30
  -3   7   7    8.17    1.13
   2  -7  -7   13.53    1.83
  -2   7   7   14.98    1.83
  -2   7   7   16.26    1.74
   1  -7  -7    0.83    0.61
  -1   7   7    0.66    0.60
  -1   7   7    0.78    0.62
   0  -7  -7    0.29    0.64
   0   7   7    0.76    0.55
   0   7   7    0.58    0.57
  -1  -7  -7   27.00    2.19
   1   7   7   24.45    2.67
   1   7   7   24.36    2.44
  -2  -7  -7    6.83    1.17
   2   7   7    4.77    0.87
   2   7   7    4.32    1.22
   2   7   7    7.98    1.37
  -3  -7  -7    8.56    1.37
   3   7   7    8.36    1.29
   3   7   7    8.14    1.72
  -4  -7  -7    4.48    1.43
   4   7   7    7.12    1.71
   4   7   7    7.35    1.42
  -5  -7  -7    3.75    1.43
   5   7   7    2.40    1.46
   5   7   7    5.75    1.41
   6  -8  -7    0.69    0.91
  -6   8   7    0.51    0.74
   5  -8  -7    0.32    0.64
  -5   8   7   -0.50    0.44
   4  -8  -7    0.04    0.74
  -4   8   7   -0.55    0.66
   3  -8  -7    1.49    0.79
  -3   8   7    1.69    0.76
  -3   8   7    1.98    0.83
   2  -8  -7    3.66    1.00
  -2   8   7    3.30    0.91
  -2   8   7    1.15    0.67
   1  -8  -7   -0.51    0.31
  -1   8   7    0.41    0.47
  -1   8   7    0.09    0.59
   0  -8  -7    2.68    0.92
   0   8   7    1.62    0.71
   0   8   7    1.11    0.74
  -1  -8  -7    0.14    0.51
   1   8   7    0.22    0.74
   1   8   7    0.55    0.60
  -2  -8  -7    0.77    0.69
   2   8   7    1.33    0.95
   2   8   7    0.42    0.79
  -3  -8  -7    1.36    0.83
   3   8   7    0.82    1.04
  -4  -8  -7   -0.38    0.80
   4   8   7    0.74    1.12
   5  -9  -7    9.79    1.86
  -5   9   7    7.11    1.59
   4  -9  -7    2.53    1.00
  -4   9   7    4.95    1.38
   3  -9  -7   -0.26    0.75
  -3   9   7    0.63    0.67
   2  -9  -7    5.34    1.32
  -2   9   7    5.08    1.15
  -2   9   7    3.08    1.08
   1  -9  -7    1.54    0.75
  -1   9   7    0.36    0.50
  -1   9   7    1.03    0.65
   0  -9  -7   31.68    3.04
   0   9   7   29.88    2.64
   0   9   7   32.94    2.67
  -1  -9  -7    7.48    1.48
   1   9   7    9.04    1.61
   1   9   7    7.88    1.64
  -2  -9  -7   10.16    1.71
   2   9   7   10.36    1.74
   2   9   7    5.73    1.47
  -3  -9  -7    3.13    1.18
   3   9   7    7.13    1.74
   5 -10  -7    7.83    1.96
  -5  10   7    6.52    1.61
   4 -10  -7    7.82    1.69
  -4  10   7    6.53    1.59
   3 -10  -7   22.81    2.79
  -3  10   7   22.30    2.70
   2 -10  -7    0.13    0.83
  -2  10   7    0.81    0.81
  -2  10   7    0.55    0.72
   1 -10  -7    5.50    1.34
  -1  10   7    5.62    1.34
  -1  10   7    4.78    1.16
   0 -10  -7    2.73    1.14
   0  10   7    1.26    0.90
   0  10   7    3.89    1.14
  -1 -10  -7   21.47    2.55
   1  10   7   16.65    2.47
   1  10   7   23.77    2.64
  -2 -10  -7   -0.35    0.70
   2  10   7    0.95    1.15
   2  10   7   -0.89    0.67
  -3 -10  -7    2.85    1.25
   3  10   7    1.51    1.24
   4 -11  -7    0.88    1.05
  -4  11   7   -0.22    0.87
   3 -11  -7   25.31    3.11
  -3  11   7   23.34    2.86
   2 -11  -7   15.06    2.39
  -2  11   7   17.85    2.37
  -2  11   7   16.86    2.28
   1 -11  -7    3.62    1.20
  -1  11   7    4.65    1.32
  -1  11   7    3.92    1.23
   0 -11  -7   29.93    3.14
   0  11   7   32.22    3.22
   0  11   7   27.09    3.19
  -1 -11  -7    7.44    1.68
   1  11   7    5.66    1.52
   1  11   7    4.61    1.41
  -2 -11  -7    0.00    0.85
   2  11   7    0.95    0.75
   2  11   7    1.58    1.26
   3 -12  -7   13.18    2.42
  -3  12   7   15.85    2.47
   2 -12  -7   17.79    2.65
  -2  12   7   17.22    2.41
  -2  12   7   16.90    2.39
   1 -12  -7    9.51    1.97
  -1  12   7   12.53    2.05
  -1  12   7   14.41    2.27
   0 -12  -7   -0.81    0.90
   0  12   7   -0.69    0.86
   0  12   7    0.70    0.64
   0  15  -8   -0.24    0.52
   0 -15   8    0.57    0.84
   0 -15   8    0.02    0.75
  -1  15  -8   11.92    1.92
   1 -15   8   12.34    2.26
   2  14  -8   12.30    2.08
  -2 -14   8   14.38    2.20
  -2 -14   8   13.40    2.41
   1  14  -8    0.83    0.94
  -1 -14   8    2.40    0.99
  -1 -14   8    2.83    1.06
   0  14  -8   15.29    2.09
   0 -14   8   13.71    2.15
   0 -14   8   17.36    2.31
  -1  14  -8    2.14    0.98
   1 -14   8    2.94    1.28
   1 -14   8    0.88    0.94
  -2  14  -8    3.51    1.17
   2 -14   8    4.17    1.23
   2 -14   8    3.20    1.24
  -3  14  -8    3.77    1.56
  -3  14  -8    3.83    1.17
   3 -14   8    2.76    1.31
   3  13  -8    4.39    1.40
  -3 -13   8    2.64    1.23
  -3 -13   8    8.16    1.95
   2  13  -8    6.04    1.56
  -2 -13   8    9.14    1.68
  -2 -13   8    4.04    1.40
   1  13  -8   -0.15    0.51
  -1 -13   8    0.37    0.68
  -1 -13   8    0.46    0.75
   0  13  -8   -0.69    0.63
   0 -13   8    0.13    0.60
   0 -13   8   -0.18    0.76
  -1  13  -8   21.33    2.36
   1 -13   8   23.72    2.71
   1 -13   8   19.60    2.40
  -2  13  -8    4.18    1.17
   2 -13   8    4.28    1.19
   2 -13   8    5.67    1.41
  -3  13  -8    1.63    0.84
  -3  13  -8    1.57    0.97
   3 -13   8    2.16    1.09
  -4  13  -8    7.77    1.73
   4 -13   8    5.85    1.53
   4  12  -8   23.10    2.92
  -4 -12   8   20.17    2.97
   3  12  -8   -0.24    0.77
  -3 -12   8    2.91    1.17
  -3 -12   8    1.32    1.03
   2  12  -8    0.39    0.61
  -2 -12   8    0.33    0.60
  -2 -12   8    0.45    0.75
   1  12  -8    6.61    1.40
  -1 -12   8    9.89    1.67
  -1 -12   8    7.48    1.57
   0  12  -8    4.07    1.04
   0 -12   8    4.96    1.22
   0 -12   8    2.87    1.11
  -1  12  -8    0.13    0.67
   1 -12   8   -0.15    0.77
   1 -12   8    0.31    0.68
  -2  12  -8    0.18    0.69
  -2  12  -8    1.71    0.77
   2 -12   8   -0.37    0.67
   2 -12   8    1.24    0.72
  -3  12  -8   28.21    2.81
   3 -12   8   24.45    2.81
  -4  12  -8    3.50    1.31
   4 -12   8    2.06    0.99
   4 -12   8    1.07    1.04
   4  11  -8    5.46    1.42
  -4 -11   8    6.07    1.64
   3  11  -8    0.18    0.80
  -3 -11   8    0.18    0.79
  -3 -11   8    0.55    0.96
   2  11  -8   13.77    1.87
  -2 -11   8   11.23    1.77
  -2 -11   8   14.11    2.13
   1  11  -8   -0.25    0.62
  -1 -11   8    0.15    0.65
  -1 -11   8    0.60    0.64
   0  11  -8   85.27    4.57
   0 -11   8   74.73    4.54
   0 -11   8   80.77    4.66
  -1  11  -8    1.16    0.61
  -1  11  -8    1.75    0.62
   1 -11   8    2.64    0.87
   1 -11   8    2.28    0.87
  -2  11  -8    3.75    0.99
   2 -11   8    4.27    1.07
   2 -11   8    2.15    0.86
  -3  11  -8   13.37    1.90
   3 -11   8   14.19    1.90
   3 -11   8    9.18    1.73
  -4  11  -8    1.06    0.84
   4 -11   8    0.34    0.90
   4 -11   8   -0.34    0.70
  -5  11  -8    5.80    1.73
   5 -11   8    3.89    1.33
   5 -11   8    9.42    1.88
   5  10  -8    5.21    1.66
  -5 -10   8    6.76    1.88
  -5 -10   8    6.28    1.53
   4  10  -8   14.76    2.19
  -4 -10   8   13.74    1.91
  -4 -10   8   14.35    2.37
   3  10  -8   -0.18    0.47
  -3 -10   8    0.81    0.62
  -3 -10   8   -0.40    0.65
  -3 -10   8    0.35    0.60
   2  10  -8   17.52    2.06
  -2 -10   8   19.81    2.34
  -2 -10   8   13.99    1.89
   1  10  -8   11.24    1.52
  -1 -10   8   14.04    1.89
  -1 -10   8   10.07    1.58
   0  10  -8    0.37    0.49
   0 -10   8    0.31    0.60
   0 -10   8   -0.16    0.61
  -1  10  -8   47.68    3.03
  -1  10  -8   47.26    2.75
   1 -10   8   47.79    3.08
   1 -10   8   47.76    3.30
  -2  10  -8   14.88    1.74
   2 -10   8   14.91    1.70
   2 -10   8   13.67    1.91
  -3  10  -8    2.93    1.07
   3 -10   8    3.41    1.12
   3 -10   8    3.44    0.98
  -4  10  -8    0.61    0.86
   4 -10   8    0.94    0.85
   4 -10   8    1.46    0.82
  -5  10  -8   24.64    2.93
   5 -10   8   20.60    2.57
   5 -10   8   18.97    2.50
   5   9  -8    2.87    1.27
  -5  -9   8    2.46    1.12
  -5  -9   8    3.28    1.34
   4   9  -8    1.47    0.85
  -4  -9   8    0.44    0.66
  -4  -9   8    0.70    0.63
   3   9  -8    6.43    1.31
  -3  -9   8    6.06    1.37
  -3  -9   8    3.42    0.92
  -3  -9   8    5.54    1.20
   2   9  -8    4.78    1.16
  -2  -9   8    5.97    1.24
  -2  -9   8    5.59    1.22
  -2  -9   8    5.24    0.88
   1   9  -8    8.91    1.31
  -1  -9   8   10.26    1.53
  -1  -9   8    6.86    1.27
   0   9  -8    1.89    0.48
   0   9  -8   -0.12    0.52
   0  -9   8    2.42    0.73
   0  -9   8    2.32    0.76
  -1   9  -8    3.34    0.88
  -1   9  -8    4.16    0.80
   1  -9   8    3.32    0.84
   1  -9   8    3.59    1.02
  -2   9  -8    1.76    0.70
   2  -9   8    1.75    0.61
   2  -9   8    0.72    0.52
   2  -9   8    0.28    0.48
  -3   9  -8    0.81    0.80
   3  -9   8    0.97    0.68
   3  -9   8    0.50    0.69
  -4   9  -8   -0.50    0.83
   4  -9   8    1.53    0.74
   4  -9   8    1.42    0.88
  -5   9  -8    5.27    1.41
   5  -9   8    3.10    1.06
   5  -9   8    4.20    1.18
  -6   9  -8    1.78    1.39
   6  -9   8   -0.37    0.76
   6  -9   8    1.50    0.92
   6   8  -8    3.08    1.45
  -6  -8   8    0.22    1.12
  -6  -8   8    0.59    1.02
   5   8  -8    0.21    0.71
  -5  -8   8    0.10    0.75
  -5  -8   8    0.34    0.86
   4   8  -8    2.25    0.98
  -4  -8   8    2.43    1.16
  -4  -8   8    1.93    0.83
   3   8  -8   10.01    1.51
  -3  -8   8   10.28    1.71
  -3  -8   8   11.04    1.47
   2   8  -8    9.14    1.44
  -2  -8   8    9.28    1.54
  -2  -8   8    9.74    1.44
  -2  -8   8   10.31    1.20
   1   8  -8   -0.30    0.30
  -1  -8   8   -0.07    0.39
  -1  -8   8    0.01    0.37
   0   8  -8    2.15    0.66
   0   8  -8    2.17    0.49
   0  -8   8    2.20    0.75
   0  -8   8    1.56    0.67
  -1   8  -8    1.92    0.63
   1  -8   8    0.84    0.53
   1  -8   8    2.67    0.71
  -2   8  -8   12.42    1.55
   2  -8   8   14.21    1.75
   2  -8   8   12.12    1.57
   2  -8   8   13.85    1.47
  -3   8  -8   11.56    1.63
   3  -8   8   14.86    1.83
   3  -8   8   11.56    1.65
   3  -8   8   13.21    1.50
  -4   8  -8    3.32    1.02
   4  -8   8    3.61    1.07
   4  -8   8    4.31    1.14
  -5   8  -8    6.62    1.60
   5  -8   8    5.62    1.40
   5  -8   8    8.06    1.65
  -6   8  -8    0.91    1.11
   6  -8   8    0.66    0.79
   6  -8   8   -0.03    0.64
   6   7  -8    6.91    1.69
  -6  -7   8    4.03    1.32
  -6  -7   8    9.03    2.06
   5   7  -8   -0.72    0.56
  -5  -7   8   -1.11    0.49
  -5  -7   8   -0.81    0.57
   4   7  -8   -0.53    0.56
  -4  -7   8    0.42    0.58
  -4  -7   8    0.43    0.73
   3   7  -8    4.76    1.14
  -3  -7   8    5.84    1.38
  -3  -7   8    6.83    1.15
   2   7  -8   11.64    1.45
  -2  -7   8   10.32    1.52
  -2  -7   8   12.04    1.54
   1   7  -8   12.97    1.46
  -1  -7   8    9.33    1.33
  -1  -7   8    9.69    1.37
   0   7  -8   12.03    1.40
   0   7  -8   11.11    0.93
   0  -7   8    8.40    1.25
   0  -7   8   11.83    1.54
  -1   7  -8    9.86    1.16
   1  -7   8    9.68    1.31
   1  -7   8   10.59    1.29
   1  -7   8   12.15    1.50
  -2   7  -8    5.26    1.04
   2  -7   8    3.66    0.94
   2  -7   8    5.38    1.04
   2  -7   8    5.28    0.87
  -3   7  -8   21.66    2.22
   3  -7   8   25.34    2.13
   3  -7   8   27.22    1.74
   3  -7   8   21.17    2.23
  -4   7  -8   -0.44    0.67
   4  -7   8    1.32    0.72
   4  -7   8    0.76    0.77
  -5   7  -8   20.73    2.57
   5  -7   8   21.96    2.54
   5  -7   8   19.85    2.31
  -6   7  -8    2.96    1.32
   6  -7   8    2.85    1.11
   6  -7   8    2.77    1.28
   6   6  -8   10.78    2.00
  -6  -6   8   12.71    2.17
  -6  -6   8   11.32    2.13
   5   6  -8   -0.38    0.70
  -5  -6   8    1.04    0.94
  -5  -6   8    0.87    0.66
   4   6  -8   -0.20    0.54
  -4  -6   8    0.07    0.42
  -4  -6   8   -0.71    0.55
   3   6  -8    0.38    0.60
  -3  -6   8    0.89    0.60
  -3  -6   8    0.72    0.71
   2   6  -8    0.18    0.49
  -2  -6   8    1.58    0.60
  -2  -6   8    0.39    0.50
   1   6  -8   12.42    0.63
   1   6  -8   11.80    0.77
   1   6  -8   10.95    1.31
  -1  -6   8   11.01    1.42
  -1  -6   8   10.69    1.41
   0   6  -8  126.62    5.98
   0   6  -8  132.18    5.59
   0  -6   8  129.68    6.15
   0  -6   8  131.75    6.11
  -1   6  -8    1.25    0.29
  -1   6  -8    0.89    0.46
   1  -6   8    0.23    0.44
   1  -6   8    1.41    0.55
   1  -6   8    0.68    0.49
  -2   6  -8   -0.02    0.42
   2  -6   8    1.05    0.52
   2  -6   8   -0.17    0.31
   2  -6   8    0.19    0.40
  -3   6  -8   23.86    2.35
   3  -6   8   23.96    1.54
   3  -6   8   22.03    2.23
   3  -6   8   27.59    2.05
  -4   6  -8    4.85    1.29
   4  -6   8    7.11    1.19
   4  -6   8    6.59    1.32
  -5   6  -8    1.22    0.80
   5  -6   8    2.35    1.03
   5  -6   8    0.43    0.63
  -6   6  -8   -0.75    0.99
   6  -6   8    0.80    0.73
   6  -6   8    1.18    0.89
   6   5  -8    0.76    0.73
  -6  -5   8   -0.35    0.77
  -6  -5   8    0.48    0.90
   5   5  -8    0.23    0.61
  -5  -5   8   -0.12    0.76
  -5  -5   8   -0.18    0.74
   4   5  -8    2.94    0.82
  -4  -5   8    1.43    0.67
  -4  -5   8    2.36    0.93
   3   5  -8    4.19    0.96
  -3  -5   8    4.74    0.94
  -3  -5   8    6.42    1.32
   2   5  -8   22.24    1.71
  -2  -5   8   22.90    1.92
  -2  -5   8   21.32    2.17
   1   5  -8   24.97    1.19
   1   5  -8   24.30    1.29
   1   5  -8   22.81    1.67
  -1  -5   8   19.52    1.73
  -1  -5   8   22.01    1.77
   0   5  -8    1.91    0.44
   0   5  -8    2.09    0.56
   0   5  -8    2.34    0.50
   0  -5   8    1.90    0.59
   0  -5   8    2.55    0.70
  -1   5  -8   50.52    2.72
   1  -5   8   50.61    2.73
   1  -5   8   45.93    2.86
   1  -5   8   49.45    2.89
  -2   5  -8   99.52    4.97
  -2   5  -8  103.55    4.30
   2  -5   8   98.87    4.98
   2  -5   8  103.23    4.53
   2  -5   8   97.20    5.03
  -3   5  -8   10.22    1.49
   3  -5   8    8.55    1.34
   3  -5   8   10.26    1.36
  -4   5  -8    2.99    0.94
   4  -5   8    2.15    0.78
   4  -5   8    2.57    0.83
  -5   5  -8    0.83    0.95
   5  -5   8    1.11    0.66
   5  -5   8    1.91    0.79
  -6   5  -8    1.63    1.16
   6  -5   8    2.07    1.07
   6  -5   8    2.77    0.92
   6   4  -8    0.93    0.94
  -6  -4   8    3.06    1.20
  -6  -4   8    0.29    1.03
   5   4  -8    4.58    1.23
  -5  -4   8    9.14    1.64
  -5  -4   8    6.48    1.38
   4   4  -8    1.31    0.65
  -4  -4   8    1.18    0.65
  -4  -4   8    1.45    0.77
   3   4  -8   90.64    4.39
  -3  -4   8   75.80    4.52
   2   4  -8   41.08    2.42
  -2  -4   8   39.50    2.61
  -2  -4   8   39.11    2.66
   1   4  -8    4.45    0.58
   1   4  -8    3.87    0.74
   1   4  -8    4.53    0.52
  -1  -4   8    2.70    0.69
  -1  -4   8    4.39    0.87
   0   4  -8   12.76    1.00
   0  -4   8   13.35    1.42
   0  -4   8   10.80    1.28
  -1   4  -8   32.42    2.01
   1  -4   8   32.08    2.14
   1  -4   8   33.07    2.00
   1  -4   8   32.20    2.14
  -2   4  -8    2.75    0.39
  -2   4  -8    2.15    0.72
   2  -4   8    3.35    0.55
   2  -4   8    2.47    0.76
   2  -4   8    2.37    0.62
  -3   4  -8   81.36    4.32
   3  -4   8   74.35    4.22
   3  -4   8   75.70    4.01
  -4   4  -8    1.32    0.86
   4  -4   8    0.65    0.54
   4  -4   8    1.76    0.68
  -5   4  -8    4.49    1.34
   5  -4   8    4.15    1.02
   5  -4   8    4.29    1.21
  -6   4  -8   -0.46    0.59
   6  -4   8    0.02    0.62
   6  -4   8   -0.47    0.61
   7   3  -8    0.07    0.97
  -7  -3   8    0.87    1.05
  -7  -3   8    2.69    1.09
   6   3  -8   -0.72    0.68
  -6  -3   8    1.19    0.99
  -6  -3   8    2.03    0.99
   5   3  -8    0.21    0.67
  -5  -3   8    0.87    0.89
  -5  -3   8   -0.02    0.75
   4   3  -8    3.27    0.87
  -4  -3   8    2.69    0.88
  -4  -3   8    1.18    0.77
   3   3  -8  130.90    6.17
   3   3  -8  132.18    5.51
  -3  -3   8  135.91    6.64
  -3  -3   8  136.25    5.52
   2   3  -8   53.62    2.94
   2   3  -8   57.66    2.45
   2   3  -8   56.69    2.61
  -2  -3   8   51.84    3.24
  -2  -3   8   54.44    2.56
   1   3  -8    2.96    0.46
   1   3  -8    3.39    0.62
  -1  -3   8    3.23    0.70
  -1  -3   8    3.82    0.82
   0   3  -8   -0.20    0.23
   0  -3   8   -0.15    0.36
   0  -3   8    0.12    0.28
   0  -3   8    1.00    0.50
  -1   3  -8    8.33    1.01
   1  -3   8    6.69    0.97
   1  -3   8    5.30    0.79
   1  -3   8    5.87    0.93
  -2   3  -8    2.37    0.35
  -2   3  -8    3.09    0.53
  -2   3  -8    3.42    0.41
  -2   3  -8    3.04    0.70
   2  -3   8    3.49    0.73
   2  -3   8    2.24    0.63
  -3   3  -8   52.06    3.18
   3  -3   8   46.24    3.00
   3  -3   8   48.75    2.80
  -4   3  -8  123.86    6.37
   4  -3   8  122.79    6.28
   4  -3   8  124.55    5.83
  -5   3  -8    5.49    1.32
   5  -3   8    2.51    0.82
   5  -3   8    3.91    1.16
  -6   3  -8    0.09    0.69
   6  -3   8    0.41    0.67
   7   2  -8    0.62    1.04
  -7  -2   8    0.29    0.85
  -7  -2   8   -0.19    0.56
   6   2  -8    1.49    0.91
  -6  -2   8    3.04    1.16
  -6  -2   8    2.39    1.07
   5   2  -8    2.35    0.84
  -5  -2   8    2.58    0.91
  -5  -2   8    3.31    1.06
   4   2  -8    3.98    0.91
  -4  -2   8    5.27    0.71
  -4  -2   8    4.51    1.11
   3   2  -8    3.92    0.57
   3   2  -8    3.82    0.61
   3   2  -8    4.41    0.86
  -3  -2   8    4.22    0.61
  -3  -2   8    2.77    0.93
   2   2  -8    0.70    0.31
   2   2  -8    0.49    0.37
  -2  -2   8    0.51    0.57
  -2  -2   8    0.33    0.25
   1   2  -8   23.74    1.51
  -1  -2   8   22.20    1.42
  -1  -2   8   25.24    1.85
  -1  -2   8   19.43    1.65
   0   2  -8    2.54    0.54
   0  -2   8    2.82    0.58
   0  -2   8    4.10    0.73
   0  -2   8    3.18    0.70
  -1   2  -8    5.23    0.81
   1  -2   8    3.78    0.76
   1  -2   8    5.89    0.98
   1  -2   8    6.71    0.91
   1  -2   8    5.39    0.77
  -2   2  -8    3.24    0.40
  -2   2  -8    3.58    0.80
  -2   2  -8    3.71    0.57
   2  -2   8    2.63    0.62
   2  -2   8    2.13    0.60
   2  -2   8    2.27    0.83
  -3   2  -8   10.54    1.48
   3  -2   8    9.78    1.38
   3  -2   8   15.97    1.47
   3  -2   8   12.26    1.75
  -4   2  -8   11.97    1.69
   4  -2   8    8.80    1.46
   4  -2   8   11.08    1.73
   4  -2   8   11.23    1.27
  -5   2  -8    1.78    1.04
   5  -2   8    0.65    0.64
   5  -2   8    1.70    0.68
   5  -2   8    1.21    0.75
  -6   2  -8    0.02    0.91
   6  -2   8    1.10    0.84
   7   1  -8    2.29    1.10
  -7  -1   8    1.23    1.12
   6   1  -8    4.44    1.18
  -6  -1   8    5.25    1.28
   5   1  -8    0.21    0.52
  -5  -1   8    0.90    0.84
  -5  -1   8    0.46    0.45
   4   1  -8   29.90    2.15
  -4  -1   8   31.06    2.50
  -4  -1   8   32.07    1.92
   3   1  -8    3.49    0.72
   3   1  -8    4.02    0.51
  -3  -1   8    4.23    0.68
  -3  -1   8    3.18    0.93
   2   1  -8    6.41    0.79
   2   1  -8    6.38    0.83
  -2  -1   8    5.80    1.03
  -2  -1   8    3.80    0.64
   1   1  -8    4.65    0.66
  -1  -1   8    5.47    0.78
  -1  -1   8    4.70    0.88
   0  -1   8   39.45    2.26
   0  -1   8   43.15    2.50
   0  -1   8   36.23    2.19
   0  -1   8   41.44    2.35
   0  -1   8   39.56    2.37
  -1   1  -8    3.73    0.56
  -1   1  -8    2.86    0.68
   1  -1   8    2.90    0.68
   1  -1   8    3.05    0.82
   1  -1   8    2.68    0.60
  -2   1  -8   35.74    1.97
  -2   1  -8   31.88    2.30
  -2   1  -8   36.97    1.73
   2  -1   8   34.56    2.29
   2  -1   8   34.49    2.53
   2  -1   8   32.70    1.99
  -3   1  -8   -0.03    0.49
   3  -1   8    0.65    0.48
   3  -1   8   -0.19    0.59
   3  -1   8    0.37    0.39
  -4   1  -8    0.02    0.63
   4  -1   8    0.34    0.51
   4  -1   8    0.39    0.61
   4  -1   8    0.23    0.38
  -5   1  -8    1.04    0.75
   5  -1   8    3.67    1.25
   5  -1   8    3.54    1.05
  -6   1  -8   14.03    2.28
   6  -1   8   11.03    1.97
   6  -1   8   11.71    2.07
   7   0  -8    5.71    1.47
   6   0  -8    0.59    0.67
  -6   0   8    2.52    1.12
   5   0  -8    0.61    0.58
  -5   0   8   -0.13    0.39
  -5   0   8   -0.13    0.41
   4   0  -8    0.19    0.40
  -4   0   8   -0.14    0.39
  -4   0   8    0.85    0.51
   3   0  -8   22.58    1.57
   3   0  -8   23.34    1.19
  -3   0   8   23.59    1.61
  -3   0   8   26.04    2.09
   2   0  -8    8.95    0.92
   2   0  -8   10.49    1.01
  -2   0   8    8.76    1.02
  -2   0   8    6.47    1.13
   1   0  -8    8.75    0.87
  -1   0   8    8.76    1.05
  -1   0   8    9.44    1.08
  -1   0   8    9.02    1.21
   0   0  -8   64.83    3.27
   0   0   8   66.58    3.35
   0   0   8   62.73    3.18
   0   0   8   64.45    3.46
  -1   0  -8    0.92    0.35
   1   0   8    0.52    0.35
   1   0   8    0.79    0.36
   1   0   8    0.45    0.39
  -2   0  -8    0.01    0.21
  -2   0  -8   -0.59    0.21
   2   0   8    0.47    0.43
   2   0   8   -0.26    0.55
   2   0   8    0.01    0.27
  -3   0  -8   27.01    2.21
   3   0   8   33.52    1.78
   3   0   8   21.99    2.41
   3   0   8   27.14    2.10
  -4   0  -8    0.41    0.53
   4   0   8   -0.46    0.41
   4   0   8    0.04    0.43
  -5   0  -8    8.91    1.63
   5   0   8    9.01    1.66
   5   0   8    8.95    1.83
  -6   0  -8    0.02    1.00
   6   0   8   -1.40    0.72
   6   0   8   -0.53    0.55
   7  -1  -8    1.38    1.00
   7  -1  -8    1.41    1.10
   6  -1  -8    0.67    0.72
  -6   1   8    0.33    0.62
   5  -1  -8    4.17    0.89
  -5   1   8    4.70    0.93
   4  -1  -8   12.96    1.38
  -4   1   8   13.05    1.81
  -4   1   8   14.70    1.51
   3  -1  -8   53.15    2.70
  -3   1   8   51.79    2.87
  -3   1   8   50.61    3.29
   2  -1  -8    0.05    0.21
   2  -1  -8    0.29    0.29
  -2   1   8    0.18    0.27
  -2   1   8   -0.02    0.26
   1  -1  -8    3.00    0.47
   1  -1  -8    2.67    0.65
  -1   1   8    3.13    0.68
  -1   1   8    4.71    0.76
   0  -1  -8    4.26    0.77
   0   1   8    3.73    0.63
   0   1   8    3.39    0.75
   0   1   8    4.24    0.86
  -1  -1  -8   -0.13    0.28
   1   1   8   -0.34    0.37
   1   1   8    0.32    0.37
   1   1   8   -0.17    0.18
  -2  -1  -8    2.35    0.48
  -2  -1  -8    1.70    0.44
  -2  -1  -8    0.89    0.51
   2   1   8    2.00    0.45
   2   1   8    1.88    0.77
   2   1   8    2.34    0.65
  -3  -1  -8   34.79    2.56
  -3  -1  -8   32.59    1.71
   3   1   8   30.02    2.60
   3   1   8   32.19    2.33
   3   1   8   36.53    1.81
  -4  -1  -8    1.15    0.65
   4   1   8    0.50    0.82
   4   1   8    1.60    0.82
  -5  -1  -8    1.19    0.99
   5   1   8    0.70    0.84
   5   1   8    1.64    1.05
  -6  -1  -8    0.04    0.76
   6   1   8   -0.63    0.90
   6   1   8    0.04    1.04
   7  -2  -8    1.48    1.05
   6  -2  -8    0.34    0.78
   6  -2  -8   -0.05    0.57
  -6   2   8    0.11    0.54
   5  -2  -8   10.54    1.35
   5  -2  -8    6.32    1.35
  -5   2   8    7.91    1.24
   4  -2  -8    2.90    0.93
   4  -2  -8    2.68    0.63
  -4   2   8    1.98    0.69
   3  -2  -8   26.58    2.16
   3  -2  -8   26.13    1.58
  -3   2   8   26.19    1.90
   2  -2  -8   16.62    1.06
   2  -2  -8   14.81    1.66
  -2   2   8   16.74    1.23
  -2   2   8   17.43    1.44
   1  -2  -8    2.40    0.65
   1  -2  -8    2.11    0.39
  -1   2   8    1.92    0.61
  -1   2   8    2.10    0.58
   0  -2  -8    0.47    0.46
   0   2   8    0.02    0.27
   0   2   8   -0.33    0.22
   0   2   8   -0.32    0.36
  -1  -2  -8   17.42    1.26
  -1  -2  -8   14.54    1.41
   1   2   8   15.28    1.62
   1   2   8   15.93    1.76
   1   2   8   14.92    1.26
  -2  -2  -8   15.46    1.20
  -2  -2  -8   14.35    1.69
   2   2   8   14.37    1.52
   2   2   8   17.04    2.00
  -3  -2  -8    0.00    0.53
  -3  -2  -8    0.47    0.30
   3   2   8    0.15    0.61
   3   2   8    0.90    0.62
  -4  -2  -8   91.27    5.27
   4   2   8   94.89    5.46
   4   2   8   86.22    4.94
  -5  -2  -8    7.99    1.73
   5   2   8    5.70    1.50
   5   2   8    7.00    1.44
  -6  -2  -8    1.29    0.99
   6   2   8    1.00    0.86
   6   2   8    2.21    1.13
   7  -3  -8    0.07    0.66
   6  -3  -8    1.64    0.87
  -6   3   8    1.77    0.79
   5  -3  -8   17.75    2.40
   5  -3  -8   17.94    2.32
  -5   3   8   17.86    1.97
   4  -3  -8   10.25    1.65
   4  -3  -8   10.03    1.07
  -4   3   8   12.20    1.53
   3  -3  -8    0.09    0.27
   3  -3  -8    0.30    0.60
  -3   3   8   -0.10    0.24
  -3   3   8    0.27    0.41
   2  -3  -8   45.89    2.97
   2  -3  -8   46.90    2.12
   2  -3  -8   47.74    2.33
  -2   3   8   49.77    2.58
  -2   3   8   44.02    2.74
   1  -3  -8   41.00    1.87
   1  -3  -8   38.88    2.61
   1  -3  -8   41.48    2.08
  -1   3   8   45.38    2.57
  -1   3   8   39.75    2.56
   0  -3  -8    0.37    0.37
   0  -3  -8    0.02    0.25
   0   3   8    0.32    0.29
   0   3   8   -0.34    0.41
   0   3   8    0.10    0.47
  -1  -3  -8   65.98    3.53
  -1  -3  -8   73.52    3.66
   1   3   8   68.42    3.99
   1   3   8   63.43    3.75
   1   3   8   70.19    3.43
  -2  -3  -8    5.61    0.89
   2   3   8    2.36    0.87
   2   3   8    5.27    0.95
  -3  -3  -8    4.76    1.08
  -3  -3  -8    5.96    0.83
   3   3   8    5.95    1.41
   3   3   8    6.11    1.14
  -4  -3  -8   15.05    2.14
   4   3   8   15.86    2.27
   4   3   8   15.06    1.90
  -5  -3  -8    0.47    0.89
   5   3   8    0.02    0.66
   5   3   8    2.64    1.02
  -6  -3  -8    0.57    0.86
   6   3   8   -0.60    0.92
   6   3   8   -0.54    0.99
   6  -4  -8    8.71    1.86
  -6   4   8   11.88    1.81
   5  -4  -8    1.37    0.79
  -5   4   8    2.44    0.89
   4  -4  -8   43.43    3.28
  -4   4   8   49.46    3.06
   3  -4  -8    1.96    0.87
  -3   4   8    0.60    0.46
  -3   4   8    0.68    0.37
   2  -4  -8   56.62    3.43
  -2   4   8   52.23    3.19
  -2   4   8   54.53    2.94
   1  -4  -8   27.64    2.14
  -1   4   8   29.37    2.06
  -1   4   8   26.50    2.03
   0  -4  -8  158.96    7.21
   0   4   8  160.46    6.55
   0   4   8  154.09    7.34
   0   4   8  155.22    7.30
  -1  -4  -8    4.06    0.82
   1   4   8    3.53    0.99
   1   4   8    3.43    0.92
   1   4   8    4.42    0.75
  -2  -4  -8    6.43    1.02
   2   4   8    8.28    1.38
   2   4   8    7.31    1.46
   2   4   8    7.19    1.04
  -3  -4  -8    6.99    1.33
  -3  -4  -8    7.21    1.02
   3   4   8    4.97    1.32
   3   4   8    6.21    1.16
  -4  -4  -8   15.32    2.13
   4   4   8   15.10    1.94
   4   4   8   14.29    2.42
  -5  -4  -8    2.20    1.14
   5   4   8    2.93    1.13
   5   4   8    3.24    1.25
   6  -5  -8   10.23    1.93
  -6   5   8    4.91    1.29
   5  -5  -8    0.89    0.93
  -5   5   8    0.67    0.75
   4  -5  -8    0.44    0.60
  -4   5   8    0.72    0.66
   3  -5  -8   16.40    1.99
  -3   5   8   15.51    1.81
  -3   5   8   17.23    1.30
   2  -5  -8   19.05    2.09
  -2   5   8   17.47    1.90
  -2   5   8   16.73    1.66
   1  -5  -8   19.38    2.00
  -1   5   8   18.66    1.90
  -1   5   8   16.39    1.83
   0  -5  -8    7.45    1.25
   0   5   8    7.96    1.35
   0   5   8    7.89    0.76
   0   5   8    8.09    1.28
  -1  -5  -8   17.49    1.84
   1   5   8   15.28    1.96
   1   5   8   16.49    1.88
   1   5   8   19.08    1.35
  -2  -5  -8   19.90    1.88
   2   5   8   15.47    1.98
   2   5   8   15.96    2.17
   2   5   8   19.99    1.57
  -3  -5  -8    4.89    1.21
  -3  -5  -8    2.40    0.72
   3   5   8    2.43    0.81
   3   5   8    4.10    1.27
  -4  -5  -8   14.76    2.22
   4   5   8   11.58    1.74
   4   5   8    9.52    2.00
  -5  -5  -8   12.14    2.14
   5   5   8    7.63    1.60
   5   5   8   10.52    2.22
   6  -6  -8    0.35    0.77
  -6   6   8    0.40    0.64
   5  -6  -8    4.22    1.25
  -5   6   8    5.15    1.20
   4  -6  -8    2.71    1.11
  -4   6   8    2.49    0.95
   3  -6  -8    1.12    0.70
  -3   6   8   -0.04    0.42
   2  -6  -8    0.32    0.51
  -2   6   8    0.39    0.58
  -2   6   8    0.19    0.44
   1  -6  -8    2.79    0.85
  -1   6   8    2.28    0.80
  -1   6   8    0.99    0.61
   0  -6  -8    9.71    1.41
   0   6   8    9.11    1.44
   0   6   8   11.43    1.68
  -1  -6  -8    5.52    1.13
   1   6   8    7.54    1.35
   1   6   8    6.67    1.41
   1   6   8    8.01    0.92
  -2  -6  -8    1.01    0.66
   2   6   8    1.66    0.60
   2   6   8    2.92    0.93
   2   6   8    1.83    0.81
  -3  -6  -8    2.32    0.75
  -3  -6  -8    3.30    1.09
   3   6   8    3.24    0.84
   3   6   8    1.55    1.03
  -4  -6  -8    0.70    0.89
   4   6   8    0.40    0.74
   4   6   8    0.20    0.96
  -5  -6  -8   -1.08    0.77
   5   6   8    0.64    1.14
   5   6   8    0.50    0.83
   6  -7  -8    0.59    1.07
  -6   7   8    1.58    1.06
   5  -7  -8   -0.05    0.87
  -5   7   8   -1.10    0.66
   4  -7  -8    8.64    1.64
  -4   7   8    8.80    1.61
   3  -7  -8   18.45    2.26
  -3   7   8   15.99    2.04
   2  -7  -8   16.74    2.13
  -2   7   8   13.85    1.89
  -2   7   8   17.98    1.92
   1  -7  -8   -0.12    0.63
  -1   7   8   -0.59    0.47
  -1   7   8    0.47    0.59
   0  -7  -8    0.80    0.67
   0   7   8    0.26    0.70
   0   7   8   -1.48    0.36
  -1  -7  -8   -0.06    0.44
   1   7   8    0.03    0.71
   1   7   8    0.68    0.59
  -2  -7  -8    0.10    0.58
   2   7   8   -0.52    0.47
   2   7   8    0.66    0.79
  -3  -7  -8    0.43    0.62
   3   7   8    1.04    1.06
  -4  -7  -8    1.74    0.90
   4   7   8    0.65    1.08
   5  -8  -8   12.70    2.15
  -5   8   8    9.26    1.87
   4  -8  -8    8.92    1.89
  -4   8   8    9.23    1.68
   3  -8  -8   -0.11    0.53
  -3   8   8   -0.22    0.49
   2  -8  -8    2.05    0.86
  -2   8   8    2.96    0.92
  -2   8   8    4.22    1.05
   1  -8  -8    0.41    0.52
  -1   8   8    0.28    0.64
  -1   8   8   -0.02    0.63
   0  -8  -8    2.35    0.94
   0   8   8    3.12    1.01
   0   8   8    1.30    0.81
  -1  -8  -8    6.63    1.39
   1   8   8    7.10    1.50
   1   8   8    5.86    1.30
  -2  -8  -8    5.89    1.25
   2   8   8    5.03    1.56
   2   8   8    5.39    1.35
  -3  -8  -8    5.46    1.35
   3   8   8    4.51    1.42
  -4  -8  -8    0.57    1.08
   4   8   8    1.34    0.95
   5  -9  -8    0.67    0.91
  -5   9   8   -0.38    0.53
   4  -9  -8    0.93    0.84
  -4   9   8   -1.14    0.68
   3  -9  -8    0.21    0.66
  -3   9   8    0.24    0.55
   2  -9  -8   43.08    3.27
  -2   9   8   39.80    2.96
  -2   9   8   38.46    3.10
   1  -9  -8    0.01    0.55
  -1   9   8    0.19    0.52
  -1   9   8    0.80    0.79
   0  -9  -8   21.75    2.54
   0   9   8   22.96    2.68
   0   9   8   19.39    2.39
  -1  -9  -8    1.32    0.92
   1   9   8    2.50    0.90
  -2  -9  -8    0.54    0.66
   2   9   8    0.96    0.92
   2   9   8    1.90    1.06
   3   9   8    0.35    1.11
   4 -10  -8    4.80    1.44
  -4  10   8    1.89    1.24
   3 -10  -8    1.66    1.11
  -3  10   8    0.60    0.90
   2 -10  -8    7.55    1.68
  -2  10   8    7.92    1.54
  -2  10   8    5.63    1.34
   1 -10  -8    4.78    1.32
  -1  10   8    4.38    1.34
  -1  10   8    6.23    1.47
   0 -10  -8    1.72    0.92
   0  10   8    1.47    0.87
   0  10   8    2.43    0.94
  -1 -10  -8   -0.62    0.57
   1  10   8   -0.24    0.49
   1  10   8    1.68    0.95
  -2 -10  -8    1.26    0.95
   2  10   8    1.55    1.19
   2  10   8   -0.16    0.96
   3 -11  -8    5.48    1.62
  -3  11   8    5.78    1.55
   2 -11  -8   -1.19    0.80
  -2  11   8   -0.26    0.97
  -2  11   8    0.22    0.62
   1 -11  -8    6.85    1.58
  -1  11   8    5.63    1.51
  -1  11   8    6.06    1.43
   0 -11  -8   26.75    3.02
   0  11   8   26.79    3.09
   0  11   8   30.21    3.43
  -1 -11  -8    2.34    1.15
   1  11   8    0.42    0.97
   1  11   8    1.20    1.00
   1  14  -9   -0.44    0.85
  -1 -14   9   -0.03    0.67
  -1 -14   9   -0.24    0.57
   0  14  -9    9.19    1.72
   0 -14   9    7.03    1.61
   0 -14   9    8.43    1.70
  -1  14  -9    3.26    1.06
   1 -14   9    3.03    1.31
   1 -14   9    1.96    1.09
  -2  14  -9    0.57    0.93
   2 -14   9    0.39    0.82
   3  13  -9    0.35    1.10
  -3 -13   9   -0.57    0.56
  -3 -13   9    1.52    1.38
   2  13  -9    1.51    1.03
  -2 -13   9    0.41    1.08
  -2 -13   9    1.67    0.98
   1  13  -9    0.60    0.87
  -1 -13   9    0.21    0.84
  -1 -13   9    1.08    0.95
   0  13  -9   14.76    1.95
   0 -13   9   12.29    1.99
   0 -13   9   10.87    1.89
  -1  13  -9   12.07    1.79
   1 -13   9    8.24    1.75
   1 -13   9    9.75    1.72
  -2  13  -9   12.91    1.93
   2 -13   9   17.07    2.15
   2 -13   9   14.71    2.35
  -3  13  -9    6.84    1.64
  -3  13  -9    7.01    1.52
   3 -13   9    7.47    1.69
   3  12  -9    1.55    1.03
  -3 -12   9    2.84    1.30
  -3 -12   9    3.33    1.22
   2  12  -9    1.91    1.12
  -2 -12   9    2.09    0.94
  -2 -12   9    4.69    1.19
   1  12  -9   10.10    1.65
  -1 -12   9   11.30    1.93
  -1 -12   9    6.17    1.45
   0  12  -9    3.52    1.13
   0 -12   9    3.66    1.21
   0 -12   9    3.81    1.10
  -1  12  -9   20.18    2.29
   1 -12   9   19.16    2.27
   1 -12   9   15.32    2.15
  -2  12  -9    7.63    1.56
  -2  12  -9    4.36    1.21
   2 -12   9    3.99    1.21
   2 -12   9    4.55    1.14
  -3  12  -9   -0.70    0.66
   3 -12   9    0.79    0.88
  -4  12  -9   19.13    2.61
   4 -12   9   16.92    2.45
   4 -12   9   14.58    2.27
   4  11  -9    1.94    1.00
  -4 -11   9    3.82    1.53
   3  11  -9    1.87    0.89
  -3 -11   9    1.43    0.81
  -3 -11   9    1.17    1.05
   2  11  -9   13.38    1.95
  -2 -11   9   14.07    2.17
  -2 -11   9   11.12    1.75
   1  11  -9    2.12    0.92
  -1 -11   9    0.66    0.86
  -1 -11   9    0.03    0.69
   0  11  -9   47.29    3.12
   0 -11   9   38.57    3.08
   0 -11   9   49.44    3.35
  -1  11  -9    2.97    0.98
   1 -11   9    3.69    1.19
   1 -11   9    2.41    0.83
  -2  11  -9    3.72    1.01
   2 -11   9    3.60    1.27
   2 -11   9    4.81    1.11
  -3  11  -9    2.64    1.00
   3 -11   9    1.81    0.89
   3 -11   9    0.65    0.81
  -4  11  -9    2.93    1.12
   4 -11   9    1.62    0.96
   4 -11   9    5.19    1.47
  -5  11  -9   -0.08    0.98
   5 -11   9    0.08    0.78
   5 -11   9   -0.31    0.89
   4  10  -9    1.52    1.00
  -4 -10   9   -0.52    0.63
   3  10  -9   -0.30    0.55
  -3 -10   9   -0.47    0.44
  -3 -10   9   -0.78    0.36
   2  10  -9   18.71    2.26
  -2 -10   9   19.77    2.47
  -2 -10   9   18.99    2.25
   1  10  -9   12.72    1.74
  -1 -10   9    9.23    1.60
  -1 -10   9   11.28    1.78
   0  10  -9   -0.43    0.59
   0 -10   9    0.26    0.50
   0 -10   9    0.26    0.68
  -1  10  -9    0.49    0.49
  -1  10  -9    1.19    0.61
   1 -10   9    0.35    0.70
   1 -10   9    0.86    0.62
  -2  10  -9    5.82    1.21
   2 -10   9    2.63    1.02
   2 -10   9    4.12    0.98
  -3  10  -9    3.02    1.08
   3 -10   9    4.62    1.14
   3 -10   9    3.11    1.09
  -4  10  -9   10.82    1.93
   4 -10   9   12.76    2.02
   4 -10   9   12.16    1.92
  -5  10  -9   13.86    2.39
   5 -10   9   17.15    2.45
   5 -10   9   18.79    2.52
   5   9  -9    2.47    1.23
  -5  -9   9    6.52    1.70
  -5  -9   9    3.33    1.19
   4   9  -9    5.61    1.34
  -4  -9   9    9.48    1.85
  -4  -9   9    9.54    1.56
   3   9  -9    0.68    0.84
  -3  -9   9    0.59    0.63
  -3  -9   9   -0.27    0.51
   2   9  -9    5.48    1.20
  -2  -9   9    4.76    1.27
  -2  -9   9    2.93    1.01
   1   9  -9    6.02    1.19
  -1  -9   9    9.68    1.59
  -1  -9   9    9.61    1.49
   0   9  -9    3.16    0.97
   0   9  -9    4.92    0.85
   0  -9   9    5.44    1.09
   0  -9   9    3.68    1.09
  -1   9  -9    0.62    0.66
  -1   9  -9    3.09    0.76
   1  -9   9    1.56    0.87
   1  -9   9    1.55    0.69
  -2   9  -9    1.02    0.70
   2  -9   9    1.42    0.81
   2  -9   9    1.73    0.66
   2  -9   9    1.72    0.83
  -3   9  -9   -0.07    0.44
   3  -9   9    1.24    0.64
   3  -9   9   -0.02    0.46
  -4   9  -9    1.64    0.98
   4  -9   9    2.14    0.96
   4  -9   9    1.82    0.84
  -5   9  -9    2.05    0.99
   5  -9   9    1.67    0.85
   5  -9   9    3.23    1.11
   5   8  -9    4.25    1.43
  -5  -8   9    2.08    1.04
  -5  -8   9    3.78    1.48
   4   8  -9    0.39    0.62
  -4  -8   9    0.95    0.78
  -4  -8   9    0.05    0.62
   3   8  -9    3.85    1.04
  -3  -8   9    3.84    0.94
  -3  -8   9    4.77    1.34
   2   8  -9    3.99    0.95
  -2  -8   9    3.45    0.94
  -2  -8   9    4.30    1.12
   1   8  -9    4.40    1.00
  -1  -8   9    4.43    1.01
  -1  -8   9    5.19    1.12
   0   8  -9   15.45    1.15
   0   8  -9   18.51    1.86
   0  -8   9   15.27    1.82
   0  -8   9   17.78    1.95
  -1   8  -9    0.59    0.51
   1  -8   9    0.96    0.58
   1  -8   9    1.13    0.63
  -2   8  -9    1.66    0.71
   2  -8   9    1.12    0.67
   2  -8   9    1.02    0.51
   2  -8   9    1.98    0.86
  -3   8  -9    1.78    0.93
   3  -8   9    1.45    0.73
   3  -8   9    2.45    0.82
  -4   8  -9    7.33    1.52
   4  -8   9    6.56    1.37
   4  -8   9    5.40    1.20
  -5   8  -9    0.29    0.91
   5  -8   9    0.98    0.73
   5  -8   9    1.31    1.02
  -6   8  -9    5.82    1.80
   6  -8   9    5.53    1.48
   6  -8   9    3.56    1.21
   6   7  -9    1.09    1.03
  -6  -7   9   -0.61    0.82
  -6  -7   9    0.68    0.99
   5   7  -9    6.34    1.59
  -5  -7   9    4.46    1.50
  -5  -7   9    5.89    1.45
   4   7  -9    0.65    0.62
  -4  -7   9    0.72    0.99
  -4  -7   9    0.59    0.67
   3   7  -9    2.54    0.86
  -3  -7   9    3.02    1.00
   2   7  -9    4.34    1.02
  -2  -7   9    3.95    0.95
  -2  -7   9    2.54    0.94
   1   7  -9   22.21    2.12
  -1  -7   9   27.28    2.14
  -1  -7   9   27.11    2.22
   0   7  -9    8.03    1.17
   0   7  -9    7.68    0.88
   0  -7   9    7.10    1.20
   0  -7   9    7.45    1.26
  -1   7  -9    6.84    1.01
   1  -7   9    8.15    1.29
   1  -7   9    7.99    1.18
   1  -7   9    6.95    1.23
  -2   7  -9   25.64    2.10
   2  -7   9   25.98    2.15
   2  -7   9   28.30    1.91
   2  -7   9   28.62    2.21
  -3   7  -9   -0.27    0.64
   3  -7   9    1.36    0.69
   3  -7   9    0.76    0.51
  -4   7  -9    1.15    0.82
   4  -7   9    0.22    0.66
   4  -7   9    0.32    0.80
  -5   7  -9   -0.67    0.78
   5  -7   9    1.99    1.10
   5  -7   9    0.02    0.69
  -6   7  -9    4.42    1.60
   6  -7   9    4.81    1.34
   6  -7   9    3.26    1.34
   6   6  -9    0.37    0.73
  -6  -6   9   -0.09    0.61
  -6  -6   9    0.22    0.93
   5   6  -9   17.82    2.37
  -5  -6   9   17.26    2.24
  -5  -6   9   18.13    2.55
   4   6  -9   -0.33    0.38
  -4  -6   9    1.10    0.63
  -4  -6   9   -0.29    0.48
   3   6  -9   19.82    2.07
  -3  -6   9   20.56    2.44
   2   6  -9   68.03    3.73
  -2  -6   9   68.59    4.07
  -2  -6   9   64.90    3.88
   1   6  -9   -0.02    0.39
   1   6  -9    0.19    0.19
  -1  -6   9    0.27    0.44
  -1  -6   9    0.18    0.43
   0   6  -9    0.29    0.34
   0   6  -9    0.05    0.42
   0  -6   9    0.13    0.45
   0  -6   9    0.41    0.54
  -1   6  -9    4.70    0.84
   1  -6   9    3.45    0.87
   1  -6   9    5.18    0.99
   1  -6   9    5.22    0.93
  -2   6  -9    9.46    1.32
   2  -6   9    8.21    1.27
   2  -6   9    6.72    1.21
   2  -6   9    7.29    0.97
  -3   6  -9    8.08    1.40
   3  -6   9    8.47    1.37
   3  -6   9    8.22    1.44
  -4   6  -9   14.44    1.99
   4  -6   9   13.64    1.93
   4  -6   9   12.29    1.69
  -5   6  -9   10.26    1.85
   5  -6   9    9.71    1.60
   5  -6   9   11.94    1.93
  -6   6  -9    3.23    1.30
   6  -6   9    2.77    1.10
   6  -6   9    4.47    1.28
   6   5  -9    2.55    1.19
  -6  -5   9    1.46    1.02
  -6  -5   9    0.56    1.03
   5   5  -9   10.59    1.76
  -5  -5   9   10.48    1.96
  -5  -5   9   11.79    1.78
   4   5  -9    5.65    1.13
  -4  -5   9    4.10    1.01
  -4  -5   9    2.80    0.97
   3   5  -9    1.87    0.76
  -3  -5   9    2.94    0.97
   2   5  -9  109.63    5.47
  -2  -5   9  114.21    5.78
  -2  -5   9  120.38    5.94
   1   5  -9   24.42    1.80
   1   5  -9   24.73    1.34
  -1  -5   9   25.25    2.02
  -1  -5   9   25.19    2.06
   0   5  -9    2.00    0.66
   0   5  -9    1.69    0.49
   0  -5   9    2.40    0.74
   0  -5   9    1.49    0.65
  -1   5  -9   59.50    3.25
   1  -5   9   59.06    3.44
   1  -5   9   65.11    3.34
   1  -5   9   62.80    3.50
  -2   5  -9   13.16    1.56
   2  -5   9   11.45    1.56
   2  -5   9   13.40    1.13
   2  -5   9   15.38    1.69
  -3   5  -9    3.86    1.03
   3  -5   9    4.77    1.05
   3  -5   9    5.83    1.10
  -4   5  -9   15.22    2.00
   4  -5   9   15.00    1.96
   4  -5   9   11.50    1.57
  -5   5  -9   13.88    2.17
   5  -5   9   16.73    1.96
   5  -5   9   15.12    2.20
  -6   5  -9    5.60    1.53
   6  -5   9    5.20    1.37
   6   4  -9    0.98    0.72
  -6  -4   9    1.09    1.04
  -6  -4   9   -0.98    0.76
   5   4  -9    0.81    0.82
  -5  -4   9    0.64    0.93
  -5  -4   9    0.18    0.52
   4   4  -9   48.12    3.03
  -4  -4   9   40.58    3.17
   3   4  -9    0.04    0.38
  -3  -4   9    0.40    0.53
   2   4  -9   -0.10    0.16
   2   4  -9    0.29    0.14
   2   4  -9    0.74    0.56
  -2  -4   9    0.11    0.55
   1   4  -9   47.41    2.28
   1   4  -9   41.52    2.61
  -1  -4   9   53.14    3.02
  -1  -4   9   45.36    2.94
   0   4  -9   36.19    2.03
   0  -4   9   35.34    2.34
   0  -4   9   33.56    2.26
  -1   4  -9   10.28    1.23
   1  -4   9   11.49    1.27
   1  -4   9   11.36    1.40
   1  -4   9   12.03    1.40
  -2   4  -9   68.54    3.84
   2  -4   9   74.36    3.42
   2  -4   9   70.43    3.82
   2  -4   9   70.47    3.94
  -3   4  -9   71.67    4.21
   3  -4   9   71.37    4.18
   3  -4   9   79.42    4.07
  -4   4  -9    1.98    0.89
   4  -4   9    3.05    0.81
   4  -4   9    1.45    0.68
  -5   4  -9    2.74    1.02
   5  -4   9    3.27    0.89
   5  -4   9    2.33    1.04
  -6   4  -9    0.98    0.87
   6  -4   9    0.44    0.88
   6   3  -9    0.68    0.74
  -6  -3   9    0.91    1.00
   5   3  -9   10.68    1.68
  -5  -3   9   11.47    1.98
   4   3  -9    2.18    0.78
  -4  -3   9    0.91    0.86
   3   3  -9    5.45    1.00
  -3  -3   9    5.54    0.65
  -3  -3   9    3.89    1.11
   2   3  -9   51.97    2.42
   2   3  -9   50.17    2.87
  -2  -3   9   55.11    3.32
  -2  -3   9   51.26    2.54
   1   3  -9    5.36    0.67
   1   3  -9    2.88    0.63
  -1  -3   9    2.90    0.77
  -1  -3   9    3.28    0.78
   0   3  -9   11.45    1.19
   0  -3   9   17.55    1.39
   0  -3   9   14.73    1.56
   0  -3   9   13.70    1.49
  -1   3  -9    0.57    0.44
   1  -3   9    0.59    0.40
   1  -3   9   -0.67    0.31
   1  -3   9    0.15    0.35
  -2   3  -9   37.71    2.48
  -2   3  -9   35.08    1.75
   2  -3   9   33.15    2.43
   2  -3   9   36.87    2.33
  -3   3  -9   24.26    2.35
   3  -3   9   25.38    1.87
   3  -3   9   20.87    2.18
  -4   3  -9    2.07    0.92
   4  -3   9    2.37    0.76
   4  -3   9    2.89    0.97
  -5   3  -9    7.05    1.51
   5  -3   9    6.40    1.38
   5  -3   9    5.91    1.07
  -6   3  -9    0.02    1.07
   6  -3   9   -0.49    0.86
   6   2  -9   -0.16    0.65
  -6  -2   9   -1.16    0.51
   5   2  -9   15.26    1.90
  -5  -2   9   17.53    2.34
   4   2  -9    1.23    0.63
  -4  -2   9    0.30    0.34
  -4  -2   9    1.26    0.71
   3   2  -9   22.60    1.75
  -3  -2   9   22.31    2.30
  -3  -2   9   23.75    1.49
   2   2  -9    0.27    0.37
  -2  -2   9    0.99    0.68
  -2  -2   9    0.25    0.28
   1   2  -9   94.66    4.42
  -1  -2   9   97.26    4.42
  -1  -2   9   93.59    4.85
   0   2  -9    4.86    0.79
   0  -2   9    6.40    0.91
   0  -2   9    5.45    0.89
   0  -2   9    6.97    1.02
  -1   2  -9    0.60    0.32
  -1   2  -9    0.90    0.45
   1  -2   9    0.45    0.52
   1  -2   9    0.73    0.48
   1  -2   9    1.17    0.49
  -2   2  -9    7.77    0.72
  -2   2  -9    8.39    1.28
   2  -2   9    7.75    1.18
   2  -2   9    9.81    1.17
   2  -2   9    9.06    1.42
  -3   2  -9    7.59    1.36
   3  -2   9    6.26    1.17
   3  -2   9    7.26    1.04
   3  -2   9    7.03    1.36
  -4   2  -9    5.63    1.33
   4  -2   9    7.09    1.26
   4  -2   9    7.61    1.09
   4  -2   9    4.63    1.24
  -5   2  -9   11.16    1.88
   5  -2   9    8.83    1.80
   5  -2   9   11.82    1.82
  -6   2  -9   -0.75    0.57
   6  -2   9   -0.33    0.84
   7   1  -9   -0.28    0.96
  -7  -1   9   -0.27    0.97
   6   1  -9   -0.11    0.68
  -6  -1   9    1.01    0.68
   5   1  -9   11.55    1.59
  -5  -1   9   15.95    2.21
   4   1  -9   -0.04    0.41
  -4  -1   9    1.15    0.82
  -4  -1   9    0.78    0.40
   3   1  -9    6.53    0.98
  -3  -1   9    7.19    1.30
  -3  -1   9    7.69    0.95
   2   1  -9   15.24    1.23
  -2  -1   9   16.04    1.28
  -2  -1   9   14.57    1.78
   1   1  -9    7.95    0.89
  -1  -1   9    9.18    1.08
  -1  -1   9    8.30    1.20
   0  -1   9   47.56    2.65
   0  -1   9   42.15    2.60
   0  -1   9   43.15    2.55
   0  -1   9   42.86    2.48
   0  -1   9   44.05    2.72
  -1   1  -9   20.20    1.38
  -1   1  -9   19.40    1.62
   1  -1   9   18.79    1.53
   1  -1   9   18.36    1.46
   1  -1   9   22.30    1.84
  -2   1  -9   -0.23    0.23
  -2   1  -9    1.27    0.67
   2  -1   9    0.03    0.47
   2  -1   9    0.82    0.50
   2  -1   9   -0.23    0.28
  -3   1  -9   -0.22    0.38
   3  -1   9    0.02    0.49
   3  -1   9   -0.61    0.27
   3  -1   9    0.20    0.53
  -4   1  -9   -0.02    0.67
   4  -1   9    0.70    0.52
   4  -1   9   -0.46    0.31
   4  -1   9    0.28    0.60
  -5   1  -9   -0.22    0.75
   5  -1   9   -0.19    0.56
   5  -1   9   -0.26    0.47
  -6   1  -9   -0.81    0.87
   6  -1   9    1.69    1.10
   6  -1   9   -0.74    0.86
   7   0  -9    0.15    0.80
   6   0  -9    0.16    0.66
   5   0  -9    0.83    0.59
  -5   0   9   -0.52    0.37
  -5   0   9    0.22    0.54
   4   0  -9    6.73    1.07
  -4   0   9   10.35    1.21
  -4   0   9    6.46    1.31
   3   0  -9    1.24    0.48
  -3   0   9    0.35    0.46
  -3   0   9    1.25    0.49
   2   0  -9   12.46    1.20
  -2   0   9   13.17    1.66
  -2   0   9   15.12    1.44
   1   0  -9    7.00    0.82
  -1   0   9    9.83    1.19
  -1   0   9    6.88    0.97
   0   0  -9    0.08    0.37
   0   0   9    1.06    0.45
   0   0   9    0.71    0.42
   0   0   9    0.63    0.53
  -1   0  -9   11.76    1.16
  -1   0  -9   10.19    1.30
   1   0   9   12.37    1.33
   1   0   9   11.49    1.21
   1   0   9   10.57    1.48
  -2   0  -9   54.01    2.64
  -2   0  -9   56.55    3.34
   2   0   9   55.11    2.84
   2   0   9   56.05    3.22
   2   0   9   50.89    3.48
  -3   0  -9   -0.31    0.36
   3   0   9   -0.51    0.39
   3   0   9    0.36    0.53
   3   0   9    0.40    0.34
  -4   0  -9    0.67    0.76
   4   0   9    0.44    0.68
   4   0   9   -0.24    0.53
  -5   0  -9    0.76    0.74
   5   0   9   -0.84    0.47
   5   0   9    1.00    0.86
  -6   0  -9    1.37    1.03
   6   0   9    0.40    0.74
   6   0   9   -0.40    0.70
   7  -1  -9   -1.23    0.78
   6  -1  -9    1.76    0.87
   6  -1  -9    0.67    0.64
   5  -1  -9    0.56    0.52
  -5   1   9    0.32    0.58
   4  -1  -9   34.07    2.18
  -4   1   9   34.96    2.30
   3  -1  -9    9.04    0.99
  -3   1   9    5.63    0.95
   2  -1  -9   24.37    1.98
   2  -1  -9   22.57    1.40
  -2   1   9   17.63    1.74
   1  -1  -9    0.39    0.29
   1  -1  -9    0.31    0.38
  -1   1   9    0.12    0.38
  -1   1   9   -0.12    0.24
   0  -1  -9   13.65    1.44
   0   1   9   15.31    1.68
   0   1   9   13.54    1.30
   0   1   9   15.22    1.59
  -1  -1  -9   17.64    1.36
   1   1   9   18.06    1.92
   1   1   9   17.04    1.42
   1   1   9   15.76    1.75
  -2  -1  -9   58.86    2.93
  -2  -1  -9   61.17    3.59
   2   1   9   56.60    3.68
   2   1   9   59.80    3.37
  -3  -1  -9   42.64    3.10
   3   1   9   48.43    3.47
   3   1   9   46.81    3.01
  -4  -1  -9    0.03    0.54
   4   1   9    0.72    0.72
   4   1   9    0.22    0.64
  -5  -1  -9    4.41    1.46
   5   1   9    4.79    1.40
   5   1   9    4.54    1.54
  -6  -1  -9    0.86    0.89
   6   1   9    3.99    1.47
   6   1   9    6.08    1.71
   6  -2  -9    2.70    1.02
  -6   2   9    2.67    0.97
   5  -2  -9   -1.36    0.53
   5  -2  -9   -1.04    0.34
  -5   2   9    0.16    0.53
   4  -2  -9    9.60    1.13
   4  -2  -9    8.96    1.58
  -4   2   9    6.16    1.11
   3  -2  -9    3.79    0.94
   3  -2  -9    2.77    0.58
  -3   2   9    3.28    0.83
   2  -2  -9    6.73    1.14
   2  -2  -9    7.63    0.79
  -2   2   9    5.86    0.99
  -2   2   9    7.01    0.98
   1  -2  -9   25.28    1.40
   1  -2  -9   24.30    1.97
  -1   2   9   26.76    1.89
  -1   2   9   22.95    1.86
   0  -2  -9    7.25    1.06
   0   2   9   11.00    1.09
   0   2   9   12.35    1.45
   0   2   9    7.95    1.23
  -1  -2  -9    0.04    0.38
   1   2   9    0.34    0.57
   1   2   9    0.27    0.43
   1   2   9   -0.50    0.30
  -2  -2  -9    8.80    1.04
  -2  -2  -9    9.43    1.48
   2   2   9    8.72    1.21
   2   2   9    8.31    1.44
  -3  -2  -9   22.86    2.45
   3   2   9   20.44    2.10
   3   2   9   20.26    2.46
  -4  -2  -9   28.51    3.01
   4   2   9   26.37    3.02
   4   2   9   27.66    2.68
  -5  -2  -9    0.98    1.00
   5   2   9    0.05    0.90
   5   2   9    0.05    0.73
   6  -3  -9    1.30    1.01
  -6   3   9   -0.12    0.67
   5  -3  -9   14.65    2.09
  -5   3   9   11.26    1.63
   4  -3  -9    1.45    0.68
  -4   3   9    2.09    0.69
   3  -3  -9    0.66    0.60
  -3   3   9    2.51    0.80
   2  -3  -9   24.87    1.28
   2  -3  -9   19.87    2.12
  -2   3   9   26.48    1.77
  -2   3   9   21.67    1.86
   1  -3  -9  243.03   10.86
   1  -3  -9  253.13    9.88
  -1   3   9  244.89   10.70
  -1   3   9  259.88   10.90
   0  -3  -9    0.55    0.48
   0   3   9    1.16    0.67
   0   3   9    0.23    0.42
   0   3   9   -0.04    0.33
  -1  -3  -9    1.28    0.55
   1   3   9    0.75    0.65
   1   3   9    1.33    0.49
   1   3   9    0.60    0.70
  -2  -3  -9    4.54    0.82
   2   3   9    4.47    0.92
   2   3   9    5.14    1.19
  -3  -3  -9    1.07    0.80
   3   3   9    2.63    0.99
   3   3   9    1.75    0.71
  -4  -3  -9   11.39    1.92
   4   3   9    5.33    1.26
   4   3   9    8.87    1.80
  -5  -3  -9   18.37    2.64
   5   3   9   22.41    3.10
   5   3   9   20.32    2.51
   6  -4  -9    5.57    1.43
  -6   4   9    3.81    1.19
   5  -4  -9   20.73    2.59
  -5   4   9   17.40    2.06
   4  -4  -9    3.89    1.10
  -4   4   9    0.74    0.58
   3  -4  -9    3.00    0.92
  -3   4   9    2.32    0.84
   2  -4  -9    4.09    0.99
  -2   4   9    3.52    0.83
  -2   4   9    6.15    0.98
   1  -4  -9    8.35    1.33
  -1   4   9    9.57    1.36
  -1   4   9   13.13    1.54
   0  -4  -9    7.08    1.16
   0   4   9    8.40    1.30
   0   4   9    7.97    1.36
   0   4   9    6.94    0.82
  -1  -4  -9    1.14    0.60
   1   4   9    0.65    0.39
   1   4   9    0.72    0.72
   1   4   9    1.31    0.73
  -2  -4  -9    1.26    0.62
   2   4   9    2.45    0.84
   2   4   9    1.20    0.55
   2   4   9    1.55    0.83
  -3  -4  -9    2.79    1.06
   3   4   9    3.82    1.28
   3   4   9    2.87    0.85
  -4  -4  -9   -0.15    0.84
   4   4   9    0.10    0.71
   4   4   9    0.71    0.81
  -5  -4  -9    4.31    1.49
   5   4   9    5.97    1.68
   5   4   9    4.19    1.40
   6  -5  -9   14.22    2.28
  -6   5   9   12.07    1.95
   5  -5  -9    6.37    1.48
  -5   5   9    2.43    1.00
   4  -5  -9    0.42    0.86
  -4   5   9    0.91    0.61
   3  -5  -9    1.96    0.92
  -3   5   9    1.54    0.81
   2  -5  -9    4.85    1.19
  -2   5   9    4.83    1.10
  -2   5   9    4.71    0.96
   1  -5  -9   26.17    2.19
  -1   5   9   24.17    2.38
  -1   5   9   24.08    2.04
   0  -5  -9   -0.11    0.52
   0   5   9    0.38    0.64
   0   5   9    0.85    0.65
  -1  -5  -9   54.26    3.29
   1   5   9   59.03    2.95
   1   5   9   54.69    3.53
   1   5   9   51.05    3.62
  -2  -5  -9    1.22    0.64
   2   5   9    3.76    1.15
   2   5   9    2.07    0.89
   2   5   9    3.83    0.77
  -3  -5  -9    0.42    0.78
   3   5   9    1.33    0.91
   3   5   9    0.11    0.52
  -4  -5  -9    0.27    0.79
   4   5   9    0.29    0.70
   4   5   9    0.69    0.84
   6  -6  -9   -1.88    0.77
  -6   6   9    1.16    0.98
   5  -6  -9   -0.74    0.87
  -5   6   9   -0.72    0.68
   4  -6  -9    2.48    1.00
  -4   6   9    1.09    0.70
   3  -6  -9    1.19    0.77
  -3   6   9    0.10    0.65
  -2   6   9    1.45    0.69
  -2   6   9    0.32    0.65
   1  -6  -9   11.59    1.69
  -1   6   9   18.82    2.04
  -1   6   9   16.06    1.94
   0  -6  -9   11.69    1.62
   0   6   9   12.40    1.79
   0   6   9   10.37    1.58
  -1  -6  -9   -0.31    0.37
   1   6   9   -0.05    0.60
   1   6   9    0.68    0.72
  -2  -6  -9    4.39    1.05
   2   6   9    3.34    1.05
   2   6   9    2.61    1.03
  -3  -6  -9    8.12    1.60
   3   6   9    7.05    1.65
   3   6   9    9.44    1.43
  -4  -6  -9    0.19    0.70
   4   6   9    0.47    0.81
   4   6   9    0.65    0.82
   5  -7  -9    1.49    1.17
  -5   7   9    0.91    0.75
   4  -7  -9    0.93    0.91
  -4   7   9   -0.51    0.71
   3  -7  -9    6.21    1.42
  -3   7   9    4.41    1.10
   2  -7  -9   -0.34    0.68
  -2   7   9    0.98    0.58
  -2   7   9    0.70    0.69
   1  -7  -9    3.23    1.06
  -1   7   9    3.21    0.98
  -1   7   9    1.86    0.78
   0  -7  -9   -0.32    0.59
   0   7   9    0.28    0.55
   0   7   9    0.24    0.56
  -1  -7  -9    4.19    1.08
   1   7   9    2.37    1.09
   1   7   9    1.58    0.79
  -2  -7  -9   12.76    1.74
   2   7   9    6.03    1.50
   2   7   9    7.67    1.67
  -3  -7  -9    6.69    1.64
   3   7   9   10.25    2.10
  -4  -7  -9    4.60    1.55
   4   7   9    4.05    1.54
   5  -8  -9    3.27    1.17
  -5   8   9    2.28    1.18
   4  -8  -9    1.74    1.09
  -4   8   9   -0.17    0.57
   3  -8  -9   14.26    2.16
  -3   8   9   14.42    2.03
   2  -8  -9    0.94    0.75
  -2   8   9    0.37    0.80
  -2   8   9    1.12    0.71
   1  -8  -9   30.67    3.07
  -1   8   9   38.73    2.97
  -1   8   9   35.25    2.86
   0  -8  -9   -0.21    0.65
   0   8   9   -0.72    0.60
   0   8   9    0.66    0.55
  -1  -8  -9   -1.29    0.56
   1   8   9    0.61    0.70
   1   8   9    0.13    0.61
  -2  -8  -9   -0.04    0.72
   2   8   9   -0.82    0.75
   2   8   9   -0.14    0.81
  -3  -8  -9    0.94    0.81
   3   8   9    1.22    0.95
   4  -9  -9   -0.71    0.65
  -4   9   9   -0.78    0.74
   3  -9  -9    9.99    1.90
  -3   9   9    2.73    1.14
   2  -9  -9    1.05    0.74
  -2   9   9    2.37    1.05
  -2   9   9    0.80    0.85
   1  -9  -9    3.52    1.11
  -1   9   9    1.53    0.97
  -1   9   9    4.09    1.25
   0  -9  -9    0.17    0.54
   0   9   9    1.89    1.06
   0   9   9    0.21    0.57
  -1  -9  -9   -0.18    0.75
   1   9   9   -0.27    0.56
   1   9   9    0.93    1.07
  -2  -9  -9    5.62    1.39
   2   9   9    8.01    1.81
   2   9   9    6.43    1.77
   3 -10  -9    1.41    1.11
  -3  10   9    0.44    0.82
   2 -10  -9    2.90    1.21
  -2  10   9    2.01    0.92
   1 -10  -9    0.51    0.78
  -1  10   9   -0.08    0.58
  -1  10   9   -0.06    0.75
   0 -10  -9    0.37    0.70
   0  10   9    1.13    0.98
   0  10   9    0.32    0.94
  -1 -10  -9   45.27    3.64
   1  10   9   51.19    4.10
   1  10   9   45.54    3.71
   2 -11  -9    4.23    1.54
  -2  11   9    7.32    1.80
   1 -11  -9    2.07    1.13
  -1  11   9    0.87    1.04
  -1  11   9    1.59    1.07
   1  14 -10   -0.31    0.63
  -1 -14  10    0.66    0.87
  -1 -14  10    0.88    0.84
   0  14 -10   -0.28    0.76
   0 -14  10    0.34    0.97
   0 -14  10    0.19    0.84
  -1  14 -10   45.06    3.42
   1 -14  10   44.97    3.55
   1 -14  10   40.01    4.01
  -2  14 -10   25.80    2.90
   2 -14  10   30.01    3.48
   2  13 -10    2.73    1.07
  -2 -13  10    2.95    1.32
  -2 -13  10    1.88    1.12
   1  13 -10    3.19    1.20
  -1 -13  10    3.69    1.30
  -1 -13  10    0.27    1.03
   0  13 -10   11.69    1.87
   0 -13  10   11.94    2.02
   0 -13  10   12.23    2.10
  -1  13 -10    4.87    1.28
   1 -13  10    3.00    1.33
   1 -13  10    4.45    1.34
  -2  13 -10    1.58    0.97
   2 -13  10   -0.57    0.57
  -3  13 -10    3.40    1.28
   3 -13  10    4.31    1.49
   3  12 -10    6.31    1.49
  -3 -12  10    5.23    1.67
   2  12 -10   -0.11    0.57
  -2 -12  10    1.08    0.88
  -2 -12  10    1.64    0.89
   1  12 -10   31.63    3.12
  -1 -12  10   31.67    3.32
  -1 -12  10   38.70    3.13
   0  12 -10    5.76    1.35
   0 -12  10    6.77    1.53
   0 -12  10    5.73    1.41
  -1  12 -10   -0.11    0.81
   1 -12  10   -0.73    0.70
   1 -12  10    0.03    0.69
  -2  12 -10    0.17    0.77
   2 -12  10   -0.82    0.68
   2 -12  10   -0.72    0.76
  -3  12 -10    8.64    1.65
   3 -12  10    6.63    1.60
  -4  12 -10    2.83    1.31
   4 -12  10    0.92    1.01
   4 -12  10    1.82    1.26
   4  11 -10    1.14    1.07
  -4 -11  10    3.07    1.25
   3  11 -10    3.72    1.26
  -3 -11  10    6.51    1.52
   2  11 -10    4.82    1.23
  -2 -11  10    3.02    1.14
  -2 -11  10    1.50    1.03
   1  11 -10    8.90    1.58
  -1 -11  10    5.88    1.42
  -1 -11  10    3.03    1.15
   0  11 -10    9.68    1.58
   0 -11  10    9.48    1.67
   0 -11  10   10.02    1.80
  -1  11 -10    6.50    1.34
   1 -11  10    5.19    1.22
   1 -11  10    5.37    1.29
  -2  11 -10    0.56    0.67
  -2  11 -10    0.21    0.56
   2 -11  10    0.28    0.72
   2 -11  10    0.02    0.61
  -3  11 -10   -0.52    0.72
   3 -11  10    0.45    0.70
   3 -11  10    0.12    0.63
  -4  11 -10    9.27    1.92
   4 -11  10    8.52    1.81
   4 -11  10    8.40    1.75
   4  10 -10    0.10    0.64
  -4 -10  10   -1.61    0.74
   3  10 -10    9.47    1.77
  -3 -10  10    3.96    1.32
   2  10 -10    4.50    1.16
  -2 -10  10    1.57    0.83
  -2 -10  10    1.24    0.92
   1  10 -10    0.11    0.67
  -1 -10  10    0.79    0.80
  -1 -10  10   -0.78    0.61
   0  10 -10   -1.07    0.47
   0 -10  10   -0.01    0.60
   0 -10  10   -0.54    0.61
  -1  10 -10    4.49    1.07
   1 -10  10    4.23    1.06
   1 -10  10    3.19    1.02
  -2  10 -10    2.30    0.90
   2 -10  10    3.80    1.01
   2 -10  10    3.18    1.06
  -3  10 -10    1.57    0.88
   3 -10  10    0.22    0.95
   3 -10  10    1.89    0.89
  -4  10 -10   -0.66    0.87
   4 -10  10    0.43    0.93
   4 -10  10    1.14    0.87
  -5  10 -10    0.09    1.03
   5 -10  10    0.89    0.91
   5 -10  10   -0.92    0.95
   5   9 -10    0.21    0.72
  -5  -9  10    1.13    0.89
  -5  -9  10    0.32    1.07
   4   9 -10    1.28    0.95
  -4  -9  10   -0.14    0.90
   3   9 -10    6.10    1.30
  -3  -9  10    6.04    1.46
   2   9 -10    0.96    0.71
  -2  -9  10    0.41    0.74
  -2  -9  10    1.90    0.87
   1   9 -10   14.49    1.81
  -1  -9  10   11.60    1.75
  -1  -9  10   11.28    1.72
   0   9 -10    1.36    0.76
   0  -9  10    1.74    0.77
   0  -9  10    1.01    0.68
  -1   9 -10    0.66    0.63
  -1   9 -10    0.41    0.54
   1  -9  10    0.00    0.54
   1  -9  10    1.14    0.80
  -2   9 -10    0.69    0.68
   2  -9  10    1.82    0.96
   2  -9  10    1.47    0.65
   2  -9  10    0.94    0.67
  -3   9 -10   10.48    1.67
   3  -9  10    7.65    1.49
   3  -9  10   13.37    1.96
  -4   9 -10    8.22    1.76
   4  -9  10    8.09    1.64
   4  -9  10    7.80    1.60
  -5   9 -10   13.37    2.34
   5  -9  10   14.34    2.18
   5  -9  10   16.52    2.35
   5   8 -10    1.27    0.83
  -5  -8  10    0.67    0.93
  -5  -8  10    0.79    0.86
   4   8 -10    0.82    0.84
  -4  -8  10    0.19    0.73
   3   8 -10   -0.72    0.53
  -3  -8  10   -0.55    0.68
   2   8 -10    3.65    1.02
  -2  -8  10    4.88    1.14
  -2  -8  10    5.95    1.27
   1   8 -10    1.55    0.81
  -1  -8  10    1.19    0.78
  -1  -8  10    1.21    0.74
   0   8 -10    2.62    0.66
   0   8 -10    3.93    0.91
   0  -8  10    1.97    0.88
   0  -8  10    0.47    0.64
  -1   8 -10    3.37    0.78
   1  -8  10    3.76    0.92
   1  -8  10    1.55    0.86
  -2   8 -10    6.83    1.28
   2  -8  10    9.19    1.54
   2  -8  10    9.59    1.29
   2  -8  10    8.92    1.45
  -3   8 -10   15.98    2.09
   3  -8  10   15.97    2.03
   3  -8  10   16.04    2.09
  -4   8 -10    0.08    0.61
   4  -8  10    0.11    0.75
   4  -8  10   -0.51    0.44
  -5   8 -10   17.68    2.55
   5  -8  10   18.90    2.56
   5  -8  10   20.71    2.51
   5   7 -10    2.07    0.95
  -5  -7  10    4.37    1.21
  -5  -7  10    2.15    1.07
   4   7 -10    0.65    0.74
  -4  -7  10    0.70    0.92
   3   7 -10    4.02    1.11
  -3  -7  10    5.82    1.38
   2   7 -10    0.41    0.46
  -2  -7  10    0.18    0.47
  -2  -7  10   -0.62    0.36
  -1  -7  10   27.41    2.31
  -1  -7  10   23.25    2.40
   0   7 -10    7.02    1.16
   0   7 -10    8.36    0.97
   0  -7  10    7.48    1.30
   0  -7  10    9.49    1.44
  -1   7 -10   16.76    1.66
   1  -7  10   14.78    1.77
   1  -7  10   15.02    1.71
   1  -7  10   13.24    1.77
  -2   7 -10   12.88    1.68
   2  -7  10   12.93    1.71
   2  -7  10   15.94    1.96
   2  -7  10   15.58    1.57
  -3   7 -10    6.49    1.37
   3  -7  10    5.80    1.20
   3  -7  10    8.25    1.49
  -4   7 -10   20.49    2.47
   4  -7  10   17.75    2.15
   4  -7  10   17.05    2.29
  -5   7 -10   22.71    2.97
   5  -7  10   35.13    3.36
   5  -7  10   22.18    2.50
   6   6 -10    8.12    1.70
  -6  -6  10    5.23    1.70
   5   6 -10   -0.56    0.47
  -5  -6  10    0.73    0.85
   4   6 -10    2.93    1.04
  -4  -6  10    2.10    0.97
   3   6 -10   32.48    2.46
  -3  -6  10   36.06    2.94
   2   6 -10    0.88    0.67
  -2  -6  10    1.06    0.65
  -2  -6  10    0.34    0.53
   1   6 -10    2.49    0.79
  -1  -6  10    3.90    1.02
  -1  -6  10    3.67    0.99
   0   6 -10    1.97    0.55
   0   6 -10    3.03    0.74
   0  -6  10    2.04    0.70
   0  -6  10    2.18    0.81
  -1   6 -10   11.85    1.38
   1  -6  10   11.57    1.59
   1  -6  10    8.95    1.39
   1  -6  10   12.69    1.50
  -2   6 -10    8.42    1.27
   2  -6  10    8.26    1.36
   2  -6  10    6.18    1.15
   2  -6  10    6.33    0.98
  -3   6 -10   24.60    2.47
   3  -6  10   24.18    2.38
   3  -6  10   23.65    2.48
  -4   6 -10   22.81    2.57
   4  -6  10   19.70    2.38
   4  -6  10   22.43    2.34
  -5   6 -10   10.49    2.07
   5  -6  10   11.63    1.74
   5  -6  10   11.37    1.97
  -6   6 -10    6.10    1.85
   6   5 -10    0.71    0.73
  -6  -5  10   -0.51    0.93
   5   5 -10    3.00    1.17
  -5  -5  10    5.66    1.62
   4   5 -10   -0.08    0.60
  -4  -5  10    0.93    0.87
   3   5 -10   31.86    2.41
  -3  -5  10   32.49    2.77
   2   5 -10   10.93    1.42
  -2  -5  10   10.60    1.61
  -2  -5  10   10.41    1.57
   1   5 -10    0.21    0.28
   1   5 -10   -0.27    0.35
  -1  -5  10    0.08    0.42
  -1  -5  10    1.25    0.64
   0   5 -10   14.49    1.56
   0   5 -10   16.15    1.26
   0  -5  10   12.66    1.59
   0  -5  10   15.54    1.78
  -1   5 -10    0.45    0.45
   1  -5  10    1.16    0.63
   1  -5  10   -0.30    0.35
   1  -5  10   -0.07    0.41
  -2   5 -10   30.67    2.29
   2  -5  10   27.93    2.36
   2  -5  10   32.71    1.95
   2  -5  10   30.02    2.25
  -3   5 -10   51.16    3.39
   3  -5  10   54.36    3.33
   3  -5  10   53.42    3.48
  -4   5 -10    3.51    1.18
   4  -5  10    4.00    1.00
   4  -5  10    6.54    1.47
  -5   5 -10    2.19    1.22
   5  -5  10    2.52    0.91
   5  -5  10    2.83    1.07
  -6   5 -10    2.45    1.40
   6  -5  10    3.10    1.33
   6   4 -10    2.67    1.15
  -6  -4  10    1.96    1.03
   5   4 -10   -0.12    0.55
  -5  -4  10   -0.33    0.53
   4   4 -10    7.48    1.26
  -4  -4  10    6.24    1.51
   3   4 -10   46.22    2.97
  -3  -4  10   50.25    3.43
   2   4 -10    1.50    0.44
   2   4 -10    0.70    0.55
  -2  -4  10    1.90    0.84
   1   4 -10    3.63    0.59
   1   4 -10    1.66    0.63
  -1  -4  10    2.30    0.81
  -1  -4  10    3.72    0.91
   0   4 -10    9.67    1.08
   0   4 -10    7.18    1.07
   0  -4  10    7.76    1.23
   0  -4  10    8.86    1.31
  -1   4 -10   87.80    4.36
   1  -4  10   86.49    4.50
   1  -4  10   84.79    4.52
   1  -4  10   86.35    4.31
  -2   4 -10    1.71    0.64
  -2   4 -10    2.19    0.44
   2  -4  10    1.89    0.72
   2  -4  10    1.60    0.72
  -3   4 -10   11.97    1.62
   3  -4  10   11.92    1.51
   3  -4  10   11.75    1.74
  -4   4 -10   10.23    1.78
   4  -4  10    9.48    1.73
   4  -4  10    8.56    1.34
  -5   4 -10    2.10    1.09
   5  -4  10    0.10    0.62
   5  -4  10    0.84    0.72
  -6   4 -10    1.35    1.25
   6  -4  10    1.17    0.85
   6   3 -10   11.58    1.94
  -6  -3  10   12.46    2.26
   5   3 -10    0.70    0.63
  -5  -3  10    0.63    0.74
   4   3 -10    7.40    1.21
  -4  -3  10    7.04    1.43
   3   3 -10    4.19    0.87
  -3  -3  10    4.84    0.68
  -3  -3  10    4.08    1.11
   2   3 -10    3.95    0.82
   2   3 -10    4.76    0.62
  -2  -3  10    4.75    1.05
   1   3 -10    4.13    0.81
   1   3 -10    4.63    0.70
  -1  -3  10    5.06    1.00
  -1  -3  10    3.51    0.88
   0   3 -10   41.08    2.33
   0  -3  10   34.81    2.47
   0  -3  10   40.71    2.58
  -1   3 -10   16.36    1.68
   1  -3  10   20.18    1.94
   1  -3  10   18.69    1.51
   1  -3  10   19.90    1.64
  -2   3 -10    3.05    0.50
  -2   3 -10    2.42    0.73
   2  -3  10    4.76    0.94
   2  -3  10    3.53    0.85
  -3   3 -10    3.87    1.13
   3  -3  10    3.48    0.86
   3  -3  10    3.86    1.05
  -4   3 -10   -0.37    0.45
   4  -3  10   -0.06    0.42
   4  -3  10   -0.20    0.42
  -5   3 -10    0.04    0.85
   5  -3  10    0.17    0.73
  -6   3 -10    0.41    0.87
   6  -3  10    1.71    0.91
   6   2 -10    0.92    0.90
  -6  -2  10    0.72    0.99
   5   2 -10    0.51    0.63
  -5  -2  10    1.10    0.98
   4   2 -10    0.40    0.45
  -4  -2  10    0.25    0.59
   3   2 -10    2.06    0.63
  -3  -2  10    1.94    0.51
  -3  -2  10    2.03    0.82
   2   2 -10    6.31    0.92
  -2  -2  10    4.89    0.78
  -2  -2  10    8.05    1.34
   1   2 -10    3.67    0.72
  -1  -2  10    3.60    0.72
  -1  -2  10    2.79    0.87
   0   2 -10   10.99    1.23
   0  -2  10   10.70    1.34
   0  -2  10   10.97    1.40
   0  -2  10   11.19    1.33
  -1   2 -10    0.31    0.33
  -1   2 -10   -0.33    0.21
   1  -2  10   -0.16    0.48
   1  -2  10    0.22    0.42
   1  -2  10   -0.32    0.35
  -2   2 -10    0.17    0.27
  -2   2 -10    0.40    0.56
   2  -2  10    0.19    0.54
   2  -2  10    0.86    0.63
   2  -2  10    1.35    0.52
  -3   2 -10    8.42    1.45
   3  -2  10    6.84    1.49
   3  -2  10    9.54    1.51
   3  -2  10    7.16    1.11
  -4   2 -10    1.68    0.79
   4  -2  10    1.25    0.79
   4  -2  10    1.93    0.73
   4  -2  10    1.01    0.64
  -5   2 -10    4.17    1.26
   5  -2  10    3.02    1.36
   5  -2  10    2.92    1.01
  -6   2 -10    1.36    1.20
   6  -2  10    0.59    0.95
   6   1 -10   11.34    1.80
  -6  -1  10    7.48    1.80
   5   1 -10    3.45    1.01
  -5  -1  10    2.22    1.02
   4   1 -10    1.04    0.60
  -4  -1  10    1.23    0.52
  -4  -1  10    0.15    0.69
   3   1 -10   17.65    1.64
  -3  -1  10   21.21    1.53
  -3  -1  10   13.87    1.99
   2   1 -10    0.19    0.36
  -2  -1  10    0.33    0.46
  -2  -1  10    1.08    0.48
   1   1 -10   -0.01    0.33
  -1  -1  10    0.07    0.51
  -1  -1  10    0.17    0.42
   0   1 -10   15.15    1.53
   0  -1  10   14.23    1.65
   0  -1  10   16.11    1.55
  -1   1 -10    0.50    0.43
  -1   1 -10   -0.10    0.32
   1  -1  10   -0.44    0.27
   1  -1  10   -0.32    0.35
   1  -1  10    0.18    0.47
  -2   1 -10    5.37    0.71
  -2   1 -10    5.60    1.16
   2  -1  10    5.42    1.19
   2  -1  10    4.78    1.03
   2  -1  10    6.27    0.96
  -3   1 -10    8.48    1.44
   3  -1  10    6.72    1.45
   3  -1  10   12.76    1.34
   3  -1  10    9.98    1.51
  -4   1 -10    0.83    0.71
   4  -1  10    0.28    0.51
   4  -1  10    0.84    0.88
  -5   1 -10    0.25    0.80
   5  -1  10    0.06    0.60
   5  -1  10   -0.41    0.90
   6   0 -10    5.13    1.25
   5   0 -10   -0.71    0.45
  -5   0  10   -0.16    0.54
   4   0 -10    0.84    0.57
  -4   0  10    1.02    0.50
  -4   0  10    0.84    0.81
   3   0 -10   14.62    1.43
  -3   0  10   15.29    1.55
  -3   0  10   16.60    2.13
   2   0 -10   11.85    1.18
  -2   0  10   11.44    1.32
  -2   0  10    8.43    1.38
   1   0 -10    3.40    0.85
   1   0 -10    5.43    0.76
  -1   0  10    6.09    1.02
  -1   0  10    5.02    0.91
   0   0 -10   17.37    1.71
   0   0  10   25.34    1.97
   0   0  10   18.59    1.51
   0   0  10   19.58    1.65
  -1   0 -10   10.08    1.38
  -1   0 -10   11.89    1.26
   1   0  10   10.40    1.54
   1   0  10   10.16    1.30
  -2   0 -10    6.73    1.27
  -2   0 -10    9.54    0.95
   2   0  10    7.76    1.23
   2   0  10    5.64    1.27
   2   0  10    7.02    0.96
  -3   0 -10    7.97    1.41
   3   0  10    7.57    1.35
   3   0  10    6.30    1.37
  -4   0 -10    4.17    1.29
   4   0  10    5.26    1.52
   4   0  10    7.00    1.40
  -5   0 -10    0.77    1.00
   5   0  10    1.74    1.08
   5   0  10    0.82    0.83
   6  -1 -10    4.43    1.46
   5  -1 -10    0.89    0.72
   5  -1 -10    0.26    0.58
  -5   1  10    1.21    0.71
   4  -1 -10   15.63    1.57
  -4   1  10   15.87    1.69
   3  -1 -10   16.38    1.42
   3  -1 -10   11.88    1.73
  -3   1  10   13.23    1.52
   2  -1 -10    0.87    0.67
   2  -1 -10    1.49    0.44
  -2   1  10    1.12    0.57
   1  -1 -10   21.00    2.05
   1  -1 -10   22.66    1.42
  -1   1  10   19.64    1.92
  -1   1  10   21.31    1.75
   0  -1 -10   12.89    1.45
   0   1  10   12.07    1.30
   0   1  10   15.05    1.78
   0   1  10   14.60    1.61
  -1  -1 -10    7.03    0.99
   1   1  10    8.51    1.17
   1   1  10   11.40    1.63
  -2  -1 -10    0.66    0.38
  -2  -1 -10    0.11    0.62
   2   1  10    0.73    0.75
   2   1  10    0.25    0.53
  -3  -1 -10    2.26    0.99
   3   1  10    3.26    1.07
   3   1  10    2.15    0.80
  -4  -1 -10    3.16    1.08
   4   1  10    3.89    1.08
   4   1  10    3.01    1.17
  -5  -1 -10   12.48    2.21
   5   1  10   10.48    1.89
   5   1  10   11.12    2.27
   6  -2 -10   16.89    2.42
   5  -2 -10    0.09    0.80
  -5   2  10    0.00    0.56
   4  -2 -10    0.88    0.73
  -4   2  10    1.01    0.59
   3  -2 -10   -0.07    0.31
   3  -2 -10    0.04    0.44
  -3   2  10    0.38    0.41
   2  -2 -10   16.62    1.16
   2  -2 -10   16.05    1.91
  -2   2  10   17.38    1.83
  -2   2  10   20.33    1.55
   1  -2 -10    6.27    0.71
   1  -2 -10    5.00    1.06
  -1   2  10    5.13    1.01
  -1   2  10    5.41    1.05
   0  -2 -10   37.65    2.56
   0   2  10   42.46    2.80
   0   2  10   42.43    2.81
   0   2  10   41.44    2.34
  -1  -2 -10   17.48    1.72
   1   2  10   16.10    1.90
   1   2  10   17.54    1.66
   1   2  10   18.61    2.16
  -2  -2 -10    0.92    0.52
  -2  -2 -10    0.73    0.54
   2   2  10    0.79    0.56
   2   2  10    2.29    0.95
  -3  -2 -10   18.97    2.34
   3   2  10   17.15    1.99
   3   2  10   19.97    2.53
  -4  -2 -10    0.17    0.79
   4   2  10    1.13    0.87
   4   2  10    0.56    0.71
  -5  -2 -10   16.81    2.64
   5   2  10   20.48    2.99
   5   2  10   14.53    2.20
   6  -3 -10   22.76    2.85
  -6   3  10   19.29    2.34
   5  -3 -10    8.84    1.83
  -5   3  10    7.68    1.43
   4  -3 -10    9.14    1.65
  -4   3  10    9.82    1.49
   3  -3 -10    0.11    0.54
  -3   3  10   -0.30    0.46
   2  -3 -10   46.10    3.29
  -2   3  10   49.52    3.17
  -2   3  10   56.02    3.01
   1  -3 -10    0.14    0.63
  -1   3  10    0.24    0.47
  -1   3  10    0.22    0.53
   0  -3 -10   22.50    1.86
   0   3  10   20.73    1.47
   0   3  10   17.66    2.03
   0   3  10   23.10    2.27
  -1  -3 -10    0.55    0.53
   1   3  10   -0.43    0.53
   1   3  10    0.40    0.44
   1   3  10    0.02    0.43
  -2  -3 -10    3.82    0.84
  -2  -3 -10    3.75    1.01
   2   3  10    5.37    1.03
   2   3  10    5.58    1.39
  -3  -3 -10   -0.43    0.49
   3   3  10    0.07    0.37
   3   3  10    0.35    0.78
  -4  -3 -10    0.04    0.84
   4   3  10    1.58    1.10
   4   3  10    0.45    0.57
  -5  -3 -10   12.47    2.27
   5   3  10    6.01    1.91
   5   3  10    9.36    1.74
   6  -4 -10   30.35    3.46
  -6   4  10   32.79    3.15
   5  -4 -10    1.86    0.94
  -5   4  10    0.38    0.79
   4  -4 -10   25.57    2.85
  -4   4  10   22.44    2.39
   3  -4 -10    5.61    1.34
  -3   4  10    4.07    0.97
   2  -4 -10   -0.96    0.50
  -2   4  10   -0.11    0.36
  -2   4  10   -0.07    0.34
   1  -4 -10   22.52    2.28
  -1   4  10   18.98    2.10
  -1   4  10   22.71    1.94
   0  -4 -10    8.97    1.41
   0   4  10   10.43    1.57
   0   4  10   12.62    1.77
  -1  -4 -10    1.48    0.69
   1   4  10    1.22    0.87
   1   4  10    2.20    0.66
   1   4  10    1.24    0.78
  -2  -4 -10    0.49    0.55
   2   4  10    0.88    0.57
   2   4  10    0.16    0.57
  -3  -4 -10   -0.44    0.48
   3   4  10   -0.42    0.56
   3   4  10   -0.21    0.44
  -4  -4 -10    4.94    1.52
   4   4  10    8.13    1.97
   4   4  10    7.59    1.46
   6  -5 -10   12.91    2.38
  -6   5  10   14.87    2.18
   5  -5 -10    1.66    1.19
  -5   5  10    5.27    1.38
   4  -5 -10    1.22    0.79
  -4   5  10    1.54    0.90
   3  -5 -10    0.06    0.56
  -3   5  10    0.40    0.60
   2  -5 -10    9.73    1.61
  -2   5  10   13.69    1.63
  -2   5  10   13.84    1.83
   1  -5 -10   35.31    2.62
  -1   5  10   30.83    2.49
  -1   5  10   32.73    2.52
   0  -5 -10   -0.23    0.38
   0   5  10    0.43    0.53
   0   5  10   -0.23    0.34
  -1  -5 -10   -0.04    0.50
   1   5  10    1.29    0.75
   1   5  10    1.27    0.76
  -2  -5 -10   13.66    1.66
   2   5  10   13.88    1.92
   2   5  10    8.75    1.90
   2   5  10   15.20    1.63
  -3  -5 -10   -1.10    0.32
   3   5  10    0.39    0.61
   3   5  10   -0.54    0.60
  -4  -5 -10    4.26    1.36
   4   5  10    1.39    0.87
   4   5  10    3.53    1.53
   5  -6 -10   -0.21    0.93
  -5   6  10   -0.70    0.67
   4  -6 -10   20.21    2.70
  -4   6  10   20.15    2.44
   3  -6 -10    4.63    1.34
  -3   6  10    3.28    1.00
   2  -6 -10   -0.63    0.58
  -2   6  10    0.01    0.54
  -2   6  10    0.63    0.75
   1  -6 -10    0.65    0.74
  -1   6  10    0.30    0.47
  -1   6  10    0.16    0.52
   0  -6 -10    7.16    1.34
   0   6  10    6.75    1.45
   0   6  10    5.33    1.28
  -1  -6 -10   -0.77    0.48
   1   6  10    0.70    0.75
   1   6  10    0.84    0.85
  -2  -6 -10    0.80    0.73
   2   6  10    1.05    1.04
   2   6  10    0.91    0.92
  -3  -6 -10   10.17    1.98
   3   6  10    6.65    1.76
  -4  -6 -10    2.82    1.27
   4   6  10    0.82    1.28
   5  -7 -10   -0.22    0.77
  -5   7  10    1.33    0.82
   4  -7 -10    4.03    1.37
  -4   7  10    3.13    1.12
   3  -7 -10    1.52    0.81
  -3   7  10    0.29    0.57
   2  -7 -10   15.77    2.25
  -2   7  10   19.72    2.18
  -2   7  10   16.08    2.18
   1  -7 -10   -0.23    0.72
  -1   7  10    0.03    0.67
  -1   7  10    0.09    0.56
   0  -7 -10   12.68    1.86
   0   7  10   12.44    2.03
   0   7  10   14.32    2.07
  -1  -7 -10    1.50    0.81
   1   7  10   -0.05    0.61
   1   7  10    0.47    0.66
  -2  -7 -10   -0.86    0.55
   2   7  10    0.05    0.87
   2   7  10    0.71    0.99
  -3  -7 -10    9.04    1.87
   3   7  10    8.42    1.93
   4  -8 -10   -0.77    0.52
  -4   8  10    1.83    0.88
   3  -8 -10    0.38    0.70
  -3   8  10    1.22    0.78
   2  -8 -10    8.88    1.69
  -2   8  10   10.98    1.82
   1  -8 -10    3.55    1.14
  -1   8  10    2.67    0.94
  -1   8  10    2.63    1.05
   0  -8 -10    0.77    0.89
   0   8  10    1.37    0.93
   0   8  10    2.45    1.12
  -1  -8 -10   -0.10    0.79
   1   8  10   -0.33    0.47
   1   8  10    0.17    0.62
  -2  -8 -10    0.34    0.79
   2   8  10    0.18    0.69
   2   8  10   -0.82    0.58
   3  -9 -10    0.95    1.21
  -3   9  10    3.00    1.23
   2  -9 -10    2.26    1.21
  -2   9  10    1.06    0.79
   1  -9 -10    1.78    0.84
  -1   9  10    3.08    1.08
  -1   9  10    2.04    0.88
   0  -9 -10   26.01    2.92
   0   9  10   24.26    2.93
   0   9  10   20.18    2.70
  -1  -9 -10    7.88    1.72
   1   9  10    3.45    1.42
   1   9  10    9.02    1.80
   2 -10 -10    6.52    1.69
  -2  10  10    3.02    1.28
   1 -10 -10   18.80    2.59
  -1  10  10   15.24    2.42
  -1  10  10   14.78    2.31
   0 -10 -10   10.13    1.93
   0  10  10    9.04    1.82
   0  10  10    9.10    1.93
  -2 -13  11    2.43    1.26
   1  13 -11    0.74    1.06
  -1 -13  11    4.69    1.44
  -1 -13  11    1.79    1.19
   0  13 -11   14.80    2.25
   0 -13  11   10.62    1.93
   0 -13  11   16.09    2.33
  -1  13 -11    6.50    1.49
   1 -13  11    6.78    1.58
   1 -13  11    6.35    1.61
  -2  13 -11    1.45    1.08
   2 -13  11    1.64    1.27
   3  12 -11   -0.79    1.06
  -3 -12  11    0.95    1.19
   2  12 -11    4.32    1.45
  -2 -12  11    3.99    1.28
  -2 -12  11    3.09    1.31
   1  12 -11    6.79    1.56
  -1 -12  11    4.50    1.43
  -1 -12  11    7.13    1.63
   0  12 -11   15.64    2.12
   0 -12  11   13.75    2.12
   0 -12  11   15.64    2.25
  -1  12 -11    2.78    1.17
   1 -12  11    2.82    1.12
   1 -12  11    4.46    1.35
  -2  12 -11    0.86    0.70
   2 -12  11    0.20    0.69
   3 -12  11   16.16    2.43
   3  11 -11    1.36    0.98
  -3 -11  11    1.96    0.89
   2  11 -11    1.10    0.96
  -2 -11  11   -0.37    0.69
  -2 -11  11   -0.18    0.67
   1  11 -11    2.77    1.04
  -1 -11  11    6.38    1.45
  -1 -11  11   10.48    1.88
   0  11 -11    1.54    0.78
   0 -11  11    0.98    0.78
   0 -11  11    1.32    0.79
  -1  11 -11    2.81    0.96
   1 -11  11    6.92    1.64
   1 -11  11    4.08    1.20
  -2  11 -11    0.46    0.86
   2 -11  11    1.34    0.88
  -3  11 -11    1.64    1.07
   3 -11  11    0.17    0.67
   3 -11  11    0.36    0.90
  -4  11 -11    0.63    1.11
   4 -11  11   -0.33    0.68
   4 -11  11   -0.29    0.82
   4  10 -11    0.44    0.91
  -4 -10  11    1.01    1.25
   3  10 -11    3.84    1.11
  -3 -10  11    2.40    1.11
   2  10 -11    2.41    1.08
  -2 -10  11    2.31    0.95
  -2 -10  11    1.27    0.75
   1  10 -11    0.99    0.70
  -1 -10  11    2.02    0.98
  -1 -10  11    2.14    0.92
   0  10 -11   16.46    2.10
   0 -10  11   15.99    2.10
   0 -10  11   12.70    1.93
  -1  10 -11    0.32    0.76
   1 -10  11    0.18    0.52
   1 -10  11    1.64    0.82
  -2  10 -11   27.45    2.56
   2 -10  11   21.42    2.58
  -3  10 -11   -0.79    0.69
   3 -10  11    0.63    0.75
   3 -10  11    0.52    0.68
  -4  10 -11   -0.30    0.97
   4 -10  11    0.60    0.87
   4 -10  11    0.36    0.95
   4   9 -11    1.27    0.86
  -4  -9  11    2.69    1.46
   3   9 -11    3.17    1.15
  -3  -9  11    1.72    0.93
   2   9 -11    3.15    1.04
  -2  -9  11    2.24    0.92
  -2  -9  11    1.18    0.74
   1   9 -11    0.73    0.62
  -1  -9  11    1.95    0.92
  -1  -9  11    0.02    0.47
   0   9 -11    4.74    1.18
   0  -9  11    4.03    1.19
   0  -9  11    4.78    1.19
  -1   9 -11   11.28    1.68
   1  -9  11   12.19    1.82
   1  -9  11   14.48    1.87
  -2   9 -11    6.85    1.31
   2  -9  11    5.64    1.39
   2  -9  11    7.46    1.56
   2  -9  11    7.37    1.52
  -3   9 -11    2.65    1.06
   3  -9  11    2.21    0.93
   3  -9  11    3.31    1.23
  -4   9 -11   -0.14    0.65
   4  -9  11   -0.49    0.76
   4  -9  11   -1.24    0.75
  -5   9 -11    0.89    1.10
   5  -9  11    3.13    1.27
   5   8 -11    2.36    1.26
  -5  -8  11   -0.40    1.05
   4   8 -11    6.28    1.41
  -4  -8  11    5.96    1.68
   3   8 -11   -0.02    0.51
  -3  -8  11    0.10    0.90
   2   8 -11    0.77    0.79
  -2  -8  11    2.56    1.23
  -2  -8  11    0.95    0.68
   1   8 -11    5.81    1.24
  -1  -8  11    6.53    1.35
  -1  -8  11    7.46    1.45
   0   8 -11    0.86    0.71
   0  -8  11   -0.41    0.42
   0  -8  11    0.64    0.75
  -1   8 -11    0.33    0.45
  -1   8 -11   -0.22    0.46
   1  -8  11   -0.25    0.56
   1  -8  11   -0.81    0.58
  -2   8 -11    2.01    0.85
   2  -8  11    1.77    0.74
   2  -8  11    1.66    0.94
   2  -8  11    1.46    0.74
  -3   8 -11   29.16    2.87
   3  -8  11   27.02    2.79
   3  -8  11   27.70    2.92
  -4   8 -11   22.27    2.69
   4  -8  11   18.43    2.37
   4  -8  11   18.03    2.45
  -5   8 -11    2.17    1.32
   5  -8  11    0.97    0.94
   5  -8  11    0.56    0.90
   5   7 -11   -0.53    0.85
  -5  -7  11   -0.21    0.87
   4   7 -11    0.47    0.64
  -4  -7  11    0.04    0.60
   3   7 -11    1.66    0.75
  -3  -7  11    0.43    0.62
   2   7 -11   33.56    2.49
  -2  -7  11   32.87    2.75
  -2  -7  11   30.26    3.01
   1   7 -11    0.45    0.59
  -1  -7  11    1.43    0.85
  -1  -7  11    0.54    0.57
   0   7 -11   52.33    2.93
   0   7 -11   48.11    3.17
   0  -7  11   51.59    3.34
   0  -7  11   49.50    3.38
  -1   7 -11    0.44    0.57
   1  -7  11    1.13    0.65
   1  -7  11    0.62    0.55
  -2   7 -11    8.73    1.43
   2  -7  11    8.09    1.52
   2  -7  11    9.93    1.57
   2  -7  11    9.64    1.29
  -3   7 -11   48.36    3.33
   3  -7  11   42.77    3.10
   3  -7  11   40.96    3.16
  -4   7 -11    6.17    1.42
   4  -7  11    7.80    1.60
   4  -7  11    9.26    1.64
  -5   7 -11    9.93    1.99
   5  -7  11   10.07    1.92
   5  -7  11   11.93    1.89
   5   6 -11   -1.53    0.63
  -5  -6  11    0.16    0.66
   4   6 -11    2.29    0.85
  -4  -6  11    3.70    1.34
   3   6 -11    1.11    0.61
  -3  -6  11    0.58    0.81
   2   6 -11   28.46    2.33
  -2  -6  11   33.08    2.73
  -2  -6  11   34.79    2.75
   1   6 -11   14.99    1.71
  -1  -6  11   14.67    1.92
  -1  -6  11   14.33    1.91
   0   6 -11    0.80    0.62
   0   6 -11    1.45    0.55
   0  -6  11    0.68    0.56
   0  -6  11    3.47    0.96
  -1   6 -11   10.78    1.41
   1  -6  11   12.40    1.67
   1  -6  11   11.37    1.62
   1  -6  11   12.93    1.58
  -2   6 -11   13.12    1.68
   2  -6  11   14.93    1.84
   2  -6  11   12.13    1.36
   2  -6  11   12.59    1.72
  -3   6 -11    0.55    0.75
   3  -6  11    0.19    0.65
   3  -6  11    0.11    0.53
  -4   6 -11    1.09    0.81
   4  -6  11    0.63    0.85
   4  -6  11   -0.08    0.46
  -5   6 -11    6.12    1.58
   5  -6  11    5.23    1.52
   5  -6  11    5.61    1.39
   6   5 -11    2.53    1.20
  -6  -5  11    4.41    1.56
   5   5 -11   -0.37    0.51
  -5  -5  11    0.54    1.10
   4   5 -11   35.11    2.70
  -4  -5  11   30.65    3.32
   3   5 -11   38.87    2.73
  -3  -5  11   42.94    3.31
   2   5 -11    5.24    1.08
  -2  -5  11    7.16    1.36
   1   5 -11    2.92    0.56
   1   5 -11    2.43    0.85
  -1  -5  11    1.02    0.65
  -1  -5  11    2.00    0.85
   0   5 -11   16.71    1.78
   0   5 -11   15.39    1.31
   0  -5  11   18.01    1.93
   0  -5  11   15.44    1.84
  -1   5 -11   42.34    2.69
   1  -5  11   43.67    2.76
   1  -5  11   41.91    2.90
   1  -5  11   47.32    3.03
  -2   5 -11   23.47    2.28
   2  -5  11   22.36    2.25
   2  -5  11   25.24    1.74
   2  -5  11   23.94    2.43
  -3   5 -11   13.35    1.88
   3  -5  11   19.96    2.29
   3  -5  11   16.66    1.96
  -4   5 -11   -0.07    0.59
   4  -5  11    1.29    0.75
   4  -5  11   -0.13    0.58
  -5   5 -11    8.58    1.88
   5  -5  11   12.08    2.14
   6   4 -11    0.26    0.92
  -6  -4  11   -0.68    0.62
   5   4 -11   -0.41    0.72
  -5  -4  11    0.80    1.04
   4   4 -11    1.53    0.83
  -4  -4  11    2.91    1.28
   3   4 -11    2.93    0.84
  -3  -4  11    1.46    0.98
   2   4 -11    6.17    1.06
  -2  -4  11    6.14    1.39
   1   4 -11    0.62    0.42
   1   4 -11    1.06    0.41
  -1  -4  11    0.32    0.61
  -1  -4  11    0.40    0.64
   0   4 -11   28.20    1.89
   0   4 -11   24.85    1.97
   0  -4  11   28.29    2.25
   0  -4  11   28.33    2.20
  -1   4 -11   -0.11    0.37
   1  -4  11   -0.40    0.34
   1  -4  11   -0.16    0.33
   1  -4  11   -0.10    0.37
  -2   4 -11    8.13    1.34
   2  -4  11   11.05    1.48
   2  -4  11   10.63    1.64
  -3   4 -11    1.57    0.83
   3  -4  11    3.03    0.97
   3  -4  11    2.03    0.77
  -4   4 -11    0.66    0.69
   4  -4  11   -0.32    0.52
   4  -4  11    0.26    0.56
  -5   4 -11    2.17    1.05
   5  -4  11    1.08    1.10
   6   3 -11   -0.22    0.72
  -6  -3  11    1.00    0.93
   5   3 -11   13.71    1.90
  -5  -3  11    7.45    1.73
   4   3 -11    6.61    1.26
  -4  -3  11    9.01    1.76
   3   3 -11    7.50    1.21
  -3  -3  11    4.64    1.17
   2   3 -11   15.69    1.13
   2   3 -11   12.78    1.47
  -2  -3  11   16.19    2.02
   1   3 -11    5.77    0.85
   1   3 -11    6.64    1.04
  -1  -3  11    7.93    1.31
   0   3 -11    2.20    0.60
   0   3 -11    1.25    0.56
   0  -3  11    1.25    0.69
   0  -3  11    0.92    0.64
  -1   3 -11    2.19    0.75
  -1   3 -11    2.10    0.59
   1  -3  11    2.18    0.74
   1  -3  11    2.64    0.75
  -2   3 -11    2.34    0.75
   2  -3  11    2.08    0.67
   2  -3  11    3.31    0.95
  -3   3 -11   -0.08    0.69
   3  -3  11    0.00    0.45
   3  -3  11   -0.55    0.37
  -4   3 -11    2.05    0.91
   4  -3  11    0.50    0.60
   4  -3  11    0.31    0.59
  -5   3 -11    1.07    1.12
   5  -3  11    2.69    1.21
   6   2 -11    1.57    1.03
  -6  -2  11    0.80    1.03
   5   2 -11    8.24    1.50
  -5  -2  11   14.93    2.35
   4   2 -11    1.36    0.69
  -4  -2  11    3.14    1.12
   3   2 -11    0.19    0.46
  -3  -2  11   -0.34    0.32
  -3  -2  11   -0.34    0.64
   2   2 -11   13.71    1.47
  -2  -2  11   12.87    1.81
  -2  -2  11   15.32    1.49
   1   2 -11   -0.24    0.35
  -1  -2  11    0.72    0.52
   0   2 -11    3.31    0.75
   0  -2  11    3.43    0.81
   0  -2  11    1.04    0.65
  -1   2 -11   10.14    1.15
  -1   2 -11   10.25    1.37
   1  -2  11    9.78    1.38
   1  -2  11   12.05    1.45
  -2   2 -11    0.27    0.60
   2  -2  11    2.51    0.83
   2  -2  11    0.68    0.53
   2  -2  11    0.27    0.65
  -3   2 -11    3.59    0.99
   3  -2  11    3.54    1.07
   3  -2  11    4.23    1.05
   3  -2  11    2.79    0.79
  -4   2 -11    8.40    1.64
   4  -2  11    9.98    1.73
   4  -2  11   12.56    2.16
  -5   2 -11    0.63    1.11
   5  -2  11    1.29    0.92
   6   1 -11    1.09    0.84
  -6  -1  11    4.01    1.46
   5   1 -11    5.47    1.19
  -5  -1  11    5.34    1.53
   4   1 -11    0.63    0.54
  -4  -1  11    1.57    0.77
  -4  -1  11    1.80    0.81
   3   1 -11    0.72    0.55
  -3  -1  11   -0.50    0.35
  -3  -1  11   -0.11    0.44
   2   1 -11    2.59    0.65
  -2  -1  11    2.08    0.89
  -2  -1  11    1.93    0.67
   1   1 -11    0.36    0.44
  -1  -1  11    0.35    0.45
   0   1 -11   12.86    1.49
   0   1 -11   13.73    1.54
   0  -1  11   12.65    1.64
  -1   1 -11    5.48    0.90
  -1   1 -11    8.37    1.29
   1  -1  11    5.55    1.09
   1  -1  11    7.58    1.38
   1  -1  11    6.95    1.12
  -2   1 -11   16.17    1.94
   2  -1  11   17.36    1.69
   2  -1  11   15.42    1.85
   2  -1  11   13.64    1.96
  -3   1 -11    0.52    0.57
   3  -1  11    0.49    0.67
   3  -1  11    0.26    0.65
   3  -1  11    0.51    0.46
  -4   1 -11    0.25    0.61
   4  -1  11    0.92    0.68
   4  -1  11    1.46    1.08
  -5   1 -11   15.44    2.38
   5  -1  11   15.32    2.24
   5  -1  11   11.88    2.33
   5   0 -11   -0.17    0.54
   4   0 -11    5.24    1.02
  -4   0  11    4.58    0.96
   3   0 -11    4.71    0.87
  -3   0  11    2.18    0.71
   2   0 -11    2.61    0.80
   2   0 -11    0.01    0.39
  -2   0  11    1.04    0.58
   1   0 -11    4.68    1.00
   1   0 -11    4.69    0.77
  -1   0  11    5.79    1.03
   0   0 -11   32.54    2.25
   0   0  11   30.22    2.38
   0   0  11   34.67    2.40
   0   0  11   33.61    2.21
  -1   0 -11    9.92    1.46
  -1   0 -11   10.20    1.24
   1   0  11   12.42    1.79
   1   0  11   10.75    1.41
  -2   0 -11    1.27    0.68
   2   0  11    1.93    0.70
   2   0  11    1.52    0.77
  -3   0 -11   12.99    2.01
   3   0  11   12.77    2.08
   3   0  11   13.74    1.87
  -4   0 -11    6.25    1.54
   4   0  11    4.50    1.20
   4   0  11    5.53    1.69
  -5   0 -11    4.53    1.59
   5   0  11    6.96    1.73
   5   0  11    7.15    1.58
   6  -1 -11    2.75    1.29
   5  -1 -11    0.46    0.68
   4  -1 -11    0.81    0.72
  -4   1  11    1.73    0.71
   3  -1 -11    3.97    1.13
   3  -1 -11    5.49    0.84
  -3   1  11    3.96    0.91
   2  -1 -11    3.23    0.92
   2  -1 -11    3.82    0.69
  -2   1  11    3.09    0.84
   1  -1 -11   20.85    1.47
   1  -1 -11   26.70    2.11
  -1   1  11   22.56    1.90
  -1   1  11   22.99    2.20
   0  -1 -11   22.88    1.90
   0   1  11   22.90    1.73
   0   1  11   25.44    2.11
   0   1  11   26.22    2.19
  -1  -1 -11   14.29    1.48
   1   1  11   12.34    1.81
   1   1  11   13.84    1.58
  -2  -1 -11    6.12    1.33
   2   1  11    6.44    1.49
   2   1  11    5.91    1.12
  -3  -1 -11    0.96    0.73
   3   1  11    1.57    0.92
   3   1  11    0.86    0.59
  -4  -1 -11   39.91    3.34
   4   1  11   45.73    3.22
   4   1  11   34.99    3.85
  -5  -1 -11    7.90    1.94
   5   1  11   10.93    2.33
   5   1  11   10.91    1.96
   6  -2 -11    0.54    0.96
   5  -2 -11   16.15    2.33
  -5   2  11   16.57    1.96
   4  -2 -11    1.78    0.84
  -4   2  11    2.38    0.80
   3  -2 -11    2.35    0.90
  -3   2  11    2.73    0.83
   2  -2 -11    5.18    1.21
  -2   2  11    4.28    0.92
  -2   2  11    6.14    1.13
   1  -2 -11    2.47    0.52
   1  -2 -11    1.69    0.80
  -1   2  11    2.32    0.80
  -1   2  11    2.30    0.73
   0  -2 -11    4.12    0.95
   0   2  11    3.66    1.02
   0   2  11    2.70    0.85
  -1  -2 -11   -0.10    0.46
   1   2  11   -0.08    0.47
   1   2  11    0.34    0.52
   1   2  11    0.90    0.64
  -2  -2 -11   17.60    2.17
   2   2  11   18.81    1.97
   2   2  11   16.63    2.32
  -3  -2 -11    9.75    1.85
   3   2  11   11.01    1.66
   3   2  11    9.70    2.00
  -4  -2 -11   32.34    3.45
   4   2  11   29.62    2.98
   4   2  11   32.77    3.76
   6  -3 -11    6.87    1.76
   5  -3 -11    0.85    1.11
  -5   3  11    0.28    0.70
   4  -3 -11    1.33    0.96
  -4   3  11    0.40    0.65
   3  -3 -11    0.60    0.87
  -3   3  11    0.41    0.65
   2  -3 -11    6.49    1.43
  -2   3  11    6.73    1.15
  -2   3  11    8.08    1.36
   1  -3 -11    1.32    0.66
  -1   3  11    1.49    0.71
  -1   3  11    2.52    0.80
   0  -3 -11   38.01    2.67
   0   3  11   39.84    2.86
   0   3  11   40.45    2.95
  -1  -3 -11   -0.76    0.38
   1   3  11    0.55    0.56
   1   3  11   -0.49    0.35
   1   3  11   -0.75    0.56
  -2  -3 -11    0.20    0.79
   2   3  11    0.23    0.60
   2   3  11    0.50    0.69
  -3  -3 -11   19.00    2.52
   3   3  11   15.29    1.92
   3   3  11   14.85    2.33
  -4  -3 -11   24.85    3.10
   4   3  11   24.20    2.65
   4   3  11   20.88    2.97
   5  -4 -11    7.27    1.79
  -5   4  11    6.86    1.41
   4  -4 -11   -0.15    0.50
  -4   4  11    0.03    0.59
   3  -4 -11   -0.33    0.47
  -3   4  11    0.68    0.55
   2  -4 -11    8.45    1.51
  -2   4  11    5.44    1.16
  -2   4  11    6.22    1.16
   1  -4 -11   -0.39    0.37
  -1   4  11    0.33    0.61
  -1   4  11    0.55    0.58
   0  -4 -11   28.59    2.33
   0   4  11   27.66    2.82
   0   4  11   26.07    2.65
  -1  -4 -11    0.11    0.49
   1   4  11    0.53    0.58
   1   4  11    0.58    0.60
   1   4  11    0.15    0.74
   2   4  11    8.06    1.79
   2   4  11   11.10    1.50
  -3  -4 -11    0.49    0.98
   3   4  11    2.84    0.94
   3   4  11    3.91    1.54
  -4  -4 -11   -0.61    0.65
   4   4  11    1.82    0.88
   4   4  11   -0.46    0.62
   5  -5 -11    0.71    0.82
  -5   5  11    0.40    0.61
   4  -5 -11    4.00    1.41
  -4   5  11    4.27    1.20
   3  -5 -11   16.94    2.41
  -3   5  11   15.97    2.05
   2  -5 -11    0.38    0.81
  -2   5  11    1.47    0.68
  -2   5  11    1.94    0.88
   1  -5 -11    4.06    1.12
  -1   5  11    5.09    1.17
  -1   5  11    5.55    1.20
   0  -5 -11    0.11    0.67
   0   5  11    0.93    0.74
   0   5  11    0.01    0.78
  -1  -5 -11    2.94    0.95
   1   5  11    2.99    1.07
   1   5  11    3.17    1.08
   2   5  11    0.13    0.99
  -3  -5 -11   -0.12    0.85
   3   5  11    1.36    1.19
   5  -6 -11    2.21    1.13
  -5   6  11    0.91    0.88
   4  -6 -11    0.37    0.75
  -4   6  11    1.47    0.94
   3  -6 -11    0.16    0.70
  -3   6  11    0.37    0.53
   2  -6 -11    0.26    0.57
  -2   6  11    0.50    0.76
   1  -6 -11    7.23    1.56
  -1   6  11    8.34    1.61
  -1   6  11   10.39    1.76
   0  -6 -11    0.41    0.77
   0   6  11   -0.30    0.68
   0   6  11    0.55    0.62
  -1  -6 -11    4.79    1.19
   1   6  11    8.77    1.72
   1   6  11    6.97    1.74
   2   6  11   -1.35    0.79
  -3  -6 -11    0.84    0.88
   3   6  11    0.22    1.19
   4  -7 -11    0.69    0.81
  -4   7  11    0.78    0.69
   3  -7 -11    2.83    1.16
  -3   7  11    1.86    0.85
   2  -7 -11   -0.22    0.77
  -2   7  11   -0.98    0.60
   1  -7 -11    5.42    1.38
  -1   7  11    3.77    1.20
  -1   7  11    6.66    1.48
   0  -7 -11   -0.72    0.63
   0   7  11    0.33    0.64
   0   7  11    0.36    0.83
  -1  -7 -11    1.04    0.89
   1   7  11    1.73    0.93
   1   7  11    5.05    1.53
   2   7  11    2.44    1.46
   3  -8 -11    1.28    1.18
  -3   8  11    1.10    0.79
   2  -8 -11    7.33    1.76
  -2   8  11    9.83    1.85
   1  -8 -11    4.89    1.29
  -1   8  11    8.35    1.71
  -1   8  11    7.17    1.59
   0  -8 -11   -1.07    0.74
   0   8  11   -0.20    0.75
   0   8  11    0.61    0.74
  -1  -8 -11    2.00    1.15
   1   8  11    2.72    1.19
   1   8  11    2.65    1.28
   2  -9 -11    1.55    1.14
  -2   9  11   -0.25    0.58
   1  -9 -11    0.67    0.73
  -1   9  11    1.42    0.98
  -1   9  11    0.35    0.91
   0  -9 -11    0.28    0.90
   0   9  11    1.63    0.97
   0   9  11    0.97    1.03
   0  13 -12    1.94    1.20
   0 -13  12    3.38    1.45
   0 -13  12    3.73    1.45
  -1  13 -12    0.42    0.82
   1 -13  12    1.06    1.33
   1 -13  12    3.13    1.43
   2  12 -12   12.64    2.09
  -2 -12  12   15.19    2.45
  -2 -12  12   17.11    2.56
   1  12 -12    0.60    0.73
  -1 -12  12    0.94    1.07
  -1 -12  12    1.65    1.15
   0  12 -12   -0.32    0.79
   0 -12  12    0.88    0.97
   0 -12  12    0.47    1.00
  -1  12 -12    0.48    0.99
   1 -12  12    2.24    1.13
   1 -12  12    1.59    0.92
  -2  12 -12    5.74    1.49
   2 -12  12    5.00    1.50
   3  11 -12   -0.01    1.06
  -3 -11  12    2.64    1.25
   2  11 -12    6.55    1.57
  -2 -11  12   10.42    1.93
  -2 -11  12    6.18    1.60
   1  11 -12    0.06    0.62
  -1 -11  12   -0.44    0.74
  -1 -11  12    0.24    0.84
   0  11 -12    1.49    0.81
   0 -11  12    3.00    1.14
   0 -11  12    0.71    0.93
  -1  11 -12    1.10    0.73
   1 -11  12   -0.48    0.71
   1 -11  12    0.77    0.87
  -2  11 -12    0.34    0.64
   2 -11  12   -0.35    0.81
   3 -11  12    4.33    1.36
   3 -11  12    3.08    1.30
   3  10 -12   -0.51    0.59
  -3 -10  12   -0.71    0.65
   2  10 -12   -0.53    0.78
  -2 -10  12   -0.39    0.89
  -2 -10  12    0.94    0.78
   1  10 -12    1.30    0.79
  -1 -10  12    1.17    0.80
  -1 -10  12    1.81    1.08
   0  10 -12    2.41    0.94
   0 -10  12    2.88    1.13
   0 -10  12    3.56    1.26
  -1  10 -12    2.09    0.85
   1 -10  12    3.44    1.21
   1 -10  12    2.04    1.06
   2 -10  12   18.20    2.43
  -3  10 -12   -0.56    0.83
   3 -10  12   -0.67    0.49
   3 -10  12    0.45    1.02
  -4  10 -12    0.19    1.01
   4 -10  12   -0.60    0.81
   4 -10  12   -0.55    0.86
   4   9 -12    3.33    1.18
  -4  -9  12    1.32    0.95
   3   9 -12    3.05    1.20
  -3  -9  12    1.19    0.90
   2   9 -12    0.43    0.66
  -2  -9  12   -0.03    0.64
  -2  -9  12   -0.23    0.59
   1   9 -12   10.42    1.67
  -1  -9  12   10.05    1.84
  -1  -9  12   15.22    2.14
   0   9 -12    1.12    0.73
   0  -9  12    4.82    1.22
   0  -9  12    0.67    0.87
  -1   9 -12    7.96    1.54
   1  -9  12    7.96    1.44
   1  -9  12    8.48    1.62
  -2   9 -12    4.65    1.15
   2  -9  12    7.27    1.47
   2  -9  12    8.52    1.61
  -3   9 -12    0.77    0.96
   3  -9  12   -0.20    0.58
   3  -9  12    0.48    0.69
  -4   9 -12    5.18    1.57
   4  -9  12    1.20    1.01
   4  -9  12    3.43    1.30
   4   8 -12   -0.99    0.74
  -4  -8  12    0.12    1.02
   3   8 -12    3.03    0.99
  -3  -8  12    4.19    1.36
   2   8 -12    0.66    0.77
  -2  -8  12    0.02    0.58
  -2  -8  12    0.74    0.94
   1   8 -12    0.62    0.77
  -1  -8  12   -0.71    0.70
  -1  -8  12    0.14    0.57
   0   8 -12    3.99    1.11
   0  -8  12    6.46    1.32
   0  -8  12    3.27    1.16
  -1   8 -12    0.95    0.78
   1  -8  12    2.69    0.97
   1  -8  12    1.13    0.71
  -2   8 -12   28.96    2.44
   2  -8  12   27.20    2.88
   2  -8  12   28.83    2.94
  -3   8 -12   -0.39    0.79
   3  -8  12    3.82    1.24
   3  -8  12    1.11    0.94
  -4   8 -12   20.99    2.65
   4  -8  12   20.99    2.77
   4  -8  12   17.53    2.31
   5   7 -12    1.78    0.92
  -5  -7  12    1.25    1.10
   4   7 -12    1.06    0.92
  -4  -7  12    2.65    1.09
   3   7 -12    2.99    0.93
  -3  -7  12    2.72    1.09
   2   7 -12   38.87    2.83
  -2  -7  12   38.30    3.17
  -2  -7  12   41.87    3.30
   1   7 -12   -0.04    0.57
  -1  -7  12   -0.51    0.61
  -1  -7  12    0.99    0.63
   0   7 -12    1.57    0.72
   0  -7  12    0.50    0.71
   0  -7  12    0.59    0.71
  -1   7 -12   -0.23    0.50
   1  -7  12   -0.45    0.37
   1  -7  12   -0.10    0.59
  -2   7 -12    7.79    1.45
   2  -7  12    9.28    1.73
   2  -7  12    7.51    1.48
  -3   7 -12    4.10    1.29
   3  -7  12    6.11    1.43
   3  -7  12    4.43    1.25
  -4   7 -12   -1.06    0.80
   4  -7  12   -0.82    0.57
   4  -7  12   -0.93    0.64
   5   6 -12    7.28    1.63
  -5  -6  12   13.68    2.51
   4   6 -12    1.03    0.89
  -4  -6  12    0.16    0.93
   3   6 -12    1.25    0.87
  -3  -6  12    2.05    1.00
   2   6 -12   25.80    2.47
  -2  -6  12   25.32    2.78
   1   6 -12    7.60    1.27
  -1  -6  12    6.27    1.36
  -1  -6  12    7.26    1.41
   0   6 -12    4.93    1.02
   0   6 -12    5.41    0.92
   0  -6  12    3.42    1.04
   0  -6  12    3.89    1.09
  -1   6 -12   21.01    2.03
   1  -6  12   20.00    2.23
   1  -6  12   23.13    1.94
   1  -6  12   17.17    2.05
  -2   6 -12    9.55    1.51
   2  -6  12    9.73    1.62
   2  -6  12   10.63    1.70
  -3   6 -12   -0.22    0.78
   3  -6  12    3.84    1.13
   3  -6  12    1.35    0.79
  -4   6 -12    1.36    1.04
   4  -6  12    4.06    1.30
   4  -6  12    3.20    1.10
  -5   6 -12    2.04    1.29
   5  -6  12    3.04    1.19
   5   5 -12    0.19    0.86
  -5  -5  12   -0.19    0.64
   4   5 -12   14.43    1.92
  -4  -5  12   17.15    2.53
   3   5 -12    4.44    1.04
  -3  -5  12    3.04    1.25
   2   5 -12   17.45    1.93
  -2  -5  12   16.80    2.27
   1   5 -12    4.08    0.98
  -1  -5  12    1.77    0.79
  -1  -5  12    1.77    0.75
   0   5 -12   18.07    1.93
   0   5 -12   20.77    1.65
   0  -5  12   23.38    2.37
   0  -5  12   22.77    2.37
  -1   5 -12    1.43    0.67
   1  -5  12   -0.54    0.35
   1  -5  12    1.55    0.67
   1  -5  12    1.00    0.72
  -2   5 -12    6.32    1.25
   2  -5  12    6.50    1.27
   2  -5  12    8.78    1.41
  -3   5 -12    1.16    0.87
   3  -5  12    1.34    0.73
   3  -5  12    0.56    0.72
  -4   5 -12   -0.07    0.66
   4  -5  12    0.36    0.83
   4  -5  12    0.67    0.72
  -5   5 -12    1.18    0.90
   5  -5  12    0.90    0.81
   5   4 -12    1.83    1.11
  -5  -4  12    4.10    1.38
   4   4 -12    3.65    1.08
  -4  -4  12    4.75    1.41
   3   4 -12   10.22    1.50
  -3  -4  12    9.82    1.83
   2   4 -12   10.00    1.40
  -2  -4  12    9.01    1.71
   1   4 -12    0.30    0.42
   1   4 -12   -0.07    0.46
  -1  -4  12    0.30    0.68
  -1  -4  12    0.27    0.50
   0   4 -12    6.76    1.17
   0   4 -12    5.73    0.99
   0  -4  12   11.29    1.61
   0  -4  12    7.71    1.39
  -1   4 -12   -0.11    0.49
   1  -4  12    0.89    0.64
   1  -4  12    0.15    0.44
   1  -4  12   -0.07    0.49
  -2   4 -12   12.53    1.72
   2  -4  12    8.92    1.47
   2  -4  12   12.62    1.72
  -3   4 -12   -0.15    0.70
   3  -4  12    0.87    0.62
   3  -4  12    1.88    0.90
  -4   4 -12    0.60    0.95
   4  -4  12    0.74    0.90
   4  -4  12    0.14    0.63
  -5   4 -12    1.14    0.94
   5  -4  12    0.55    0.72
   5   3 -12    1.56    1.00
  -5  -3  12    3.74    1.34
   4   3 -12   16.35    1.94
  -4  -3  12   15.02    2.28
   3   3 -12   -0.28    0.46
  -3  -3  12    0.95    0.89
   2   3 -12    0.90    0.59
  -2  -3  12    0.91    0.64
   1   3 -12   24.19    1.86
   1   3 -12   23.07    1.69
  -1  -3  12   23.82    2.47
   0   3 -12    1.10    0.57
   0   3 -12    0.11    0.37
   0  -3  12   -0.51    0.49
   0  -3  12    0.97    0.69
  -1   3 -12    0.77    0.60
  -1   3 -12    0.70    0.48
   1  -3  12    0.60    0.57
   1  -3  12    0.55    0.58
  -2   3 -12   18.71    2.17
   2  -3  12   21.84    2.15
   2  -3  12   21.44    2.30
  -3   3 -12    4.62    1.22
   3  -3  12    3.06    0.86
   3  -3  12    3.76    1.16
  -4   3 -12    1.13    1.03
   4  -3  12    1.73    1.07
  -5   3 -12    8.75    1.93
   5  -3  12    7.47    1.70
   5   2 -12   -0.51    0.66
  -5  -2  12   -0.21    0.81
   4   2 -12    1.70    0.75
  -4  -2  12    1.32    0.83
   3   2 -12    7.41    1.17
  -3  -2  12    6.26    1.41
  -3  -2  12    7.55    1.06
   2   2 -12    3.89    0.85
  -2  -2  12    4.26    0.85
  -2  -2  12    2.94    1.07
   1   2 -12   12.00    1.34
   1   2 -12    7.80    1.12
  -1  -2  12   11.17    1.65
   0   2 -12    0.41    0.45
   0   2 -12    1.47    0.65
   0   2 -12    0.50    0.50
  -1   2 -12    1.66    0.57
  -1   2 -12    0.61    0.57
   1  -2  12    0.95    0.65
   1  -2  12    1.27    0.69
  -2   2 -12    4.17    1.14
   2  -2  12    3.53    1.11
   2  -2  12    5.19    1.03
   2  -2  12    5.74    1.21
  -3   2 -12    8.80    1.66
   3  -2  12    5.37    1.26
   3  -2  12    4.15    1.23
   3  -2  12    6.09    1.18
  -4   2 -12    0.01    0.62
   4  -2  12    1.28    0.94
   4  -2  12    2.75    1.16
  -5   2 -12    2.62    1.31
   5  -2  12    0.62    0.95
   5   1 -12   19.12    2.75
  -5  -1  12   15.87    2.55
   4   1 -12    5.22    1.09
  -4  -1  12    9.93    1.89
   3   1 -12    0.00    0.49
  -3  -1  12    0.23    0.77
  -3  -1  12    0.11    0.51
   2   1 -12    1.51    0.58
  -2  -1  12    1.50    0.73
  -2  -1  12    2.41    0.69
   1   1 -12    0.08    0.54
   1   1 -12   -0.17    0.36
  -1  -1  12    0.42    0.53
   0   1 -12    8.63    1.25
   0   1 -12    6.83    1.00
   0   1 -12    7.05    1.18
  -1   1 -12    1.57    0.79
  -1   1 -12    2.87    0.74
   1  -1  12    2.06    0.76
   1  -1  12    0.46    0.54
  -2   1 -12    2.72    0.98
   2  -1  12    2.68    0.76
   2  -1  12    3.30    1.00
   2  -1  12    0.96    0.73
  -3   1 -12    0.81    0.81
   3  -1  12    1.75    0.95
   3  -1  12    1.18    0.85
  -4   1 -12    0.02    0.81
   4  -1  12   -0.08    1.01
   4  -1  12    0.24    0.56
  -5   1 -12   17.06    2.70
   5  -1  12   15.85    2.74
   5  -1  12   18.30    2.62
  -4   0  12    2.41    0.79
   3   0 -12    0.74    0.53
   3   0 -12    1.08    0.73
  -3   0  12    0.64    0.57
   2   0 -12    8.23    1.46
   2   0 -12    7.73    1.02
  -2   0  12    6.10    1.13
   1   0 -12    6.72    0.94
   1   0 -12    7.34    1.32
  -1   0  12    6.51    1.20
   0   0 -12   45.94    2.58
   0   0 -12   44.52    2.85
   0   0  12   41.64    2.92
   0   0  12   45.52    3.11
  -1   0 -12    5.73    1.21
  -1   0 -12    6.41    1.02
   1   0  12    5.50    1.32
   1   0  12    7.96    1.23
  -2   0 -12    0.30    0.67
   2   0  12    0.47    0.67
   2   0  12    0.57    0.51
  -3   0 -12    0.62    0.82
   3   0  12    2.03    0.86
   3   0  12    0.26    0.71
  -4   0 -12   -0.03    0.65
   4   0  12    0.63    1.08
   4   0  12   -0.58    0.79
   5  -1 -12    6.42    1.53
   4  -1 -12    0.40    0.64
  -4   1  12    1.37    0.72
   3  -1 -12   28.81    2.97
  -3   1  12   30.80    2.34
   2  -1 -12    2.90    0.94
  -2   1  12    1.99    0.77
   1  -1 -12    0.37    0.67
   1  -1 -12    0.81    0.43
  -1   1  12    0.60    0.65
  -1   1  12    0.96    0.57
   0  -1 -12   15.07    1.79
   0  -1 -12   17.52    1.34
   0   1  12   17.80    2.07
   0   1  12   15.05    2.00
  -1  -1 -12   -0.64    0.52
  -1  -1 -12   -0.34    0.44
   1   1  12    0.79    0.56
   1   1  12    1.98    0.96
  -2  -1 -12   10.76    1.75
   2   1  12    9.25    1.75
   2   1  12   10.37    1.53
  -3  -1 -12    5.37    1.45
   3   1  12    3.80    1.30
   3   1  12    4.80    1.26
  -4  -1 -12   -1.46    0.86
   4   1  12    0.64    0.83
   4   1  12    0.70    0.91
   5  -2 -12    3.87    1.30
   4  -2 -12    5.58    1.40
  -4   2  12    8.90    1.46
   3  -2 -12    0.22    0.53
  -3   2  12   -0.20    0.55
   2  -2 -12    1.26    0.87
  -2   2  12    1.14    0.77
   1  -2 -12   88.94    5.00
  -1   2  12   88.28    4.90
  -1   2  12   96.60    5.10
   0  -2 -12   -0.65    0.45
   0   2  12    0.00    0.42
   0   2  12    0.40    0.63
  -1  -2 -12   14.84    1.71
   1   2  12   15.24    1.68
   1   2  12   14.82    2.20
  -2  -2 -12    1.28    0.95
   2   2  12    0.86    0.74
   2   2  12    1.34    0.71
  -3  -2 -12    4.43    1.32
   3   2  12    2.02    0.91
   3   2  12    2.22    1.29
  -4  -2 -12    4.73    1.61
   4   2  12    2.44    1.06
   4   2  12    5.08    1.76
   5  -3 -12    8.60    1.83
  -5   3  12    9.27    1.61
   4  -3 -12    0.23    0.80
  -4   3  12    0.75    0.74
   3  -3 -12    3.21    1.25
  -3   3  12    4.38    1.06
   2  -3 -12   18.08    2.27
  -2   3  12   20.39    2.43
  -2   3  12   16.75    2.08
   1  -3 -12    7.57    1.38
  -1   3  12   10.59    1.64
  -1   3  12    6.91    1.38
   0  -3 -12   21.53    2.23
   0   3  12   22.73    2.57
   0   3  12   22.28    2.46
  -1  -3 -12    2.78    0.87
   1   3  12    3.11    1.13
   1   3  12    0.47    0.88
   1   3  12    1.27    0.59
  -2  -3 -12    2.10    1.05
   2   3  12    2.51    0.84
   2   3  12    2.72    1.19
  -3  -3 -12    1.45    0.89
   3   3  12    3.09    1.35
   3   3  12    1.87    0.93
  -4  -3 -12   -0.28    0.96
   4   3  12    0.74    0.84
   4   3  12    0.89    1.19
   5  -4 -12   -0.53    0.89
  -5   4  12   -0.06    0.70
   4  -4 -12    2.55    1.13
  -4   4  12    5.85    1.36
   3  -4 -12    0.68    0.73
  -3   4  12    0.41    0.72
   2  -4 -12   -0.34    0.75
  -2   4  12   -0.06    0.45
   1  -4 -12    1.23    0.83
  -1   4  12    0.01    0.49
  -1   4  12   -0.29    0.54
   0  -4 -12    2.85    1.01
   0   4  12    1.76    0.97
   0   4  12    1.75    0.93
  -1  -4 -12    3.11    0.96
   1   4  12    1.55    0.91
   1   4  12    3.07    1.05
  -2  -4 -12    8.00    1.67
   2   4  12   11.88    2.08
  -3  -4 -12    1.07    0.80
   3   4  12    0.34    0.83
   4  -5 -12    2.33    1.20
  -4   5  12    4.04    1.15
   3  -5 -12   -0.41    0.86
  -3   5  12    1.30    0.67
   2  -5 -12    1.36    0.88
  -2   5  12    1.12    0.85
   1  -5 -12    0.03    0.58
  -1   5  12    0.95    0.77
  -1   5  12    0.40    0.76
   0  -5 -12    9.47    1.71
   0   5  12   12.68    1.90
   0   5  12    9.99    1.79
  -1  -5 -12   13.65    1.85
   1   5  12    8.77    1.87
   1   5  12    9.13    1.79
  -2  -5 -12    0.75    0.79
   2   5  12    0.29    0.69
  -3  -5 -12    8.00    1.93
   3   5  12   10.52    2.22
   4  -6 -12    3.00    1.49
  -4   6  12    2.23    1.07
   3  -6 -12    7.41    1.81
  -3   6  12   10.09    1.76
   2  -6 -12    0.85    0.89
  -2   6  12    0.76    0.83
   1  -6 -12   -0.57    0.71
  -1   6  12    0.46    0.74
  -1   6  12    0.08    0.56
   0  -6 -12    3.54    1.16
   0   6  12    5.71    1.47
   0   6  12    3.57    1.24
  -1  -6 -12    0.38    0.79
   1   6  12    0.49    0.75
   1   6  12    0.08    0.95
   2   6  12    6.40    1.84
   3  -7 -12    2.73    1.15
  -3   7  12    1.09    0.77
   2  -7 -12    1.05    1.13
  -2   7  12    0.79    0.85
   1  -7 -12   11.10    1.99
  -1   7  12    8.12    1.65
  -1   7  12   11.03    1.97
   0  -7 -12   -0.52    0.64
   0   7  12   -0.11    0.80
   0   7  12    0.16    0.96
  -1  -7 -12    3.11    1.22
   1   7  12    2.92    1.38
   1   7  12    3.96    1.40
   2  -8 -12    0.69    0.90
  -2   8  12    0.82    1.03
   1  -8 -12    3.53    1.39
  -1   8  12    1.29    1.59
  -1   8  12    1.89    0.92
   0  -8 -12    9.82    1.94
   0   8  12   10.14    1.93
   0   8  12    8.97    1.91
   1  12 -13    1.01    0.88
  -1 -12  13    0.55    1.06
  -1 -12  13    0.14    0.96
   0  12 -13    4.17    1.41
   0 -12  13    5.53    1.45
   0 -12  13    5.38    1.65
  -1  12 -13   -0.86    0.66
   1 -12  13    2.07    1.06
   2  11 -13   -1.40    0.72
  -2 -11  13    0.14    1.02
  -2 -11  13   -0.64    0.72
   1  11 -13   -0.54    0.53
  -1 -11  13   -1.43    0.71
  -1 -11  13    0.63    0.75
   0  11 -13    4.84    1.39
   0 -11  13    1.79    1.21
   0 -11  13    4.42    1.40
  -1  11 -13    4.40    1.34
   1 -11  13    4.57    1.33
  -2  11 -13    0.33    0.91
   2 -11  13   -0.40    0.83
   3  10 -13   -0.01    0.85
  -3 -10  13    2.12    1.32
   2  10 -13   -0.92    0.74
  -2 -10  13    0.38    0.80
  -2 -10  13   -0.69    0.83
   1  10 -13   -0.63    0.75
  -1 -10  13    1.60    0.92
  -1 -10  13    0.22    0.71
   0  10 -13    2.57    1.03
   0 -10  13    1.94    0.99
   0 -10  13    4.36    1.32
  -1  10 -13    0.10    0.74
   1 -10  13    0.14    0.84
   1 -10  13    0.19    0.57
  -2  10 -13    7.37    1.54
   2 -10  13   12.51    2.08
   3 -10  13   -0.73    0.91
   3 -10  13   -1.53    0.76
   3   9 -13   -0.13    0.95
  -3  -9  13    0.63    0.73
   2   9 -13    1.21    0.82
  -2  -9  13    0.44    0.69
  -2  -9  13    1.42    1.03
   1   9 -13    3.39    1.19
  -1  -9  13    3.17    1.21
  -1  -9  13    4.64    1.32
   0   9 -13   -0.36    0.52
   0  -9  13   -0.70    0.65
   0  -9  13    0.46    0.62
  -1   9 -13    1.68    0.76
   1  -9  13    1.01    0.86
   1  -9  13    2.70    1.15
   2  -9  13    4.16    1.23
  -3   9 -13   20.89    2.56
   3  -9  13   17.42    2.50
   3  -9  13   22.15    2.72
   4   8 -13    6.51    1.60
  -4  -8  13    7.68    1.83
   3   8 -13    6.36    1.39
  -3  -8  13    6.84    1.70
   2   8 -13    3.30    1.12
  -2  -8  13    3.60    1.30
  -2  -8  13    3.13    1.19
   1   8 -13    6.14    1.38
  -1  -8  13    2.16    1.07
  -1  -8  13    2.57    1.03
   0   8 -13    0.35    0.56
   0  -8  13    0.13    0.54
   0  -8  13    0.08    0.66
  -1   8 -13    1.01    0.67
   1  -8  13   -0.12    0.55
   1  -8  13    1.02    0.83
  -2   8 -13    0.07    0.76
   2  -8  13    1.16    0.87
   2  -8  13    1.65    1.06
  -3   8 -13    4.59    1.37
   3  -8  13    3.96    1.44
   3  -8  13    2.81    1.22
  -4   8 -13   32.77    3.51
   4  -8  13   29.33    3.19
   4  -8  13   31.50    3.43
   4   7 -13   15.87    2.21
  -4  -7  13    9.34    2.12
   3   7 -13   29.12    2.93
  -3  -7  13   31.10    3.39
   2   7 -13    0.36    0.61
  -2  -7  13   -0.13    0.76
   1   7 -13   -1.00    0.33
  -1  -7  13    0.52    0.61
  -1  -7  13    0.91    0.85
   0   7 -13    9.00    1.54
   0  -7  13    6.79    1.43
   0  -7  13    9.85    1.69
  -1   7 -13    0.00    0.44
   1  -7  13    0.67    0.63
   1  -7  13    0.13    0.60
  -2   7 -13   11.84    1.79
   2  -7  13   18.97    2.43
   2  -7  13   14.22    2.04
  -3   7 -13    0.87    0.91
   3  -7  13    0.61    0.86
   3  -7  13   -1.69    0.55
  -4   7 -13    3.32    1.28
   4  -7  13    0.40    0.76
   4  -7  13    0.97    0.87
   4   6 -13    3.60    1.26
  -4  -6  13    1.11    0.86
   3   6 -13    3.92    1.15
  -3  -6  13    5.11    1.57
   2   6 -13    7.42    1.44
  -2  -6  13   10.31    1.86
   1   6 -13    1.05    0.72
  -1  -6  13    1.26    0.88
  -1  -6  13    1.11    0.86
   0   6 -13    4.10    1.05
   0  -6  13    5.20    1.20
   0  -6  13    5.73    1.28
  -1   6 -13    1.09    0.72
   1  -6  13    2.60    0.90
   1  -6  13    0.24    0.58
  -2   6 -13    7.16    1.44
   2  -6  13    9.06    1.60
   2  -6  13    7.72    1.54
  -3   6 -13   -0.82    0.71
   3  -6  13    0.25    0.72
   3  -6  13    0.31    0.65
  -4   6 -13    9.60    1.89
   4  -6  13    7.13    1.49
   4  -6  13    4.56    1.41
   5   5 -13    0.40    0.96
  -5  -5  13    0.10    1.10
   4   5 -13    0.85    0.67
  -4  -5  13    1.32    1.03
   3   5 -13    1.35    0.71
  -3  -5  13    0.40    0.69
   2   5 -13    3.88    1.03
  -2  -5  13    2.82    1.17
   1   5 -13    0.16    0.55
  -1  -5  13   -0.02    0.77
  -1  -5  13    1.90    0.87
   0   5 -13    2.69    0.79
   0   5 -13    2.03    0.74
   0  -5  13    3.73    1.04
   0  -5  13    3.67    1.13
  -1   5 -13   38.75    2.71
   1  -5  13   41.60    3.00
   1  -5  13   37.89    2.95
   1  -5  13   40.28    2.77
  -2   5 -13    2.08    0.92
   2  -5  13    2.50    0.93
   2  -5  13    3.30    0.95
  -3   5 -13    1.23    0.80
   3  -5  13    0.08    0.70
   3  -5  13    1.19    0.73
  -4   5 -13   -0.10    0.87
   4  -5  13    2.40    1.02
   4  -5  13    0.71    1.25
   5   4 -13   21.65    2.59
  -5  -4  13   20.04    2.95
   4   4 -13    0.79    0.77
  -4  -4  13    0.49    0.94
   3   4 -13    4.79    1.14
  -3  -4  13    2.84    1.04
   2   4 -13    2.79    0.91
  -2  -4  13    5.68    1.43
   1   4 -13    5.93    1.10
  -1  -4  13    6.61    1.44
   0   4 -13    0.01    0.44
   0   4 -13    1.48    0.70
   0  -4  13    0.75    0.60
   0  -4  13    1.34    0.71
  -1   4 -13   12.08    1.61
   1  -4  13   10.75    1.64
   1  -4  13   15.83    1.99
  -2   4 -13    0.42    0.72
   2  -4  13    0.92    0.77
   2  -4  13    0.62    0.63
  -3   4 -13    6.73    1.56
   3  -4  13    5.88    1.48
   3  -4  13    6.88    1.36
  -4   4 -13    6.18    1.62
   4  -4  13    4.49    1.33
   5   3 -13   24.74    2.67
  -5  -3  13   25.86    3.26
   4   3 -13    2.93    0.90
  -4  -3  13    1.90    1.20
   3   3 -13   -0.77    0.42
  -3  -3  13   -0.15    0.57
   2   3 -13    1.07    0.55
  -2  -3  13    1.75    0.97
   1   3 -13    1.82    0.68
   1   3 -13    2.58    0.72
  -1  -3  13    1.88    0.86
   0   3 -13    2.88    0.81
   0   3 -13    1.62    0.75
   0  -3  13    2.81    0.92
  -1   3 -13    2.14    0.79
   1  -3  13    3.40    1.01
   1  -3  13    1.94    0.93
  -2   3 -13    3.38    1.06
   2  -3  13    4.35    1.22
   2  -3  13    3.16    0.89
  -3   3 -13    9.39    1.73
   3  -3  13    9.45    1.79
   3  -3  13   11.65    1.91
  -4   3 -13   -0.18    0.63
   4  -3  13   -0.06    0.74
  -5  -2  13    2.67    1.27
   4   2 -13    5.40    1.20
  -4  -2  13    8.16    1.82
   3   2 -13    5.05    1.02
  -3  -2  13    6.79    1.62
   2   2 -13    5.31    1.02
  -2  -2  13    8.42    1.62
   1   2 -13    5.45    1.00
   1   2 -13    5.03    0.97
   0   2 -13    3.84    0.92
   0   2 -13    1.65    0.72
   0   2 -13    2.88    0.77
  -1   2 -13    0.35    0.63
   1  -2  13   -0.41    0.57
   1  -2  13   -0.02    0.56
  -2   2 -13    1.87    0.78
   2  -2  13    1.22    0.89
   2  -2  13    1.75    0.73
  -3   2 -13    3.64    1.28
   3  -2  13    3.78    1.20
  -4   2 -13    1.64    0.94
   4  -2  13    1.36    1.10
   3   1 -13   -0.31    0.48
  -3  -1  13   -0.17    0.53
   2   1 -13    2.82    0.95
   2   1 -13    4.40    0.90
  -2  -1  13    5.64    1.10
   1   1 -13    0.35    0.45
   1   1 -13    0.69    0.66
   0   1 -13    0.39    0.56
   0   1 -13   -0.43    0.42
   0   1 -13    0.49    0.51
  -1   1 -13    3.20    0.96
  -1   1 -13    2.69    0.96
   1  -1  13    2.94    0.98
   1  -1  13    3.31    1.03
  -2   1 -13   -0.40    0.46
   2  -1  13    0.76    0.79
   2  -1  13    0.42    0.60
  -3   1 -13    3.20    1.16
   3  -1  13    3.91    1.30
   3  -1  13    3.73    1.05
  -4   1 -13    8.64    1.86
   4  -1  13    8.04    1.67
   4  -1  13    8.79    1.92
   5   0 -13    1.15    0.94
   4   0 -13    6.29    1.58
   3   0 -13    3.54    1.24
  -3   0  13    4.03    1.02
   2   0 -13    0.66    0.75
  -2   0  13    0.87    0.64
   1   0 -13    7.27    1.31
   1   0 -13    5.14    0.90
  -1   0  13    6.14    1.20
   0   0 -13    9.15    1.40
   0   0 -13    6.61    1.26
   0   0 -13    7.47    1.07
   0   0  13    5.40    1.34
  -1   0 -13   22.97    2.48
  -1   0 -13   23.50    2.52
   1   0  13   23.97    2.31
   1   0  13   24.21    2.80
  -2   0 -13    7.00    1.51
   2   0  13    4.04    1.13
   2   0  13    8.42    1.69
  -3   0 -13    6.87    1.63
   3   0  13    4.50    1.46
   3   0  13    6.79    1.52
  -4   0 -13    9.08    1.83
   4   0  13    8.23    1.77
   4   0  13    9.95    2.27
   5  -1 -13   45.01    3.76
   4  -1 -13    3.04    1.08
  -4   1  13    0.64    0.77
   3  -1 -13    1.14    0.93
  -3   1  13    0.36    0.58
   2  -1 -13    7.49    1.55
  -2   1  13    5.99    1.30
   1  -1 -13    0.49    0.71
  -1   1  13   -0.29    0.61
  -1   1  13   -0.15    0.56
   0  -1 -13   12.89    1.67
   0   1  13   13.30    1.90
   0   1  13    8.60    1.55
  -1  -1 -13    2.34    1.04
  -1  -1 -13    2.91    1.07
   1   1  13    2.90    0.90
   1   1  13    1.19    0.90
  -2  -1 -13    1.12    0.89
   2   1  13   -0.18    0.83
   2   1  13    1.59    0.87
  -3  -1 -13   -0.60    0.54
   3   1  13    1.32    0.86
   3   1  13    1.15    1.18
  -4  -1 -13    3.59    1.35
   4   1  13    5.09    1.35
   4   1  13    2.32    1.29
   5  -2 -13   40.16    4.11
   4  -2 -13   -0.13    0.61
  -4   2  13    0.51    0.73
   3  -2 -13    5.18    1.39
  -3   2  13    6.44    1.32
   2  -2 -13    0.52    0.80
  -2   2  13    1.03    0.75
   1  -2 -13   12.34    1.86
  -1   2  13   16.77    2.10
  -1   2  13   14.80    1.97
   0  -2 -13   11.80    1.65
   0   2  13   11.75    1.88
   0   2  13    9.75    1.72
  -1  -2 -13    3.73    1.22
  -1  -2 -13    3.44    1.04
   1   2  13    4.37    1.03
   1   2  13    4.24    1.28
  -2  -2 -13    6.36    1.57
   2   2  13    6.02    1.70
   2   2  13    4.24    1.16
  -3  -2 -13    0.08    0.95
   3   2  13    0.82    0.94
   3   2  13   -0.17    0.67
  -4   3  13    1.79    0.78
   3  -3 -13   12.16    2.09
  -3   3  13    8.96    1.56
   2  -3 -13    4.55    1.41
  -2   3  13    8.04    1.52
   1  -3 -13   14.24    1.95
  -1   3  13   14.25    2.02
  -1   3  13   16.27    2.09
   0  -3 -13    0.52    0.73
   0   3  13    0.39    0.79
   0   3  13    1.29    0.95
   1   3  13   12.65    2.14
  -2  -3 -13   13.41    2.22
   2   3  13   10.17    2.08
  -3  -3 -13   16.05    2.52
   3   3  13   14.17    2.64
   4  -4 -13    1.87    1.26
  -4   4  13    3.92    1.25
   3  -4 -13    0.09    0.92
  -3   4  13   -0.39    0.66
   2  -4 -13    9.14    1.79
  -2   4  13    9.96    1.71
   1  -4 -13   11.36    1.83
  -1   4  13   15.98    2.20
  -1   4  13   11.17    1.84
   0  -4 -13    0.49    0.74
   0   4  13    1.37    0.95
   0   4  13    0.53    0.83
   1   4  13    9.08    1.79
   1   4  13   11.48    2.06
  -2  -4 -13    4.23    1.46
   2   4  13    6.31    1.66
   4  -5 -13    5.93    1.59
  -4   5  13    5.61    1.37
   3  -5 -13    0.73    0.88
  -3   5  13    1.99    0.91
   2  -5 -13    5.91    1.42
  -2   5  13    5.09    1.33
   1  -5 -13   -0.11    0.88
  -1   5  13   -0.02    0.76
  -1   5  13    1.63    0.87
   0  -5 -13   -0.50    0.70
   0   5  13    0.60    0.68
   0   5  13   -0.18    0.76
   1   5  13    2.34    1.27
   1   5  13    3.78    1.45
  -2  -5 -13    7.94    1.72
   2   5  13    7.26    1.86
   3  -6 -13    1.38    1.01
  -3   6  13    2.16    1.13
   2  -6 -13    4.13    1.25
  -2   6  13    4.21    1.23
   1  -6 -13   -0.01    0.84
  -1   6  13    0.80    0.69
   0  -6 -13    0.91    0.81
   0   6  13    0.38    0.87
   0   6  13    0.56    0.70
   1   6  13    0.30    1.12
   1   6  13    0.16    0.74
   1  -7 -13   13.08    2.09
  -1   7  13   11.68    2.12
   1  11 -14   -0.14    0.97
  -1 -11  14   -0.06    0.72
  -1 -11  14    0.30    0.66
   0  11 -14    2.92    1.16
   0 -11  14    0.58    0.75
   0 -11  14    2.21    1.14
  -1  11 -14    2.89    1.15
   1 -11  14    2.43    1.33
   2  10 -14    1.25    1.09
  -2 -10  14    3.82    1.50
  -2 -10  14    1.65    1.20
   1  10 -14    2.47    1.09
  -1 -10  14    1.36    1.13
  -1 -10  14    1.11    1.09
   0  10 -14   -0.80    0.77
   0 -10  14    0.61    0.76
   0 -10  14   -1.29    0.75
  -1  10 -14   19.30    2.59
   1 -10  14   22.30    2.90
  -2  10 -14    0.21    0.86
   2 -10  14    1.53    1.06
   3   9 -14   18.90    2.57
  -3  -9  14   18.90    2.82
   2   9 -14    5.63    1.42
  -2  -9  14    4.06    1.38
  -2  -9  14    4.57    1.62
   1   9 -14   13.81    2.08
  -1  -9  14   15.39    2.29
  -1  -9  14   12.13    2.15
   0   9 -14   -1.53    0.64
   0  -9  14    0.29    0.77
   0  -9  14    0.78    0.77
  -1   9 -14    0.71    0.67
   1  -9  14   -0.17    0.80
   2  -9  14    0.97    0.74
   3  -9  14    7.53    1.79
   3  -9  14    8.67    1.78
   3   8 -14    9.25    1.69
  -3  -8  14    7.58    1.84
   2   8 -14   11.64    1.93
  -2  -8  14   12.37    2.16
   1   8 -14   10.92    1.77
  -1  -8  14   14.36    2.25
  -1  -8  14   14.57    2.30
   0   8 -14    0.11    0.63
   0  -8  14    0.14    0.89
   0  -8  14   -0.18    0.78
  -1   8 -14    8.08    1.48
   1  -8  14    7.98    1.65
   2  -8  14    4.30    1.31
  -3   8 -14    7.49    1.67
   3  -8  14    8.56    1.74
   3  -8  14    9.06    1.98
   4   7 -14   -1.09    0.76
  -4  -7  14   -0.03    0.82
   3   7 -14    0.68    0.68
  -3  -7  14    0.29    1.09
   2   7 -14   12.86    1.86
  -2  -7  14    9.83    2.07
   1   7 -14   40.52    3.18
  -1  -7  14   50.21    3.66
  -1  -7  14   45.81    3.62
   0   7 -14    1.09    0.74
   0  -7  14    4.63    1.29
   0  -7  14    2.87    1.18
  -1   7 -14    0.21    0.65
   1  -7  14   -0.22    0.67
   1  -7  14    0.48    0.63
  -2   7 -14    3.05    1.06
   2  -7  14    0.63    1.03
   2  -7  14    1.96    1.05
  -3   7 -14    7.84    1.74
   3  -7  14    4.86    1.34
   3  -7  14    8.86    1.91
   4   6 -14   -0.72    0.84
  -4  -6  14    2.16    1.30
   3   6 -14    1.58    0.77
  -3  -6  14    0.23    0.75
   2   6 -14    0.11    0.56
  -2  -6  14   -0.36    0.80
   1   6 -14    4.69    1.10
  -1  -6  14    4.81    1.30
  -1  -6  14    6.92    1.60
   0   6 -14   19.30    2.24
   0  -6  14   18.39    2.32
   0  -6  14   17.15    2.36
  -1   6 -14    0.38    0.61
   1  -6  14    1.72    0.80
   1  -6  14    1.30    0.81
  -2   6 -14    1.29    0.91
   2  -6  14    0.38    0.85
   2  -6  14    0.13    0.78
  -3   6 -14    4.83    1.45
   3  -6  14    3.77    1.38
   3  -6  14    6.10    1.38
   4   5 -14   49.84    3.48
  -4  -5  14   52.57    4.29
   3   5 -14    4.15    1.11
  -3  -5  14    5.07    1.47
   2   5 -14   -0.13    0.43
  -2  -5  14    0.51    0.69
   1   5 -14   -0.37    0.56
  -1  -5  14   -0.34    0.69
   0   5 -14    0.40    0.53
   0  -5  14    0.13    0.59
   0  -5  14    0.87    0.73
  -1   5 -14    0.47    0.66
   1  -5  14    0.88    0.80
  -2   5 -14   22.45    2.51
   2  -5  14   26.40    2.72
   2  -5  14   20.50    2.62
  -3   5 -14    0.58    0.82
   3  -5  14    2.96    1.01
   3  -5  14    0.12    0.79
   4   4 -14    8.48    1.58
  -4  -4  14    9.23    1.97
   3   4 -14    1.00    0.76
  -3  -4  14    0.41    0.69
   2   4 -14    2.54    0.92
  -2  -4  14    1.90    1.06
   1   4 -14    2.30    0.81
   0   4 -14    1.65    0.86
   0   4 -14    3.87    1.04
   0  -4  14    3.04    1.12
   0  -4  14    1.72    0.92
  -1   4 -14    3.19    0.98
   1  -4  14    3.00    1.03
  -2   4 -14    1.77    0.88
   2  -4  14    2.97    1.19
   2  -4  14    1.20    0.80
  -3   4 -14   -0.16    0.64
   3  -4  14   -0.87    0.75
   4   3 -14   -0.70    0.60
  -4  -3  14   -0.38    0.60
   3   3 -14    3.46    0.98
  -3  -3  14    0.74    0.75
   2   3 -14    8.95    1.43
  -2  -3  14    9.03    1.78
   1   3 -14   -0.50    0.47
  -1  -3  14   -0.68    0.63
   0   3 -14    0.71    0.62
   0   3 -14   -0.29    0.48
   0   3 -14    0.60    0.59
  -1   3 -14    3.63    1.10
   1  -3  14    0.60    0.84
   1  -3  14    2.30    0.98
  -2   3 -14    3.58    1.17
   2  -3  14    2.18    0.96
   2  -3  14    1.00    0.76
  -3   3 -14    0.32    0.86
   3  -3  14    0.81    0.82
  -4  -2  14    1.80    1.07
   3   2 -14    0.27    0.67
  -3  -2  14   -0.35    0.57
   2   2 -14   -0.92    0.41
   1   2 -14    1.63    0.92
   1   2 -14    1.01    0.62
   1   2 -14    1.24    0.65
   0   2 -14    2.90    0.94
   0   2 -14    4.42    1.07
   0   2 -14    4.38    1.01
  -1   2 -14    0.72    0.70
   1  -2  14    0.53    0.72
  -2   2 -14    0.19    0.74
   2  -2  14    1.29    0.91
  -3   2 -14    2.45    0.98
   3  -2  14    2.49    1.20
   4   1 -14   -0.16    0.66
   3   1 -14    3.93    1.32
   2   1 -14   -0.33    0.65
  -2  -1  14    0.11    0.63
   1   1 -14    0.06    0.57
   1   1 -14    0.90    0.55
   1   1 -14    0.67    0.60
   0   1 -14   11.46    1.65
   0   1 -14   12.07    1.46
   0   1 -14    8.12    1.42
  -1   1 -14    3.77    1.08
   1  -1  14    2.19    0.91
  -2   1 -14    2.19    1.09
   2  -1  14    3.29    1.00
   2  -1  14    2.76    1.07
  -3   1 -14    7.94    1.76
   3  -1  14    4.49    1.49
   3  -1  14    8.27    1.67
   4   0 -14   20.01    2.74
   3   0 -14    0.32    0.86
  -3   0  14    0.32    0.65
   2   0 -14    3.11    1.06
  -2   0  14    2.95    0.98
   1   0 -14    9.02    1.60
  -1   0  14    5.13    1.29
   0   0 -14   -0.49    0.57
   0   0 -14    0.30    0.62
  -1   0 -14   16.12    2.16
   1   0  14   12.91    1.81
   1   0  14   12.89    2.06
  -2   0 -14   26.35    2.86
   2   0  14   18.35    2.30
   2   0  14   20.65    2.86
  -3   0 -14    1.56    1.05
   3   0  14    0.01    0.87
   3   0  14   -0.29    0.81
   4  -1 -14    8.19    1.78
   3  -1 -14   -0.97    0.42
  -3   1  14    1.06    0.79
   2  -1 -14    1.37    1.00
  -2   1  14    0.25    0.70
   1  -1 -14    0.06    0.58
  -1   1  14    0.53    0.63
   0  -1 -14   15.79    1.99
   0   1  14   17.81    2.37
  -1  -1 -14    1.09    0.93
   1   1  14   -1.23    0.57
   1   1  14    1.47    0.91
  -2  -1 -14    1.68    1.02
   2   1  14    2.18    1.19
   2   1  14   -0.17    0.69
  -3  -1 -14   43.45    4.16
   3   1  14   31.41    3.87
   3   1  14   38.86    3.16
   4  -2 -14    1.93    1.23
   3  -2 -14    1.06    0.82
  -3   2  14    0.65    0.60
   2  -2 -14   10.02    1.85
  -2   2  14   14.65    2.10
   1  -2 -14   33.36    2.87
  -1   2  14   39.77    3.01
  -1   2  14   36.41    2.90
   0  -2 -14    2.49    0.88
   0   2  14    2.01    1.08
   0   2  14    0.88    0.99
  -1  -2 -14    2.44    1.13
   1   2  14    3.64    1.39
  -2  -2 -14    0.78    0.94
   2   2  14   -0.33    0.70
   3  -3 -14    8.73    1.89
  -3   3  14    7.35    1.56
   2  -3 -14   19.22    2.61
  -2   3  14   20.45    2.51
   1  -3 -14    7.75    1.64
  -1   3  14    7.41    1.62
  -1   3  14    8.09    1.56
   0  -3 -14    0.60    0.87
   0   3  14    0.73    0.80
   0   3  14   -1.00    0.69
  -1  -3 -14    7.19    1.60
   1   3  14   11.46    2.11
  -2  -3 -14   -0.84    0.76
   2   3  14    0.01    1.07
   3  -4 -14   14.77    2.40
  -3   4  14   11.21    2.00
   2  -4 -14    0.86    1.06
  -2   4  14    0.73    0.86
   1  -4 -14    1.23    0.90
  -1   4  14    0.50    0.85
   0  -4 -14   -0.19    0.77
   0   4  14    0.79    1.04
   0   4  14   -0.35    0.66
   1   4  14    0.78    1.13
   2  -5 -14    7.96    1.75
  -2   5  14    8.20    1.74
   1  -5 -14    6.57    1.71
  -1   5  14   11.81    2.06
   0  -5 -14    0.34    0.59
   0   5  14    1.21    1.15
   0   5  14    1.76    1.10
   0  10 -15    1.04    0.76
   0 -10  15   -0.71    0.98
   0 -10  15    0.94    0.86
   1   9 -15    5.19    1.48
  -1  -9  15    5.28    1.55
  -1  -9  15    5.12    1.65
   0   9 -15    2.74    1.18
   0  -9  15    2.80    1.26
   0  -9  15    1.54    1.12
  -1   9 -15    1.95    1.05
   1  -9  15   -0.35    0.54
   2   8 -15   22.30    2.64
  -2  -8  15   22.19    3.02
   1   8 -15    1.24    1.03
  -1  -8  15    1.37    1.14
  -1  -8  15    0.21    0.75
   0   8 -15    1.51    1.16
   0  -8  15    1.74    1.02
   0  -8  15    2.79    1.19
  -1   8 -15   -0.07    0.84
   1  -8  15   -1.07    0.76
   2  -8  15    0.02    0.86
   3   7 -15   18.81    2.44
  -3  -7  15   21.43    3.11
   2   7 -15    4.30    1.36
  -2  -7  15    3.51    1.37
   1   7 -15    3.38    1.06
  -1  -7  15    3.90    1.37
  -1  -7  15    0.73    0.82
   0   7 -15    1.34    0.81
   0  -7  15    2.66    1.06
   0  -7  15    3.01    1.17
  -1   7 -15    6.29    1.35
   1  -7  15    8.48    1.75
   2  -7  15    0.40    0.95
   3   6 -15   15.10    2.13
  -3  -6  15   16.17    2.57
   2   6 -15    2.25    1.05
  -2  -6  15    2.83    1.21
   1   6 -15   -1.17    0.57
  -1  -6  15    1.18    0.92
   0   6 -15   -0.48    0.73
   0  -6  15    0.20    0.89
   0  -6  15    0.06    0.70
  -1   6 -15   32.38    3.11
   1  -6  15   30.07    3.24
  -2   6 -15    4.97    2.10
   2  -6  15    3.05    1.26
   2  -6  15    3.71    1.28
   3   5 -15    0.24    0.76
  -3  -5  15    0.36    0.88
   2   5 -15    2.00    1.01
  -2  -5  15    4.36    1.36
   1   5 -15    0.38    0.73
  -1  -5  15    0.16    0.76
   0   5 -15   18.44    2.18
   0  -5  15   19.05    2.55
   0  -5  15   18.55    2.37
  -1   5 -15   -0.07    0.73
   1  -5  15   -0.47    0.77
  -2   5 -15    0.12    0.82
   2  -5  15   -0.03    0.87
   2  -5  15    1.29    0.92
  -3   5 -15    7.35    1.72
   3  -5  15    6.64    1.63
   3   4 -15    3.42    1.14
  -3  -4  15    3.44    1.33
   2   4 -15    0.52    0.75
  -2  -4  15    0.44    0.66
   1   4 -15    7.29    1.36
  -1  -4  15    5.18    1.55
   0   4 -15    2.60    1.01
  -1   4 -15    0.66    0.79
  -1   4 -15    1.40    0.98
   1  -4  15    0.52    0.67
  -2   4 -15   -1.12    0.66
   2  -4  15   -0.82    0.61
   2  -4  15   -0.10    0.64
  -3   4 -15    6.55    1.62
   3  -4  15    7.21    1.74
  -4  -3  15    0.85    1.24
   3   3 -15    1.90    0.92
  -3  -3  15    1.27    1.10
   2   3 -15    0.91    0.74
  -2  -3  15    2.07    1.00
   1   3 -15    8.68    1.62
   1   3 -15    9.36    1.49
   0   3 -15    1.56    0.83
  -1   3 -15    1.56    0.92
  -2   3 -15   -0.24    0.74
   2  -3  15   -1.59    0.71
  -3   3 -15   -0.05    0.96
   3  -3  15    2.04    1.15
   2   2 -15    7.69    1.61
   1   2 -15    2.79    0.96
   1   2 -15    4.99    1.10
   0   2 -15    1.12    0.85
   0   2 -15    0.29    0.67
  -1   2 -15    5.43    1.28
  -2   2 -15    5.38    1.38
   2  -2  15    3.31    1.15
  -3   2 -15    0.55    1.05
   4   1 -15    6.79    1.77
   3   1 -15    0.48    0.76
   2   1 -15    0.25    0.86
   1   1 -15    4.03    1.24
   0   1 -15   50.57    3.49
  -1   1 -15   17.55    2.29
  -2   1 -15    1.16    1.00
   2  -1  15   -0.70    0.79
   3   0 -15   -0.34    0.55
   2   0 -15   10.38    1.94
  -2   0  15   13.63    2.02
   1   0 -15    4.86    1.20
   1   0 -15    3.72    1.18
   0   0 -15   49.69    3.55
  -1   0 -15    3.45    1.22
  -2   0 -15    2.32    1.18
   2   0  15    0.93    1.01
   2   0  15    1.17    1.15
   3  -1 -15    3.38    1.37
  -3   1  15    2.39    1.11
   2  -1 -15   11.62    2.02
  -2   1  15   14.05    2.05
   1  -1 -15    3.10    1.20
  -1   1  15    5.88    1.46
   0  -1 -15    1.00    0.70
   0   1  15    1.26    0.94
  -1  -1 -15    0.78    0.90
   1   1  15   -1.42    0.78
  -2  -1 -15   13.11    2.21
   2   1  15   12.21    2.34
   3  -2 -15    7.96    1.94
  -3   2  15    5.98    1.49
   2  -2 -15   45.30    3.50
  -2   2  15   40.43    3.21
   1  -2 -15   20.86    2.60
  -1   2  15   24.55    2.84
   0   2  15    4.17    1.36
  -1  -2 -15    0.86    1.02
   1   2  15   -0.47    0.58
   2  -3 -15    7.67    1.81
  -2   3  15    9.91    1.77
   1  -3 -15    1.43    0.81
  -1   3  15    3.05    1.27
   0   3  15    2.37    1.13
   0   3  15    3.68    1.37
   0  -8  16    1.60    1.21
   1   7 -16    1.49    0.98
  -1  -7  16    1.95    1.12
   0   7 -16   18.73    2.49
   0  -7  16   18.50    2.71
   0  -7  16   17.93    2.48
  -1   7 -16   10.13    1.74
   1  -7  16    7.11    1.80
   2   6 -16    1.29    0.95
  -2  -6  16    1.28    0.93
   1   6 -16    2.98    1.13
  -1  -6  16    2.04    1.03
   0   6 -16    1.14    0.93
   0  -6  16    1.81    1.03
   0  -6  16    1.32    0.98
  -1   6 -16   35.45    3.46
   1  -6  16   39.28    3.86
   2   5 -16    2.36    1.07
  -2  -5  16    2.32    1.04
   1   5 -16    2.91    1.09
  -1  -5  16    1.74    1.10
   0   5 -16    0.50    0.64
  -1   5 -16    1.23    0.69
   1  -5  16    1.09    0.96
   2   4 -16    1.16    0.92
  -2  -4  16    1.91    1.23
   1   4 -16    0.10    0.74
   1   4 -16    0.27    0.83
   0   4 -16    9.97    1.71
  -1   4 -16    1.51    0.96
   2   3 -16    1.66    1.09
   1   3 -16    1.16    0.93
   1   3 -16    1.67    1.08
   0   3 -16    6.41    1.37
  -1   3 -16    5.05    1.30
   2   2 -16    5.06    1.49
   1   2 -16    1.47    0.97
  -1   2 -16   32.50    3.26
   2   1 -16   -0.19    0.91
   1   1 -16   15.24    2.26
   0   1 -16    3.19    1.13
  -1   1 -16   11.17    1.97
   2   0 -16    1.30    0.92
   1   0 -16   25.46    2.87
   0   0 -16    0.92    0.93
  -1   0 -16    6.55    1.60
   1  -1 -16    2.04    1.05
   0  -1 -16   12.48    2.09
   0   0   0    0.00    0.00
;
_shelx_hkl_checksum              9185
loop_
_space_group_symop_operation_xyz
'x, y, z'
'-x, -y, -z'
loop_
_atom_site_type_symbol
_atom_site_label
_atom_site_fract_x
_atom_site_fract_y
_atom_site_fract_z
_atom_site_U_iso_or_equiv
_atom_site_adp_type
_atom_site_calc_flag
_atom_site_refinement_flags_adp
_atom_site_refinement_flags_posn
_atom_site_occupancy
C C1 -0.0256(3) 0.65310(13) -0.20061(12) 0.0174(3) Uani d . . 1
H H1 -0.1562 0.6964 -0.2209 0.021 Uiso calc U R 1
C C2 -0.0259(3) 0.52555(13) -0.25357(13) 0.0223(3) Uani d . . 1
H H2 -0.157 0.4822 -0.3093 0.027 Uiso calc U R 1
C C3 0.1644(3) 0.46173(13) -0.22519(13) 0.0207(3) Uani d . . 1
H H3 0.1646 0.3748 -0.2616 0.025 Uiso calc U R 1
C C4 0.3540(3) 0.52522(14) -0.14361(14) 0.0236(3) Uani d . . 1
H H4 0.4852 0.4819 -0.1242 0.028 Uiso calc U R 1
C C5 0.3535(3) 0.65229(14) -0.08985(14) 0.0206(3) Uani d . . 1
H H5 0.4836 0.695 -0.0332 0.025 Uiso calc U R 1
C C6 0.1639(2) 0.71746(12) -0.11848(11) 0.0123(3) Uani d . . 1
C C7 0.1670(3) 0.85700(12) -0.06127(12) 0.0153(3) Uani d . . 1
H H7A 0.3149 0.905 -0.0803 0.018 Uiso calc U R 1
H H7B 0.0237 0.8885 -0.095 0.018 Uiso calc U R 1
C C8 0.1637(2) 0.88064(11) 0.07086(11) 0.0118(2) Uani d . . 1
C C9 -0.0497(2) 0.83417(12) 0.12947(12) 0.0136(3) Uani d . . 1
H H9A -0.1995 0.8669 0.1045 0.016 Uiso calc U R 1
H H9B -0.0776 0.7405 0.1108 0.016 Uiso calc U R 1
C C10 0.2708(2) 0.94308(12) 0.26383(11) 0.0109(2) Uani d . . 1
C C11 0.4326(2) 0.86572(12) 0.32328(12) 0.0149(3) Uani d . . 1
H H11A 0.6042 0.9047 0.3316 0.018 Uiso calc U R 1
H H11B 0.383 0.8647 0.4035 0.018 Uiso calc U R 1
C C12 0.2960(2) 1.07747(11) 0.33924(11) 0.0106(2) Uani d . . 1
C C13 0.5023(2) 1.16198(12) 0.33631(12) 0.0131(3) Uani d . . 1
H H13 0.6244 1.1356 0.2861 0.016 Uiso calc U R 1
C C14 0.5297(2) 1.28453(12) 0.40663(12) 0.0151(3) Uani d . . 1
H H14 0.669 1.3419 0.4033 0.018 Uiso calc U R 1
C C15 0.3531(3) 1.32297(12) 0.48170(12) 0.0156(3) Uani d . . 1
H H15 0.3723 1.4062 0.5303 0.019 Uiso calc U R 1
C C16 0.1482(2) 1.23900(13) 0.48526(12) 0.0155(3) Uani d . . 1
H H16 0.0276 1.2652 0.5365 0.019 Uiso calc U R 1
C C17 0.1189(2) 1.11683(12) 0.41416(11) 0.0130(3) Uani d . . 1
H H17 -0.022 1.0602 0.4167 0.016 Uiso calc U R 1
F F1 0.41106(17) 0.74227(7) 0.25463(8) 0.0246(2) Uani d . . 1
N N1 0.3402(2) 0.94147(10) 0.14395(10) 0.0121(2) Uani d . . 1
O O1 0.02226(16) 0.88409(9) 0.25285(8) 0.0142(2) Uani d . . 1
loop_
_atom_site_aniso_label
_atom_site_aniso_U_11
_atom_site_aniso_U_22
_atom_site_aniso_U_33
_atom_site_aniso_U_12
_atom_site_aniso_U_13
_atom_site_aniso_U_23
C1 0.0178(6) 0.0162(6) 0.0170(7) 0.0019(5) -0.0022(5) 0.0023(5)
C2 0.0273(8) 0.0176(7) 0.0177(7) -0.0026(6) -0.0048(6) -0.0007(5)
C3 0.0362(9) 0.0116(6) 0.0138(7) 0.0033(6) 0.0052(6) 0.0005(5)
C4 0.0294(8) 0.0203(7) 0.0225(8) 0.0127(6) 0.0006(6) 0.0036(6)
C5 0.0192(7) 0.0181(7) 0.0214(7) 0.0043(5) -0.0065(6) -0.0005(5)
C6 0.0162(6) 0.0114(5) 0.0094(6) 0.0010(5) 0.0020(5) 0.0024(5)
C7 0.0234(7) 0.0105(6) 0.0111(6) 0.0022(5) -0.0003(5) 0.0010(5)
C8 0.0151(6) 0.0078(5) 0.0123(6) 0.0033(4) 0.0010(5) 0.0009(4)
C9 0.0136(6) 0.0130(6) 0.0121(6) -0.0005(5) -0.0014(5) 0.0000(5)
C10 0.0095(6) 0.0116(5) 0.0108(6) 0.0004(4) 0.0015(4) 0.0015(4)
C11 0.0167(6) 0.0124(6) 0.0153(6) 0.0037(5) 0.0003(5) 0.0018(5)
C12 0.0109(6) 0.0118(5) 0.0092(6) 0.0023(4) -0.0008(4) 0.0023(4)
C13 0.0123(6) 0.0140(6) 0.0126(6) 0.0011(5) 0.0019(5) 0.0024(5)
C14 0.0156(6) 0.0136(6) 0.0152(6) -0.0014(5) 0.0005(5) 0.0033(5)
C15 0.0200(7) 0.0119(6) 0.0134(6) 0.0027(5) -0.0014(5) 0.0004(5)
C16 0.0154(6) 0.0172(6) 0.0134(6) 0.0046(5) 0.0026(5) 0.0007(5)
C17 0.0111(6) 0.0144(6) 0.0128(6) 0.0012(4) 0.0007(5) 0.0023(5)
F1 0.0324(5) 0.0113(4) 0.0279(5) 0.0069(3) -0.0035(4) -0.0003(3)
N1 0.0139(5) 0.0115(5) 0.0106(5) 0.0026(4) 0.0026(4) 0.0010(4)
O1 0.0108(4) 0.0168(5) 0.0120(5) -0.0032(3) 0.0016(3) -0.0006(4)
loop_
_atom_type_symbol
_atom_type_description
_atom_type_scat_dispersion_real
_atom_type_scat_dispersion_imag
_atom_type_scat_source
C C 0.0033 0.0016 'International Tables Vol C Tables 4.2.6.8 and 6.1.1.4'
H H 0.0000 0.0000 'International Tables Vol C Tables 4.2.6.8 and 6.1.1.4'
N N 0.0061 0.0033 'International Tables Vol C Tables 4.2.6.8 and 6.1.1.4'
O O 0.0106 0.0060 'International Tables Vol C Tables 4.2.6.8 and 6.1.1.4'
F F 0.0171 0.0103 'International Tables Vol C Tables 4.2.6.8 and 6.1.1.4'
loop_
_geom_angle_atom_site_label_1
_geom_angle_atom_site_label_2
_geom_angle_atom_site_label_3
_geom_angle
C6 C1 C2 120.55(13)
C3 C2 C1 120.18(13)
C4 C3 C2 119.62(13)
C3 C4 C5 120.27(13)
C4 C5 C6 120.50(13)
C1 C6 C5 118.87(12)
C1 C6 C7 120.89(12)
C5 C6 C7 120.24(12)
C8 C7 C6 112.27(10)
N1 C8 C7 123.65(12)
N1 C8 C9 113.58(12)
C7 C8 C9 122.78(11)
O1 C9 C8 103.14(10)
O1 C10 N1 107.59(10)
O1 C10 C12 110.78(10)
N1 C10 C12 111.28(10)
O1 C10 C11 108.55(10)
N1 C10 C11 109.67(10)
C12 C10 C11 108.92(10)
F1 C11 C10 109.35(10)
C17 C12 C13 119.31(12)
C17 C12 C10 120.81(11)
C13 C12 C10 119.86(11)
C14 C13 C12 120.40(12)
C15 C14 C13 120.02(12)
C16 C15 C14 119.75(12)
C15 C16 C17 120.41(13)
C16 C17 C12 120.10(12)
C8 N1 C10 107.64(11)
C9 O1 C10 107.64(10)
loop_
_geom_bond_atom_site_label_1
_geom_bond_atom_site_label_2
_geom_bond_distance
C1 C6 1.3876(18)
C1 C2 1.3925(19)
C2 C3 1.385(2)
C3 C4 1.382(2)
C4 C5 1.3905(19)
C5 C6 1.3925(19)
C6 C7 1.5196(17)
C7 C8 1.5005(18)
C8 N1 1.2750(16)
C8 C9 1.5009(19)
C9 O1 1.4298(16)
C10 O1 1.4440(15)
C10 N1 1.4655(17)
C10 C12 1.5211(17)
C10 C11 1.5260(18)
C11 F1 1.3952(15)
C12 C17 1.3954(18)
C12 C13 1.3987(18)
C13 C14 1.3927(18)
C14 C15 1.391(2)
C15 C16 1.3912(19)
C16 C17 1.3924(18)
