#------------------------------------------------------------------------------
#$Date: 2016-08-05 06:15:59 +0300 (Fri, 05 Aug 2016) $
#$Revision: 184909 $
#$URL: file:///home/coder/svn-repositories/cod/cif/1/54/38/1543826.cif $
#------------------------------------------------------------------------------
#
# This file is available in the Crystallography Open Database (COD),
# http://www.crystallography.net/
#
# All data on this site have been placed in the public domain by the
# contributors.
#
data_1543826
loop_
_publ_author_name
'Phatake, Ravindra S.'
'Patel, Pitambar'
'Ramana, Chepuri V.'
_publ_section_title
;
 Ir(III)-Catalyzed Carbenoid Functionalization of Benzamides: Synthesis of
 N-Methoxyisoquinolinediones and N-Methoxyisoquinolinones.
;
_journal_issue                   12
_journal_name_full               'Organic letters'
_journal_page_first              2828
_journal_page_last               2831
_journal_paper_doi               10.1021/acs.orglett.6b01072
_journal_volume                  18
_journal_year                    2016
_chemical_formula_moiety         'C14 H18 N O5 P'
_chemical_formula_sum            'C14 H18 N O5 P'
_chemical_formula_weight         311.26
_chemical_name_systematic
;
 ?
;
_space_group_crystal_system      triclinic
_space_group_IT_number           2
_space_group_name_Hall           '-P 1'
_space_group_name_H-M_alt        'P -1'
_symmetry_space_group_name_Hall  '-P 1'
_symmetry_space_group_name_H-M   'P -1'
_atom_sites_solution_hydrogens   geom
_audit_creation_method           SHELXL-2014
_cell_angle_alpha                69.516(4)
_cell_angle_beta                 72.945(4)
_cell_angle_gamma                89.454(4)
_cell_formula_units_Z            2
_cell_length_a                   8.0151(6)
_cell_length_b                   9.9592(8)
_cell_length_c                   10.3467(8)
_cell_measurement_reflns_used    7242
_cell_measurement_temperature    296(2)
_cell_measurement_theta_max      28.34
_cell_measurement_theta_min      2.89
_cell_volume                     735.66(10)
_computing_cell_refinement       'Bruker SAINT'
_computing_data_collection       'Bruker APEX2'
_computing_data_reduction        'Bruker SAINT'
_computing_molecular_graphics    'Bruker SHELXTL'
_computing_publication_material  'Bruker SHELXTL'
_computing_structure_refinement  'SHELXL-2014 (Sheldrick 2014)'
_computing_structure_solution    'SHELXS-97 (Sheldrick 2008)'
_diffrn_ambient_temperature      296(2)
_diffrn_measured_fraction_theta_full 0.998
_diffrn_measured_fraction_theta_max 0.993
_diffrn_measurement_device_type  'Bruker PHOTON 100 CMOS'
_diffrn_measurement_method       '\f and \w scans'
_diffrn_radiation_type           MoK\a
_diffrn_radiation_wavelength     0.71073
_diffrn_reflns_av_R_equivalents  0.0519
_diffrn_reflns_av_unetI/netI     0.0495
_diffrn_reflns_Laue_measured_fraction_full 0.998
_diffrn_reflns_Laue_measured_fraction_max 0.993
_diffrn_reflns_limit_h_max       10
_diffrn_reflns_limit_h_min       -10
_diffrn_reflns_limit_k_max       13
_diffrn_reflns_limit_k_min       -13
_diffrn_reflns_limit_l_max       13
_diffrn_reflns_limit_l_min       -13
_diffrn_reflns_number            18852
_diffrn_reflns_point_group_measured_fraction_full 0.998
_diffrn_reflns_point_group_measured_fraction_max 0.993
_diffrn_reflns_theta_full        25.242
_diffrn_reflns_theta_max         28.459
_diffrn_reflns_theta_min         2.893
_exptl_absorpt_coefficient_mu    0.208
_exptl_absorpt_correction_T_max  0.977
_exptl_absorpt_correction_T_min  0.922
_exptl_absorpt_correction_type   multi-scan
_exptl_absorpt_process_details   'BRUKER SADABS'
_exptl_crystal_colour            COLOURLESS
_exptl_crystal_density_diffrn    1.405
_exptl_crystal_description       PLATE
_exptl_crystal_F_000             328
_exptl_crystal_size_max          0.41
_exptl_crystal_size_mid          0.32
_exptl_crystal_size_min          0.11
_refine_diff_density_max         0.260
_refine_diff_density_min         -0.293
_refine_diff_density_rms         0.060
_refine_ls_extinction_method     none
_refine_ls_goodness_of_fit_ref   1.043
_refine_ls_hydrogen_treatment    constr
_refine_ls_matrix_type           full
_refine_ls_number_parameters     195
_refine_ls_number_reflns         3680
_refine_ls_number_restraints     0
_refine_ls_restrained_S_all      1.043
_refine_ls_R_factor_all          0.0928
_refine_ls_R_factor_gt           0.0517
_refine_ls_shift/su_max          0.000
_refine_ls_shift/su_mean         0.000
_refine_ls_structure_factor_coef Fsqd
_refine_ls_weighting_details
'w=1/[\s^2^(Fo^2^)+(0.1000P)^2^] where P=(Fo^2^+2Fc^2^)/3'
_refine_ls_weighting_scheme      calc
_refine_ls_wR_factor_gt          0.1405
_refine_ls_wR_factor_ref         0.1651
_reflns_Friedel_coverage         0.000
_reflns_number_gt                2457
_reflns_number_total             3680
_reflns_threshold_expression     'I > 2\s(I)'
_cod_data_source_file            ol6b01072_si_003.cif
_cod_data_source_block           mo_4_Me_R_0m
_cod_depositor_comments
;
The following automatic conversions were performed:

'_exptl_absorpt_correction_type' value 'MULTI-SCAN' changed to
'multi-scan' according to
/usr/data/users/saulius/crontab/automatic-downloads/current/ACS/lib/dictionaries/cif_core.dic
dictionary named 'cif_core.dic' version 2.4.2 from 2011-04-26.

Automatic conversion script
Id: cif_fix_values 4268 2015-11-12 08:31:59Z antanas 
;
_cod_database_code               1543826
_shelx_space_group_comment
;
The symmetry employed for this shelxl refinement is uniquely defined
by the following loop, which should always be used as a source of
symmetry information in preference to the above space-group names.
They are only intended as comments.
;
_shelxl_version_number           2014-3
_shelx_res_file
;
TITL mo_4_Me_R_0m in P-1
CELL 0.71073 8.0151 9.9592 10.3467 69.516 72.945 89.454
ZERR 2.00 0.0006 0.0008 0.0008 0.004 0.004 0.004
LATT 1
SFAC C  H  O  P  N
UNIT 28  36  10  2  2
L.S. 30
ACTA
BOND $H
FMAP 2
PLAN 30
HTAB C7 O13
TEMP 23
WGHT    0.100000
FVAR       0.26595
P1    4    0.598885    0.749779    0.242377    11.00000    0.04416    0.02758 =
         0.03301   -0.01480   -0.00774    0.00190
O1    3    0.915161    0.623101   -0.287423    11.00000    0.07404    0.05608 =
         0.03014   -0.02002    0.00204   -0.00043
O2    3    0.913245    0.890109   -0.300782    11.00000    0.04218    0.04004 =
         0.02953    0.00332   -0.00548   -0.00623
O3    3    0.634275    0.898437    0.228880    11.00000    0.08504    0.03277 =
         0.04880   -0.02189   -0.01506    0.00030
O4    3    0.661401    0.637981    0.365762    11.00000    0.04501    0.03973 =
         0.03560   -0.01183   -0.01396   -0.00131
O5    3    0.399497    0.695273    0.290424    11.00000    0.03985    0.05558 =
         0.04409   -0.02781   -0.00835    0.00708
N1    5    0.844152    0.778636   -0.168269    11.00000    0.04168    0.03188 =
         0.02637   -0.00399   -0.00365   -0.00167
C1    1    0.845390    0.640202   -0.173619    11.00000    0.04134    0.03976 =
         0.03098   -0.01354   -0.00677    0.00108
C2    1    0.742290    0.386802   -0.032192    11.00000    0.05434    0.03907 =
         0.03645   -0.02173   -0.00805    0.00547
AFIX  43
H2    2    0.794761    0.367844   -0.116078    11.00000   -1.20000
AFIX   0
C3    1    0.652900    0.276233    0.093134    11.00000    0.05930    0.02576 =
         0.04603   -0.01805   -0.01637    0.00407
AFIX  43
H3    2    0.646852    0.182646    0.094149    11.00000   -1.20000
AFIX   0
C4    1    0.570767    0.303387    0.219445    11.00000    0.03722    0.02494 =
         0.03636   -0.00819   -0.01409    0.00182
C5    1    0.585029    0.442725    0.216370    11.00000    0.03721    0.02713 =
         0.02794   -0.01069   -0.00699    0.00204
AFIX  43
H5    2    0.531571    0.460397    0.300835    11.00000   -1.20000
AFIX   0
C6    1    0.688981    0.707950    0.082251    11.00000    0.03740    0.02404 =
         0.03025   -0.00942   -0.00743    0.00107
C7    1    0.768699    0.815338   -0.048480    11.00000    0.04231    0.02795 =
         0.03248   -0.01005   -0.00625    0.00216
C8    1    0.755371    0.527616   -0.035196    11.00000    0.03787    0.02992 =
         0.02978   -0.01147   -0.00805    0.00378
C9    1    0.677166    0.558727    0.090576    11.00000    0.03361    0.02573 =
         0.02751   -0.00976   -0.01085    0.00394
C10   1    0.466437    0.182834    0.355555    11.00000    0.05038    0.02814 =
         0.04375   -0.00612   -0.01317   -0.00432
AFIX 137
H10A  2    0.494128    0.189845    0.437318    11.00000   -1.50000
H10B  2    0.495284    0.091897    0.347003    11.00000   -1.50000
H10C  2    0.343406    0.189929    0.369087    11.00000   -1.50000
AFIX   0
C11   1    0.780409    0.975208   -0.081357    11.00000    0.09711    0.02724 =
         0.04742   -0.00437    0.00179   -0.00072
AFIX 137
H11A  2    0.717597    0.993574    0.004255    11.00000   -1.50000
H11B  2    0.729859    1.021338   -0.157197    11.00000   -1.50000
H11C  2    0.901240    1.012699   -0.112101    11.00000   -1.50000
AFIX   0
C12   1    1.101280    0.911580   -0.339576    11.00000    0.04226    0.06023 =
         0.04486   -0.01315   -0.00234   -0.01124
AFIX 137
H12A  2    1.132764    0.944404   -0.272156    11.00000   -1.50000
H12B  2    1.147308    0.982388   -0.435714    11.00000   -1.50000
H12C  2    1.149250    0.822275   -0.336748    11.00000   -1.50000
AFIX   0
C13   1    0.278474    0.716291    0.414095    11.00000    0.05059    0.07633 =
         0.04193   -0.02022   -0.00129    0.01414
AFIX 137
H13A  2    0.312926    0.667904    0.498873    11.00000   -1.50000
H13B  2    0.162407    0.677524    0.428567    11.00000   -1.50000
H13C  2    0.279485    0.817444    0.397212    11.00000   -1.50000
AFIX   0
C14   1    0.835391    0.659202    0.371670    11.00000    0.05510    0.06663 =
         0.08255   -0.02439   -0.03172    0.00830
AFIX 137
H14A  2    0.910822    0.602398    0.326026    11.00000   -1.50000
H14B  2    0.832781    0.630197    0.471092    11.00000   -1.50000
H14C  2    0.879006    0.759214    0.321846    11.00000   -1.50000
AFIX   0
HKLF 4 1 1 0 0 0 1 0 0 0 1

REM  mo_4_Me_R_0m in P-1
REM R1 =  0.0517 for    2457 Fo > 4sig(Fo)  and  0.0928 for all    3680 data
REM    195 parameters refined using      0 restraints

END

WGHT      0.0601      0.3150

REM Highest difference peak  0.260,  deepest hole -0.293,  1-sigma level  0.060
Q1    1   0.6292  0.9043  0.2641  11.00000  0.05    0.25
Q2    1   0.4242  0.1046  0.2988  11.00000  0.05    0.23
Q3    1   0.5462  0.1168  0.3834  11.00000  0.05    0.22
Q4    1   1.0036  0.6055 -0.2381  11.00000  0.05    0.22
Q5    1   0.7973  0.9971  0.0236  11.00000  0.05    0.21
Q6    1   0.6483  0.3481  0.0256  11.00000  0.05    0.21
Q7    1   0.3727  0.1146  0.3549  11.00000  0.05    0.20
Q8    1   0.6525  0.6483  0.0897  11.00000  0.05    0.20
Q9    1   0.1582  0.7427  0.3821  11.00000  0.05    0.20
Q10   1   0.5858  0.9782 -0.0006  11.00000  0.05    0.20
Q11   1   0.8518  0.9656 -0.0247  11.00000  0.05    0.20
Q12   1   0.5997  0.3661  0.2190  11.00000  0.05    0.19
Q13   1   0.6986  0.3553 -0.1211  11.00000  0.05    0.19
Q14   1   0.9094  0.5708 -0.3004  11.00000  0.05    0.19
Q15   1   0.4049  0.2397  0.4362  11.00000  0.05    0.19
Q16   1   0.7361  0.5400  0.0341  11.00000  0.05    0.19
Q17   1   0.6682  0.7300  0.1506  11.00000  0.05    0.17
Q18   1   0.8942  0.7315  0.2151  11.00000  0.05    0.17
Q19   1   0.8457  0.7396  0.4113  11.00000  0.05    0.17
Q20   1   0.6610  0.4954  0.1575  11.00000  0.05    0.17
Q21   1   0.5331  0.2358  0.2932  11.00000  0.05    0.17
Q22   1   1.0140  0.4802 -0.1632  11.00000  0.05    0.16
Q23   1   1.2431  0.9385 -0.1824  11.00000  0.05    0.16
Q24   1   0.6683  0.5444  0.0023  11.00000  0.05    0.16
Q25   1   0.6446  1.0010 -0.1777  11.00000  0.05    0.16
Q26   1   0.3751  0.1915  0.5749  11.00000  0.05    0.16
Q27   1   0.6015  0.9788 -0.0767  11.00000  0.05    0.16
Q28   1   0.8099  0.7158 -0.1767  11.00000  0.05    0.16
Q29   1   1.1779  1.0754 -0.3806  11.00000  0.05    0.16
Q30   1   0.9221  0.6135  0.2011  11.00000  0.05    0.15
;
_shelx_res_checksum              3655
_shelx_hkl_file
;
  -2   0   0   82.97    2.88
  -2   0   0   82.04    2.77
  -2   0   0   83.87    2.79
  -2   0   0   81.18    2.80
  -2   0   0   78.40    2.81
   2   0   0   85.40    2.89
   2   0   0   80.70    2.78
   2   0   0   86.81    2.87
  -3   0   0    4.61    0.38
  -3   0   0    4.71    0.27
  -3   0   0    4.81    0.25
  -3   0   0    4.75    0.28
   3   0   0    5.19    0.28
   3   0   0    4.71    0.32
   3   0   0    5.14    0.34
   3   0   0    5.14    0.34
  -4   0   0  102.39    3.77
  -4   0   0  106.40    3.81
  -4   0   0  106.48    3.68
  -4   0   0  103.46    3.61
   4   0   0  105.39    3.78
   4   0   0  110.12    3.58
   4   0   0  108.17    3.82
  -5   0   0    1.20    0.22
  -5   0   0    1.25    0.30
  -5   0   0    1.81    0.20
  -5   0   0    1.85    0.28
  -5   0   0    1.52    0.23
   5   0   0    2.13    0.38
   5   0   0    0.99    0.23
   5   0   0    2.15    0.27
  -6   0   0   10.99    0.80
  -6   0   0    9.99    0.52
  -6   0   0    9.80    0.69
  -6   0   0   11.26    0.64
  -6   0   0   10.34    0.64
  -6   0   0   11.62    0.73
   6   0   0   10.29    0.73
   6   0   0   11.54    1.22
  -7   0   0    0.64    0.40
  -7   0   0    0.79    0.25
   7   0   0    0.92    0.30
  -8   0   0   -0.25    0.33
  -8   0   0   -0.06    0.45
  -8   0   0   -0.57    0.50
  -9   0   0    1.05    0.64
  -9   0   0   -0.16    0.47
   9   0   0    0.15    0.41
 -10   0   0    0.73    0.65
 -10   0   0    0.87    0.81
  10   0   0    0.41    0.53
  10  -1   0   -0.29    0.53
 -10   1   0    1.26    0.86
   9  -1   0   -0.12    0.42
  -9   1   0    0.63    0.56
  -9   1   0   -0.50    0.43
  -8   1   0    0.25    0.55
  -8   1   0    0.77    0.32
   7  -1   0    0.29    0.29
  -7   1   0    0.32    0.27
  -7   1   0    0.51    0.23
  -7   1   0    0.92    0.36
   6  -1   0    0.24    0.23
   6  -1   0   -0.34    0.31
  -6   1   0    0.19    0.33
  -6   1   0    0.10    0.18
  -6   1   0   -0.06    0.27
  -6   1   0   -0.14    0.27
   5  -1   0   14.95    0.79
   5  -1   0   14.34    0.77
   5  -1   0   13.24    0.73
  -5   1   0   14.02    0.63
  -5   1   0   13.69    0.78
  -5   1   0   13.80    0.77
  -5   1   0   14.16    0.66
  -5   1   0   13.75    0.60
   4  -1   0    0.18    0.19
   4  -1   0    0.54    0.15
  -4   1   0    0.32    0.09
  -4   1   0    0.42    0.15
  -4   1   0    0.37    0.08
  -4   1   0    0.28    0.11
  -4   1   0    0.18    0.16
   3  -1   0    2.64    0.23
   3  -1   0    2.26    0.20
   3  -1   0    2.52    0.24
  -3   1   0    2.62    0.28
  -3   1   0    3.01    0.21
   2  -1   0   87.21    2.94
   2  -1   0   83.54    2.91
   2  -1   0   86.21    2.94
   2  -1   0   85.84    2.93
  -2   1   0   85.05    2.94
  -2   1   0   83.97    2.92
  -2   1   0   82.82    2.91
  -1   1   0  275.35    8.11
  -1   1   0  212.53    8.08
  -1  -1   0   49.86    1.78
  -1  -1   0   51.88    1.90
  -1  -1   0   55.45    1.78
  -1  -1   0   48.00    1.72
   1   1   0   47.53    1.76
   1   1   0   53.76    1.73
   1   1   0   50.38    1.78
   1   1   0   47.58    1.77
  -2  -1   0    0.24    0.08
  -2  -1   0    0.08    0.04
  -2  -1   0    0.22    0.10
  -2  -1   0    0.13    0.10
  -2  -1   0    0.13    0.07
   2   1   0    0.07    0.09
   2   1   0    0.27    0.09
   2   1   0    0.15    0.10
   2   1   0    0.22    0.11
  -3  -1   0   64.93    2.41
  -3  -1   0   65.40    2.39
  -3  -1   0   61.84    2.23
  -3  -1   0   64.70    2.44
   3   1   0   70.91    2.41
   3   1   0   68.49    2.43
   3   1   0   65.03    2.35
   3   1   0   68.10    2.34
   3   1   0   66.02    2.44
  -4  -1   0    0.23    0.16
  -4  -1   0    0.19    0.14
  -4  -1   0   -0.09    0.12
  -4  -1   0   -0.14    0.16
   4   1   0    0.15    0.18
   4   1   0    0.33    0.17
   4   1   0   -0.09    0.20
  -5  -1   0    4.88    0.50
  -5  -1   0    4.19    0.40
  -5  -1   0    4.63    0.39
  -5  -1   0    5.02    0.40
   5   1   0    5.19    0.40
   5   1   0    4.23    0.35
   5   1   0    5.58    0.47
   5   1   0    4.64    0.45
  -6  -1   0    1.52    0.28
  -6  -1   0    1.87    0.33
  -6  -1   0    1.93    0.37
  -6  -1   0    1.91    0.39
   6   1   0    1.89    0.25
   6   1   0    1.96    0.36
  -7  -1   0    3.25    0.57
  -7  -1   0    3.62    0.50
  -7  -1   0    3.51    0.47
   7   1   0    3.28    0.46
  -8  -1   0   -0.75    0.46
  -8  -1   0   -0.13    0.36
  -9  -1   0    0.28    0.53
  -9  -1   0   -0.42    0.63
   9   1   0    0.08    0.46
 -10  -1   0    0.05    0.75
 -10  -1   0    1.06    0.87
  10   1   0    0.30    0.58
  10   1   0    0.90    0.56
  10  -2   0    1.24    0.59
 -10   2   0   -0.13    0.81
   9  -2   0    2.12    0.44
  -9   2   0    2.54    0.67
  -9   2   0    1.69    0.46
  -8   2   0    0.19    0.29
  -8   2   0   -0.06    0.28
  -8   2   0    0.53    0.49
   7  -2   0   15.07    0.90
  -7   2   0   14.52    0.73
  -7   2   0   15.69    0.75
  -7   2   0   15.67    1.01
   6  -2   0    2.04    0.31
  -6   2   0    1.91    0.29
  -6   2   0    1.98    0.27
  -6   2   0    1.84    0.30
  -6   2   0    1.93    0.33
  -6   2   0    2.37    0.32
  -6   2   0    1.93    0.36
  -6   2   0    2.23    0.38
   5  -2   0    0.73    0.19
   5  -2   0    0.96    0.25
   5  -2   0    0.89    0.23
  -5   2   0    1.08    0.18
  -5   2   0    0.90    0.19
  -5   2   0    0.82    0.23
  -5   2   0    0.93    0.25
   4  -2   0    0.56    0.21
   4  -2   0    0.47    0.16
   4  -2   0    0.72    0.19
  -4   2   0    0.45    0.15
  -4   2   0    0.64    0.16
  -4   2   0    0.63    0.16
   3  -2   0    0.00    0.12
   3  -2   0   -0.02    0.13
   3  -2   0   -0.04    0.11
   3  -2   0   -0.24    0.12
  -3   2   0   -0.12    0.10
  -3   2   0    0.12    0.10
  -3   2   0    0.10    0.11
   2  -2   0  100.33    3.37
   2  -2   0   97.44    3.39
   2  -2   0   95.58    3.37
  -2   2   0   96.06    3.32
  -2   2   0   97.09    3.37
  -2   2   0   97.13    3.38
  -2   2   0   99.01    3.37
   1  -2   0  123.24    4.32
   1  -2   0  126.37    4.22
   1  -2   0  127.07    4.34
   1  -2   0  131.01    4.33
  -1   2   0  131.91    4.35
  -1   2   0  126.57    4.25
  -1   2   0  128.98    4.32
  -1   2   0  124.38    4.33
  -1   2   0  129.44    4.25
   0  -2   0  182.74    6.43
   0  -2   0  190.81    6.46
   0  -2   0  188.30    6.45
   0  -2   0  206.88    6.49
   0  -2   0  197.75    6.47
   0   2   0  193.56    6.47
   0   2   0  196.21    6.48
   0   2   0  192.08    6.48
   0   2   0  188.67    6.46
   0   2   0  195.30    6.46
   0   2   0  193.17    6.43
  -1  -2   0   71.44    2.49
  -1  -2   0   65.20    2.51
  -1  -2   0   71.95    2.52
  -1  -2   0   73.27    2.54
  -1  -2   0   75.37    2.53
  -1  -2   0   72.55    2.46
   1   2   0   71.50    2.51
   1   2   0   72.39    2.49
   1   2   0   70.09    2.46
   1   2   0   80.82    2.55
   1   2   0   71.24    2.52
   1   2   0   66.40    2.52
  -2  -2   0   38.34    1.56
  -2  -2   0   41.23    1.46
  -2  -2   0   40.81    1.42
  -2  -2   0   40.78    1.56
  -2  -2   0   43.02    1.55
  -2  -2   0   39.44    1.55
   2   2   0   39.56    1.55
   2   2   0   41.55    1.49
   2   2   0   39.58    1.46
   2   2   0   40.39    1.55
   2   2   0   41.51    1.58
   2   2   0   41.92    1.58
  -3  -2   0    5.62    0.28
  -3  -2   0    5.92    0.42
  -3  -2   0    5.15    0.38
  -3  -2   0    5.44    0.39
  -3  -2   0    5.92    0.43
   3   2   0    5.80    0.36
   3   2   0    5.36    0.39
   3   2   0    5.72    0.35
   3   2   0    5.43    0.29
   3   2   0    5.63    0.42
   3   2   0    6.05    0.43
  -4  -2   0   80.09    2.94
  -4  -2   0   73.85    2.85
  -4  -2   0   74.87    2.88
  -4  -2   0   73.20    2.63
  -4  -2   0   74.15    2.87
   4   2   0   75.35    2.91
   4   2   0   78.59    2.84
   4   2   0   81.86    2.93
   4   2   0   76.77    2.80
   4   2   0   78.21    2.83
   4   2   0   82.67    2.73
  -5  -2   0   56.07    2.25
  -5  -2   0   52.87    2.27
  -5  -2   0   58.51    2.21
  -5  -2   0   56.42    2.20
   5   2   0   56.34    2.10
   5   2   0   55.69    2.28
   5   2   0   54.33    2.18
   5   2   0   58.02    2.14
   5   2   0   51.36    2.22
  -6  -2   0    1.23    0.34
  -6  -2   0    0.73    0.32
   6   2   0    1.38    0.24
   6   2   0    1.10    0.25
  -7  -2   0   -0.43    0.44
  -7  -2   0   -0.23    0.32
   7   2   0   -0.41    0.28
   7   2   0   -0.16    0.25
  -8  -2   0   -0.37    0.53
  -9  -2   0    0.87    0.59
  -9  -2   0    2.09    0.70
   9   2   0    0.95    0.48
   9   2   0    1.82    0.64
  10  -3   0   -0.49    0.54
 -10   3   0    1.22    0.82
 -10   3   0   -1.65    1.71
   9  -3   0   -0.64    0.42
  -9   3   0   -0.44    0.62
   8  -3   0    7.30    0.67
  -8   3   0    7.47    0.56
  -8   3   0    8.72    1.06
  -8   3   0    8.47    0.90
   7  -3   0    8.37    0.64
  -7   3   0    8.44    0.66
  -7   3   0    8.35    0.50
  -7   3   0    7.37    0.73
  -7   3   0    8.75    0.75
   6  -3   0    0.87    0.27
   6  -3   0    0.57    0.36
  -6   3   0    1.41    0.32
  -6   3   0    0.87    0.27
  -6   3   0    0.90    0.24
  -6   3   0    0.56    0.26
   5  -3   0    0.39    0.20
   5  -3   0    0.94    0.21
   5  -3   0    0.30    0.23
  -5   3   0    0.77    0.21
  -5   3   0    0.44    0.23
  -5   3   0    0.56    0.20
  -5   3   0    1.07    0.24
   4  -3   0    5.38    0.45
   4  -3   0    6.18    0.44
   4  -3   0    6.32    0.42
   4  -3   0    5.46    0.40
  -4   3   0    5.44    0.41
  -4   3   0    5.98    0.39
  -4   3   0    5.49    0.41
  -4   3   0    5.80    0.41
   3  -3   0    2.61    0.26
   3  -3   0    2.55    0.30
   3  -3   0    2.28    0.29
  -3   3   0    2.40    0.23
  -3   3   0    2.43    0.29
  -3   3   0    2.23    0.22
  -3   3   0    2.70    0.29
   2  -3   0   12.66    0.60
   2  -3   0   12.53    0.64
   2  -3   0   12.83    0.59
   2  -3   0   13.00    0.66
  -2   3   0   12.49    0.65
  -2   3   0   12.68    0.63
  -2   3   0   12.60    0.63
   1  -3   0   16.96    0.71
   1  -3   0   15.53    0.69
   1  -3   0   16.32    0.61
   1  -3   0   15.75    0.74
   1  -3   0   15.77    0.68
  -1   3   0   16.13    0.73
  -1   3   0   16.05    0.64
  -1   3   0   15.39    0.64
  -1   3   0   16.21    0.74
  -1   3   0   16.76    0.62
  -1   3   0   13.72    0.74
   0  -3   0   70.66    2.56
   0  -3   0   75.83    2.53
   0  -3   0   68.33    2.48
   0  -3   0   75.42    2.52
   0  -3   0   72.29    2.54
   0   3   0   72.43    2.53
   0   3   0   71.11    2.52
   0   3   0   69.69    2.48
   0   3   0   67.02    2.52
  -1  -3   0    8.13    0.46
  -1  -3   0    8.04    0.46
  -1  -3   0    8.12    0.47
  -1  -3   0    7.83    0.40
  -1  -3   0    8.61    0.45
   1   3   0    8.24    0.50
   1   3   0    9.00    0.50
   1   3   0    7.96    0.44
   1   3   0    7.96    0.43
   1   3   0    8.44    0.41
   1   3   0    8.23    0.44
  -2  -3   0    9.34    0.54
  -2  -3   0    8.46    0.51
  -2  -3   0    9.29    0.42
  -2  -3   0    9.17    0.46
  -2  -3   0    8.49    0.52
  -2  -3   0    8.47    0.53
   2   3   0    8.69    0.51
   2   3   0    9.83    0.55
   2   3   0    8.26    0.49
   2   3   0    8.40    0.43
   2   3   0    8.65    0.47
   2   3   0    9.22    0.56
  -3  -3   0    9.58    0.58
  -3  -3   0    8.65    0.56
  -3  -3   0   10.45    0.62
  -3  -3   0    9.63    0.61
  -3  -3   0    9.83    0.48
   3   3   0    9.98    0.62
   3   3   0    9.30    0.54
   3   3   0   10.14    0.52
   3   3   0   10.41    0.59
   3   3   0    9.24    0.58
   3   3   0    9.92    0.49
  -4  -3   0   79.53    2.90
  -4  -3   0   74.63    2.91
  -4  -3   0   76.60    2.94
  -4  -3   0   72.78    2.86
   4   3   0   78.72    2.93
   4   3   0   76.03    2.83
   4   3   0   76.87    2.68
   4   3   0   75.39    2.80
   4   3   0   75.90    2.91
   4   3   0   75.73    2.86
  -5  -3   0    2.56    0.43
  -5  -3   0    2.26    0.38
  -5  -3   0    2.16    0.38
  -5  -3   0    2.36    0.37
   5   3   0    1.41    0.33
   5   3   0    2.09    0.21
   5   3   0    2.40    0.40
   5   3   0    2.19    0.34
  -6  -3   0    0.55    0.38
  -6  -3   0    0.73    0.33
   6   3   0    1.14    0.29
  -7  -3   0   -0.58    0.48
  -7  -3   0    0.25    0.40
   7   3   0    0.58    0.33
  -8  -3   0    1.88    0.59
  -8  -3   0    1.96    0.66
   8   3   0    1.82    0.42
  -9  -3   0    0.00    0.66
  -9  -3   0    1.03    0.80
   9   3   0    0.34    0.66
   9   3   0    0.39    0.55
   9  -4   0    0.24    0.46
  -9   4   0    1.91    0.61
  -9   4   0    1.03    0.68
   8  -4   0    0.27    0.35
  -8   4   0    0.98    0.49
  -8   4   0    0.29    0.30
  -8   4   0    0.43    0.50
  -8   4   0    0.59    0.37
   7  -4   0    5.02    0.60
   7  -4   0    4.76    0.55
  -7   4   0    5.55    0.58
  -7   4   0    5.09    0.62
  -7   4   0    4.52    0.62
   6  -4   0    1.16    0.30
   6  -4   0    1.67    0.30
  -6   4   0    1.56    0.37
  -6   4   0    0.91    0.34
  -6   4   0    1.01    0.30
  -6   4   0    1.12    0.32
  -6   4   0    1.34    0.30
   5  -4   0    6.52    0.54
   5  -4   0    7.51    0.58
   5  -4   0    7.38    0.52
  -5   4   0    7.14    0.58
  -5   4   0    7.88    0.57
  -5   4   0    6.83    0.56
  -5   4   0    7.20    0.57
  -5   4   0    7.31    0.52
   4  -4   0    2.79    0.34
   4  -4   0    4.28    0.41
   4  -4   0    3.08    0.31
   4  -4   0    2.61    0.36
  -4   4   0    3.64    0.35
  -4   4   0    3.64    0.36
  -4   4   0    3.80    0.39
  -4   4   0    3.79    0.37
  -4   4   0    3.23    0.34
   3  -4   0    0.20    0.16
   3  -4   0   -0.01    0.15
   3  -4   0   -0.26    0.17
  -3   4   0   -0.17    0.14
  -3   4   0    0.07    0.17
  -3   4   0   -0.03    0.17
  -3   4   0   -0.04    0.15
  -3   4   0    0.10    0.10
   2  -4   0   -0.13    0.14
   2  -4   0    0.01    0.14
   2  -4   0    0.11    0.14
  -2   4   0   -0.18    0.15
  -2   4   0   -0.08    0.13
  -2   4   0    0.03    0.08
  -2   4   0   -0.04    0.07
  -2   4   0    0.20    0.16
  -2   4   0    0.10    0.15
   1  -4   0  118.44    4.04
   1  -4   0  117.26    4.17
   1  -4   0  119.33    4.16
   1  -4   0  115.50    4.15
   1  -4   0  116.33    4.03
  -1   4   0  117.77    4.17
  -1   4   0  118.61    4.20
  -1   4   0  124.77    4.09
  -1   4   0  114.82    4.02
  -1   4   0  122.78    4.18
   0  -4   0    0.60    0.15
   0  -4   0    0.27    0.15
   0  -4   0    0.38    0.11
   0  -4   0    0.59    0.17
   0  -4   0    0.63    0.16
   0   4   0    0.63    0.13
   0   4   0    0.38    0.16
   0   4   0    0.41    0.14
   0   4   0    0.43    0.18
   0   4   0    0.57    0.16
   0   4   0    0.61    0.12
  -1  -4   0   18.29    0.82
  -1  -4   0   17.20    0.82
  -1  -4   0   18.64    0.81
  -1  -4   0   16.99    0.82
  -1  -4   0   16.06    0.83
   1   4   0   17.58    0.78
   1   4   0   17.70    0.79
   1   4   0   19.92    0.85
   1   4   0   18.47    0.87
   1   4   0   17.94    0.84
   1   4   0   16.60    0.84
  -2  -4   0    5.14    0.43
  -2  -4   0    5.44    0.43
  -2  -4   0    6.27    0.44
  -2  -4   0    5.17    0.41
   2   4   0    5.12    0.45
   2   4   0    5.76    0.41
   2   4   0    5.57    0.40
   2   4   0    5.66    0.43
   2   4   0    5.85    0.40
   2   4   0    5.51    0.44
  -3  -4   0    1.60    0.29
  -3  -4   0    1.84    0.30
  -3  -4   0    1.13    0.18
  -3  -4   0    1.51    0.24
  -3  -4   0    0.94    0.23
   3   4   0    1.62    0.27
   3   4   0    1.16    0.22
   3   4   0    1.36    0.28
   3   4   0    1.09    0.25
   3   4   0    0.98    0.22
   3   4   0    1.11    0.20
  -4  -4   0   -0.16    0.25
  -4  -4   0    0.83    0.24
  -4  -4   0    0.10    0.27
  -4  -4   0    0.53    0.30
   4   4   0    0.27    0.29
   4   4   0    0.04    0.20
   4   4   0    0.56    0.26
   4   4   0    0.28    0.17
   4   4   0    0.93    0.26
  -5  -4   0   34.04    1.56
  -5  -4   0   32.68    1.60
   5   4   0   32.15    1.50
   5   4   0   32.71    1.42
   5   4   0   31.75    1.71
   5   4   0   32.67    1.61
  -6  -4   0    2.19    0.74
  -6  -4   0    3.04    0.52
   6   4   0    3.36    0.56
   6   4   0    2.96    0.27
  -7  -4   0    1.27    0.42
  -7  -4   0    1.46    0.54
   7   4   0    0.52    0.39
  -8  -4   0   -0.08    0.52
  -8  -4   0    0.20    0.59
   8   4   0    0.47    0.49
  -9  -4   0   -0.65    0.79
  -9  -4   0   -0.75    0.77
   9   4   0    0.20    0.68
   9   4   0    2.38    0.81
   9  -5   0    0.06    0.46
  -9   5   0    0.84    0.69
  -9   5   0    0.03    0.63
   8  -5   0    2.22    0.42
  -8   5   0    2.44    0.52
  -8   5   0    2.46    0.52
   7  -5   0    4.28    0.51
   7  -5   0    4.53    0.70
  -7   5   0    3.56    0.56
  -7   5   0    3.01    0.48
  -7   5   0    3.32    0.50
   6  -5   0    5.86    0.66
  -6   5   0    6.23    0.64
  -6   5   0    5.76    0.73
  -6   5   0    5.31    0.53
  -6   5   0    4.58    0.63
   5  -5   0    0.92    0.25
   5  -5   0    1.00    0.27
   5  -5   0    1.29    0.30
  -5   5   0    1.45    0.31
  -5   5   0    1.96    0.34
  -5   5   0    1.23    0.32
  -5   5   0    1.26    0.35
  -5   5   0    0.97    0.29
   4  -5   0    1.23    0.29
   4  -5   0    1.89    0.29
   4  -5   0    1.62    0.31
  -4   5   0    1.62    0.30
  -4   5   0    1.18    0.29
  -4   5   0    1.32    0.27
  -4   5   0    1.19    0.23
  -4   5   0    1.31    0.25
   3  -5   0   24.63    1.16
   3  -5   0   23.18    1.12
   3  -5   0   25.76    1.14
   3  -5   0   25.45    1.20
  -3   5   0   25.36    0.99
  -3   5   0   25.11    0.99
  -3   5   0   25.63    1.18
  -3   5   0   26.13    1.17
  -3   5   0   25.95    1.15
  -3   5   0   25.65    1.21
   2  -5   0   34.29    1.46
   2  -5   0   32.08    1.39
   2  -5   0   32.51    1.40
  -2   5   0   33.26    1.31
  -2   5   0   32.22    1.23
  -2   5   0   32.14    1.40
  -2   5   0   33.66    1.46
  -2   5   0   35.24    1.56
   1  -5   0   17.29    0.84
   1  -5   0   16.84    0.72
   1  -5   0   16.81    0.75
   1  -5   0   16.98    0.87
   1  -5   0   15.66    0.83
  -1   5   0   17.86    0.82
  -1   5   0   16.16    0.88
  -1   5   0   16.45    0.71
  -1   5   0   17.20    0.97
  -1   5   0   17.19    0.77
  -1   5   0   17.57    0.88
   0  -5   0    6.58    0.48
   0  -5   0    6.71    0.43
   0  -5   0    6.80    0.48
   0  -5   0    7.02    0.44
   0  -5   0    7.51    0.47
   0   5   0    5.88    0.44
   0   5   0    6.79    0.42
   0   5   0    6.52    0.44
   0   5   0    6.66    0.50
   0   5   0    7.14    0.50
   0   5   0    7.41    0.47
  -1  -5   0    5.36    0.45
  -1  -5   0    5.67    0.47
  -1  -5   0    5.64    0.41
  -1  -5   0    6.03    0.44
  -1  -5   0    5.52    0.45
   1   5   0    6.02    0.46
   1   5   0    6.10    0.47
   1   5   0    5.74    0.49
   1   5   0    6.16    0.42
   1   5   0    6.06    0.45
   1   5   0    5.06    0.40
  -2  -5   0    2.54    0.38
  -2  -5   0    3.67    0.33
  -2  -5   0    3.61    0.41
  -2  -5   0    2.85    0.37
  -2  -5   0    3.90    0.39
   2   5   0    2.32    0.36
   2   5   0    3.51    0.40
   2   5   0    2.66    0.37
   2   5   0    3.40    0.41
   2   5   0    3.47    0.37
  -3  -5   0    7.88    0.60
  -3  -5   0    8.54    0.63
  -3  -5   0    7.72    0.60
  -3  -5   0    8.74    0.51
  -3  -5   0    8.58    0.61
   3   5   0    8.93    0.64
   3   5   0   10.11    0.67
   3   5   0    7.87    0.59
   3   5   0    8.24    0.50
   3   5   0    8.99    0.57
   3   5   0    8.51    0.61
  -4  -5   0   21.55    1.15
  -4  -5   0   22.44    1.18
   4   5   0   21.21    1.18
   4   5   0   21.98    1.02
   4   5   0   21.27    1.01
   4   5   0   22.48    1.17
  -5  -5   0    0.31    0.35
  -5  -5   0    0.04    0.30
   5   5   0   -0.24    0.36
   5   5   0    0.18    0.21
   5   5   0    0.18    0.31
  -6  -5   0    0.10    0.41
  -6  -5   0    0.16    0.43
   6   5   0   -0.12    0.23
  -7  -5   0    0.57    0.48
  -7  -5   0    0.88    0.54
   7   5   0    1.48    0.52
  -8  -5   0    1.38    0.76
  -8  -5   0    1.01    0.64
   8   5   0    0.76    0.64
   8   5   0    0.96    0.64
   9  -6   0    0.19    0.52
  -9   6   0    0.27    0.75
   8  -6   0   -0.13    0.54
  -8   6   0    0.94    0.50
  -8   6   0    0.45    0.62
  -8   6   0    0.20    0.57
   7  -6   0    0.37    0.34
  -7   6   0    0.24    0.44
  -7   6   0    0.47    0.51
  -7   6   0    0.43    0.40
   6  -6   0    3.39    0.53
   6  -6   0    2.12    0.51
   6  -6   0    3.13    0.51
  -6   6   0    3.52    0.56
  -6   6   0    3.90    0.48
  -6   6   0    4.38    0.68
   5  -6   0    2.28    0.38
   5  -6   0    2.09    0.42
   5  -6   0    2.19    0.39
  -5   6   0    1.88    0.28
  -5   6   0    1.42    0.39
  -5   6   0    1.57    0.24
  -5   6   0    2.28    0.45
  -5   6   0    1.80    0.40
  -5   6   0    1.81    0.25
   4  -6   0    0.06    0.23
   4  -6   0    0.31    0.25
   4  -6   0   -0.07    0.28
  -4   6   0    0.47    0.22
  -4   6   0   -0.43    0.29
  -4   6   0    0.16    0.15
  -4   6   0    0.53    0.21
  -4   6   0    0.15    0.26
  -4   6   0    0.25    0.27
  -4   6   0    0.13    0.22
   3  -6   0   -0.41    0.20
   3  -6   0   -0.17    0.22
   3  -6   0    0.18    0.23
   3  -6   0   -0.04    0.25
  -3   6   0   -0.08    0.13
  -3   6   0    0.03    0.22
  -3   6   0   -0.19    0.25
  -3   6   0    0.29    0.18
  -3   6   0    0.18    0.16
  -3   6   0   -0.13    0.30
   2  -6   0    4.59    0.51
   2  -6   0    4.70    0.52
   2  -6   0    4.17    0.43
  -2   6   0    5.46    0.39
  -2   6   0    5.87    0.51
  -2   6   0    4.44    0.52
  -2   6   0    5.71    0.47
  -2   6   0    5.28    0.51
  -2   6   0    5.17    0.32
   1  -6   0   21.34    1.07
   1  -6   0   22.47    0.95
   1  -6   0   21.71    1.06
   1  -6   0   22.34    1.09
   1  -6   0   21.56    0.94
  -1   6   0   20.87    1.06
  -1   6   0   21.92    0.99
  -1   6   0   22.42    1.03
  -1   6   0   22.51    1.12
   0  -6   0   10.14    0.65
   0  -6   0   10.56    0.60
   0  -6   0   10.66    0.61
   0  -6   0   10.07    0.61
   0  -6   0   10.26    0.63
   0   6   0   10.43    0.66
   0   6   0   11.35    0.68
   0   6   0   10.01    0.59
   0   6   0   10.33    0.64
   0   6   0   10.72    0.72
   0   6   0   11.73    0.71
  -1  -6   0    1.30    0.24
  -1  -6   0    0.81    0.25
  -1  -6   0    1.21    0.28
  -1  -6   0    0.87    0.25
  -1  -6   0    1.05    0.24
   1   6   0    0.93    0.27
   1   6   0    0.85    0.25
   1   6   0    1.11    0.22
   1   6   0    0.95    0.22
   1   6   0    1.22    0.27
  -2  -6   0    3.12    0.46
  -2  -6   0    3.11    0.45
  -2  -6   0    2.59    0.43
  -2  -6   0    3.44    0.42
  -2  -6   0    2.89    0.35
   2   6   0    3.46    0.46
   2   6   0    3.81    0.42
   2   6   0    3.03    0.41
   2   6   0    3.06    0.45
   2   6   0    2.33    0.41
  -3  -6   0   31.01    1.49
  -3  -6   0   32.42    1.54
  -3  -6   0   32.57    1.34
   3   6   0   30.17    1.54
   3   6   0   30.33    1.48
   3   6   0   34.54    1.59
   3   6   0   32.26    1.43
  -4  -6   0   45.24    1.85
  -4  -6   0   49.03    2.16
  -4  -6   0   51.11    2.15
   4   6   0   47.22    2.12
   4   6   0   47.94    2.17
   4   6   0   48.27    1.94
   4   6   0   46.72    1.89
  -5  -6   0    0.40    0.39
   5   6   0   -0.04    0.48
   5   6   0    0.36    0.44
   5   6   0    0.44    0.27
  -6  -6   0    1.65    0.56
  -6  -6   0    2.54    0.59
   6   6   0    2.45    0.55
   6   6   0    2.15    0.58
   6   6   0    1.63    0.34
  -7  -6   0   -0.28    0.63
  -7  -6   0    0.70    0.61
   7   6   0    0.07    0.59
  -8  -6   0   -0.04    0.68
  -8  -6   0    0.26    0.82
   8   6   0    1.49    0.75
   8   6   0    0.77    0.78
  -9   7   0    3.27    0.90
   8  -7   0    6.31    0.91
   8  -7   0    8.00    0.73
  -8   7   0    5.25    0.87
  -8   7   0    8.74    1.10
   7  -7   0    4.36    0.66
   7  -7   0    4.28    0.68
  -7   7   0    3.97    0.65
  -7   7   0    7.32    1.12
  -7   7   0    3.85    0.88
   6  -7   0    4.99    0.69
   6  -7   0    4.46    0.59
   6  -7   0    3.96    0.67
  -6   7   0    5.16    0.53
  -6   7   0    4.90    0.46
  -6   7   0    5.00    0.73
  -6   7   0    4.39    0.70
   5  -7   0    1.59    0.36
   5  -7   0    1.09    0.36
   5  -7   0    0.25    0.43
  -5   7   0    1.52    0.27
  -5   7   0    1.39    0.39
  -5   7   0    1.11    0.25
  -5   7   0    1.72    0.47
   4  -7   0    2.72    0.44
   4  -7   0    2.21    0.47
   4  -7   0    3.05    0.42
  -4   7   0    3.60    0.57
  -4   7   0    2.29    0.44
  -4   7   0    2.55    0.36
  -4   7   0    2.60    0.49
  -4   7   0    2.23    0.31
   3  -7   0   20.96    1.13
   3  -7   0   21.65    1.18
   3  -7   0   21.06    1.19
  -3   7   0   22.49    1.11
  -3   7   0   22.92    1.21
  -3   7   0   22.83    1.27
  -3   7   0   21.96    0.92
   2  -7   0   16.20    0.95
   2  -7   0   15.93    0.66
   2  -7   0   15.65    0.91
   2  -7   0   15.28    0.64
   2  -7   0   15.69    0.91
  -2   7   0   15.19    1.00
  -2   7   0   16.52    0.85
  -2   7   0   16.51    0.93
  -2   7   0   15.34    0.81
   1  -7   0   18.55    0.88
   1  -7   0   18.86    0.88
   1  -7   0   19.39    0.88
   1  -7   0   18.29    1.02
   1  -7   0   17.58    1.00
   1  -7   0   20.06    1.06
  -1   7   0   19.96    1.09
  -1   7   0   18.97    1.04
  -1   7   0   16.64    0.97
  -1   7   0   18.90    0.96
  -1   7   0   20.62    1.02
  -1   7   0   19.04    0.85
   0  -7   0   -0.09    0.19
   0  -7   0    0.07    0.19
   0  -7   0   -0.19    0.31
   0  -7   0    0.52    0.25
   0   7   0    0.17    0.20
   0   7   0    0.17    0.24
   0   7   0   -0.24    0.27
   0   7   0   -0.53    0.26
   0   7   0    0.12    0.26
   0   7   0    0.10    0.27
  -1  -7   0    6.74    0.53
  -1  -7   0    7.71    0.59
  -1  -7   0    5.55    0.53
  -1  -7   0    6.63    0.57
   1   7   0    5.92    0.58
   1   7   0    5.82    0.52
   1   7   0    6.43    0.64
   1   7   0    6.20    0.51
   1   7   0    7.28    0.64
  -2  -7   0    7.86    0.67
  -2  -7   0    9.60    0.63
  -2  -7   0    8.70    0.68
   2   7   0    9.09    0.79
   2   7   0    6.98    0.70
   2   7   0    9.39    0.65
   2   7   0    6.36    0.74
  -3  -7   0   83.73    3.40
  -3  -7   0   92.28    3.49
  -3  -7   0   84.01    3.23
   3   7   0   83.82    3.49
   3   7   0   94.72    3.58
   3   7   0   85.36    3.15
   3   7   0   91.04    3.38
  -4  -7   0    0.27    0.38
  -4  -7   0   -0.35    0.40
  -4  -7   0   -0.15    0.24
   4   7   0    0.36    0.45
   4   7   0    0.37    0.29
  -5  -7   0    0.22    0.50
  -5  -7   0    0.31    0.25
  -5  -7   0    0.53    0.45
   5   7   0    0.32    0.35
   5   7   0    0.70    0.55
   5   7   0    0.33    0.53
  -6  -7   0   -0.49    0.52
  -6  -7   0    0.01    0.57
   6   7   0    0.31    0.38
   6   7   0   -1.09    0.73
   6   7   0   -0.79    0.56
   6   7   0    0.93    0.58
  -7  -7   0    1.57    0.68
  -7  -7   0    1.41    0.72
   7   7   0    0.23    0.62
   7   7   0    0.67    0.66
   8  -8   0   -0.96    0.66
   8  -8   0    0.24    0.72
  -8   8   0    0.73    0.79
  -8   8   0   -0.42    0.79
   7  -8   0   -0.41    0.56
   7  -8   0   -0.77    0.57
   7  -8   0   -0.17    0.51
  -7   8   0   -0.54    0.60
  -7   8   0   -0.13    0.66
   6  -8   0    0.33    0.41
   6  -8   0    1.25    0.49
   6  -8   0    1.04    0.51
  -6   8   0    0.35    0.56
  -6   8   0    1.06    0.31
  -6   8   0    1.02    0.52
  -6   8   0    0.51    0.63
   5  -8   0    4.21    0.73
   5  -8   0    2.58    0.50
  -5   8   0    4.21    0.47
  -5   8   0    3.31    0.63
  -5   8   0    3.67    0.60
  -5   8   0    2.51    0.61
   4  -8   0    4.04    0.60
   4  -8   0    3.97    0.66
  -4   8   0    4.84    0.72
  -4   8   0    3.43    0.74
  -4   8   0    4.52    0.51
   3  -8   0    0.08    0.32
   3  -8   0    0.00    0.40
  -3   8   0   -0.24    0.34
  -3   8   0   -0.34    0.27
  -3   8   0   -0.46    0.37
   2  -8   0    0.56    0.16
   2  -8   0    0.58    0.40
   2  -8   0   -0.01    0.28
  -2   8   0    0.41    0.20
  -2   8   0    0.37    0.35
  -2   8   0   -0.12    0.32
  -2   8   0    0.61    0.31
   1  -8   0    4.38    0.60
   1  -8   0    4.52    0.42
   1  -8   0    3.44    0.58
   1  -8   0    3.58    0.55
  -1   8   0    4.41    0.57
  -1   8   0    3.78    0.55
  -1   8   0    3.93    0.60
  -1   8   0    4.23    0.57
   0  -8   0    3.21    0.50
   0  -8   0    4.19    0.62
   0  -8   0    4.07    0.43
   0  -8   0    3.89    0.54
   0  -8   0    3.88    0.47
   0   8   0    3.46    0.60
   0   8   0    3.93    0.53
   0   8   0    4.16    0.60
  -1  -8   0   16.57    1.01
  -1  -8   0   16.84    1.02
  -1  -8   0   16.99    0.95
   1   8   0   18.56    1.13
   1   8   0   16.35    1.15
   1   8   0   16.34    1.06
  -2  -8   0    0.25    0.32
  -2  -8   0   -0.16    0.28
  -2  -8   0    0.28    0.38
   2   8   0    0.48    0.39
   2   8   0   -0.28    0.39
   2   8   0    0.00    0.42
  -3  -8   0    1.77    0.45
  -3  -8   0    1.81    0.37
  -3  -8   0    2.09    0.46
   3   8   0    1.48    0.41
   3   8   0    1.88    0.53
   3   8   0    2.13    0.30
   3   8   0    2.36    0.56
  -4  -8   0    4.06    0.70
  -4  -8   0    4.11    0.72
  -4  -8   0    4.15    0.50
   4   8   0    3.51    0.45
   4   8   0    3.85    0.65
   4   8   0    4.90    0.67
   4   8   0    4.56    0.76
  -5  -8   0    1.11    0.52
  -5  -8   0    0.69    0.54
   5   8   0    0.03    0.41
   5   8   0    0.35    0.61
   5   8   0    0.31    0.57
  -6  -8   0    0.35    0.63
  -6  -8   0    0.84    0.63
   6   8   0   -0.07    0.68
   6   8   0   -0.39    0.67
  -7  -8   0    1.14    0.87
  -7  -8   0   -0.84    0.91
   7   8   0   -0.06    0.78
   7  -9   0    0.97    0.70
   7  -9   0    2.16    0.69
  -7   9   0    1.47    0.80
  -7   9   0    1.31    0.80
   6  -9   0    1.11    0.57
   6  -9   0    1.35    0.62
  -6   9   0    3.14    0.91
  -6   9   0    0.35    0.62
   5  -9   0    0.38    0.56
  -5   9   0    1.06    0.63
  -5   9   0   -0.22    0.55
  -5   9   0   -0.30    0.37
   4  -9   0   11.79    1.09
   4  -9   0   12.49    1.04
  -4   9   0   13.08    0.83
  -4   9   0   13.46    1.18
  -4   9   0   12.82    1.59
   3  -9   0    4.75    0.76
   3  -9   0    4.57    0.71
  -3   9   0    3.88    0.64
  -3   9   0    3.74    0.45
  -3   9   0    5.31    0.78
  -3   9   0    5.05    0.61
  -3   9   0    3.80    0.65
   2  -9   0    1.27    0.46
   2  -9   0    0.72    0.42
  -2   9   0    0.57    0.46
  -2   9   0    0.28    0.44
  -2   9   0    0.60    0.38
   1  -9   0   11.04    0.69
   1  -9   0   11.37    0.96
   1  -9   0   12.22    0.99
  -1   9   0   11.43    0.98
  -1   9   0    9.62    0.99
  -1   9   0    9.62    0.87
   0  -9   0    0.24    0.27
   0  -9   0    0.87    0.42
   0  -9   0   -0.29    0.38
   0  -9   0   -0.11    0.30
   0   9   0   -0.20    0.37
   0   9   0    0.04    0.79
  -1  -9   0    4.01    0.55
  -1  -9   0    4.00    0.57
  -1  -9   0    4.26    0.69
   1   9   0    5.46    0.88
   1   9   0    4.88    0.68
   1   9   0    3.43    0.67
  -2  -9   0    3.98    0.64
  -2  -9   0    4.15    0.64
   2   9   0    3.26    0.67
   2   9   0    3.34    0.59
   2   9   0    4.12    0.69
  -3  -9   0    7.03    0.75
  -3  -9   0    8.37    1.00
  -3  -9   0    9.73    0.97
   3   9   0    8.57    0.93
   3   9   0    9.61    0.96
   3   9   0    7.58    0.96
  -4  -9   0   -0.19    0.50
  -4  -9   0    0.35    0.41
  -4  -9   0   -0.36    0.50
   4   9   0    0.25    0.52
   4   9   0   -0.47    0.59
   4   9   0    0.58    0.56
  -5  -9   0   -0.60    0.58
  -5  -9   0    0.20    0.64
   5   9   0    0.22    0.59
   5   9   0    0.56    0.67
   5   9   0   -0.06    0.65
  -6  -9   0    0.03    0.73
  -6  -9   0    0.25    0.74
   6   9   0   -0.50    0.95
   6 -10   0   -0.18    0.67
   6 -10   0    0.27    0.69
  -6  10   0   -1.37    0.82
  -6  10   0   -0.30    0.79
   5 -10   0    4.88    0.79
   5 -10   0    5.60    0.95
  -5  10   0    4.71    0.80
  -5  10   0    3.48    0.78
  -5  10   0    4.75    0.86
   4 -10   0    4.69    0.82
   4 -10   0    2.91    0.65
  -4  10   0    3.20    0.59
  -4  10   0    2.78    0.70
  -4  10   0    3.49    0.71
   3 -10   0    0.36    0.54
   3 -10   0    0.70    0.48
  -3  10   0   -0.25    0.57
  -3  10   0   -0.10    0.46
  -3  10   0   -1.00    0.51
   2 -10   0   -0.14    0.48
   2 -10   0    0.32    0.49
  -2  10   0    0.62    0.54
  -2  10   0    0.09    0.64
  -2  10   0   -0.76    0.66
   1 -10   0    2.69    0.59
   1 -10   0    2.14    0.51
   1 -10   0    1.45    0.34
  -1  10   0    0.94    0.59
  -1  10   0    1.49    0.59
  -1  10   0    1.51    0.48
   0 -10   0    0.10    0.47
   0 -10   0    0.43    0.37
   0 -10   0    0.58    0.52
   0 -10   0    0.05    0.33
   0  10   0   -0.19    0.49
   0  10   0    1.11    0.52
   0  10   0    0.21    0.53
  -1 -10   0    0.58    0.40
  -1 -10   0    0.07    0.52
  -1 -10   0    1.59    0.54
  -1 -10   0    0.49    0.44
   1  10   0    1.42    0.59
   1  10   0    1.63    0.56
   1  10   0    0.44    0.57
  -2 -10   0    1.12    0.57
  -2 -10   0    1.22    0.50
  -2 -10   0    0.51    0.50
   2  10   0    1.21    0.65
   2  10   0    1.47    0.52
   2  10   0    0.67    0.67
  -3 -10   0    0.68    0.54
  -3 -10   0   -0.24    0.50
  -3 -10   0    0.52    0.52
   3  10   0    1.30    0.62
   3  10   0   -0.38    0.68
   3  10   0    0.46    0.73
  -4 -10   0    0.38    0.60
  -4 -10   0    0.52    0.64
   4  10   0   -0.51    0.70
   4  10   0    0.58    0.73
   4  10   0    0.23    0.63
  -5 -10   0    0.01    0.73
  -5 -10   0   -0.42    0.76
   5  10   0   -0.12    0.90
   5  10   0    0.67    0.97
   5 -11   0   -0.89    0.67
   5 -11   0    0.06    0.74
  -5  11   0   -0.69    0.83
  -5  11   0   -0.71    0.86
   4 -11   0   -0.10    0.62
   4 -11   0    0.24    0.72
  -4  11   0   -0.49    0.71
  -4  11   0    1.01    0.78
  -4  11   0    0.48    0.63
   3 -11   0   -0.50    0.59
   3 -11   0   -1.20    0.59
  -3  11   0   -0.67    0.58
  -3  11   0    0.20    0.67
  -3  11   0    0.43    0.70
   2 -11   0    2.10    0.68
   2 -11   0    1.21    0.64
  -2  11   0    1.71    0.73
  -2  11   0    1.96    0.70
  -2  11   0    2.10    0.61
   1 -11   0    2.47    0.64
   1 -11   0    2.87    0.65
  -1  11   0    1.02    0.60
  -1  11   0   -0.13    1.11
  -1  11   0   -0.43    0.62
   0 -11   0    6.96    0.82
   0 -11   0    8.33    0.86
   0 -11   0    6.83    0.90
   0 -11   0    9.76    1.02
   0  11   0    8.26    1.15
   0  11   0    8.41    1.16
   0  11   0    8.12    1.19
  -1 -11   0    0.74    0.58
  -1 -11   0    0.75    0.54
  -1 -11   0    1.06    0.65
  -1 -11   0    1.43    0.57
   1  11   0    1.20    0.65
   1  11   0    1.10    0.75
   1  11   0    0.61    0.64
  -2 -11   0    7.06    1.01
  -2 -11   0    5.79    0.98
   2  11   0    6.42    1.10
   2  11   0    3.79    0.90
   2  11   0    5.58    0.98
  -3 -11   0    4.01    0.74
  -3 -11   0    3.48    0.74
   3  11   0    2.62    1.00
   3  11   0    3.72    0.87
   3  11   0    0.41    1.36
   3 -12   0    0.11    0.81
  -3  12   0   -1.72    0.87
  -3  12   0   -0.40    0.73
  -3  12   0   -0.62    0.86
  -2  12   0    0.71    0.87
  -2  12   0    1.02    0.82
  -2  12   0   -0.62    0.77
   1 -12   0    0.94    0.74
   1 -12   0    0.55    0.74
  -1  12   0    0.49    0.82
  -1  12   0    1.61    0.82
  -1  12   0   -1.17    0.90
   0 -12   0   -0.11    0.69
   0 -12   0   -0.52    0.72
   0  12   0    0.38    0.88
   0  12   0    0.67    0.84
   0  12   0    0.37    0.80
  -1 -12   0    3.77    0.86
  -1 -12   0    4.07    0.97
  -1 -12   0    2.71    0.79
   1  12   0    3.33    1.06
   1  12   0    4.17    0.93
   1  12   0    3.74    0.99
   0  12  -1    1.28    0.98
   0  12  -1   -0.18    0.90
   0 -12   1    0.29    0.83
   0 -12   1    0.26    0.80
  -1  12  -1    2.11    1.06
  -1  12  -1    1.14    0.94
  -1  12  -1    1.53    1.02
   1 -12   1    1.87    0.88
   1 -12   1    1.08    0.91
  -2  12  -1    0.89    1.03
  -2  12  -1    0.76    0.88
  -2  12  -1    1.02    1.72
   2 -12   1    0.21    0.84
   2 -12   1    1.50    0.79
  -3 -11   1    0.45    0.81
  -3 -11   1    0.14    0.75
   2  11  -1   -0.89    0.73
   2  11  -1    1.40    0.89
   2  11  -1    1.57    0.86
  -2 -11   1   -0.22    0.76
  -2 -11   1   -0.64    0.67
  -2 -11   1   -0.74    0.64
   1  11  -1    2.55    0.88
   1  11  -1    2.11    0.68
   1  11  -1    5.98    1.05
  -1 -11   1    3.09    0.81
  -1 -11   1    3.42    0.70
  -1 -11   1    3.34    0.71
   0  11  -1    4.28    0.80
   0  11  -1    3.81    0.86
   0 -11   1    3.29    0.77
   0 -11   1    3.93    0.79
   0 -11   1    4.64    0.87
   0 -11   1    5.51    0.77
  -1  11  -1   -0.10    0.65
  -1  11  -1    1.67    0.75
  -1  11  -1    0.10    0.71
   1 -11   1    0.76    0.67
   1 -11   1    0.15    0.67
  -2  11  -1    1.43    0.81
  -2  11  -1    0.13    0.67
  -2  11  -1   -0.36    0.64
   2 -11   1    2.36    0.66
   2 -11   1    1.32    0.67
  -3  11  -1   -0.74    0.69
  -3  11  -1    0.41    0.60
   3 -11   1    0.26    0.65
   3 -11   1   -1.09    0.58
  -4  11  -1    1.31    0.83
  -4  11  -1    0.48    0.73
  -4  11  -1    0.27    0.75
   4 -11   1    1.20    0.73
   4 -11   1    0.36    0.77
  -5  11  -1   -0.52    0.85
  -5  11  -1   -1.44    0.89
   5 -11   1   -0.58    0.85
   4  10  -1    0.59    0.89
   4  10  -1   -0.38    0.72
   4  10  -1   -0.23    0.89
  -4 -10   1    0.19    0.69
  -4 -10   1    0.17    0.70
   3  10  -1    0.94    0.75
   3  10  -1    2.61    0.86
   3  10  -1    0.52    0.59
  -3 -10   1    1.64    0.58
  -3 -10   1    1.37    0.58
  -3 -10   1    2.05    0.63
   2  10  -1    2.08    0.72
   2  10  -1    3.45    0.74
   2  10  -1    3.03    0.76
  -2 -10   1    2.50    0.59
  -2 -10   1    3.06    0.59
   1  10  -1    1.19    0.59
   1  10  -1    1.49    0.57
  -1 -10   1    0.19    0.50
  -1 -10   1    1.67    0.50
  -1 -10   1    1.47    0.51
  -1 -10   1    0.21    0.58
   0  10  -1   -0.15    0.58
   0  10  -1   -0.19    0.56
   0  10  -1   -0.33    0.53
   0 -10   1    0.41    0.43
   0 -10   1   -0.73    0.54
   0 -10   1    0.04    0.45
   0 -10   1   -0.58    0.40
  -1  10  -1    0.74    0.55
  -1  10  -1    0.61    0.49
  -1  10  -1    0.50    0.59
   1 -10   1    0.57    0.46
   1 -10   1   -0.09    0.36
   1 -10   1    2.10    0.58
  -2  10  -1   -0.69    0.54
  -2  10  -1    0.04    0.51
  -2  10  -1    0.00    0.53
   2 -10   1    0.29    0.53
   2 -10   1    0.31    0.47
  -3  10  -1   -0.60    0.62
  -3  10  -1    1.82    0.64
   3 -10   1    0.04    0.57
   3 -10   1    0.75    0.51
  -4  10  -1    1.88    0.63
  -4  10  -1    0.65    0.53
  -4  10  -1    1.11    0.62
   4 -10   1    0.09    0.56
   4 -10   1    1.79    0.64
  -5  10  -1    0.08    0.54
  -5  10  -1   -0.09    0.67
  -5  10  -1   -0.84    0.66
   5 -10   1    1.07    0.66
   5 -10   1    0.98    0.68
  -6  10  -1   -0.73    0.85
  -6  10  -1   -1.11    0.80
   6 -10   1    0.50    0.83
   5   9  -1    3.81    0.94
   5   9  -1    3.34    0.80
   5   9  -1    3.44    0.94
  -5  -9   1    2.84    0.78
  -5  -9   1    3.95    0.73
   4   9  -1    3.32    0.73
   4   9  -1    4.07    0.82
   4   9  -1    2.78    0.66
  -4  -9   1    3.84    0.63
  -4  -9   1    4.98    0.87
   3   9  -1    0.04    0.61
   3   9  -1    0.54    0.51
   3   9  -1   -0.25    0.63
  -3  -9   1    0.28    0.42
  -3  -9   1    0.01    0.51
  -3  -9   1    0.88    0.50
   2   9  -1    0.09    0.51
   2   9  -1   -0.65    0.52
   2   9  -1   -0.10    0.50
  -2  -9   1   -0.53    0.41
  -2  -9   1    0.10    0.46
  -2  -9   1   -0.13    0.37
   1   9  -1    4.26    0.69
   1   9  -1    3.15    0.66
   1   9  -1    4.78    0.74
  -1  -9   1    3.22    0.56
  -1  -9   1    4.21    0.73
  -1  -9   1    4.02    0.68
  -1  -9   1    4.97    0.62
   0   9  -1    4.98    0.79
   0   9  -1    5.66    0.85
   0   9  -1    5.19    0.72
   0   9  -1    5.64    0.90
   0  -9   1    4.82    0.60
   0  -9   1    6.25    0.62
   0  -9   1    6.00    0.77
   0  -9   1    4.92    0.67
  -1   9  -1    4.02    0.71
  -1   9  -1    3.98    0.62
  -1   9  -1    3.51    0.62
   1  -9   1    4.25    0.70
   1  -9   1    4.35    0.51
  -2   9  -1    2.64    0.62
  -2   9  -1    2.67    0.51
  -2   9  -1    2.36    0.56
   2  -9   1    2.01    0.80
   2  -9   1    1.69    0.33
   2  -9   1    1.67    0.54
  -3   9  -1    0.46    0.39
  -3   9  -1    0.89    0.49
  -3   9  -1    0.01    0.58
   3  -9   1   -0.62    0.41
   3  -9   1   -0.30    0.44
  -4   9  -1    0.09    0.50
  -4   9  -1    0.13    0.38
   4  -9   1    0.70    0.49
   4  -9   1    0.09    0.47
  -5   9  -1    0.15    0.39
  -5   9  -1   -0.36    0.56
  -5   9  -1   -0.62    0.54
   5  -9   1    0.15    0.51
   5  -9   1    0.41    0.52
  -6   9  -1    2.31    0.70
  -6   9  -1    2.00    0.70
   6  -9   1    2.41    0.68
   6  -9   1    1.94    0.63
  -7   9  -1   -1.03    0.73
  -7   9  -1   -0.07    0.79
   7  -9   1   -0.20    0.67
   7  -9   1    0.64    0.75
  -6  -8   1    0.08    0.71
  -6  -8   1   -0.06    0.75
   5   8  -1    1.72    0.68
   5   8  -1    2.01    0.56
   5   8  -1    1.42    0.68
  -5  -8   1    1.24    0.61
  -5  -8   1    0.79    0.57
   4   8  -1    2.55    0.61
   4   8  -1    2.25    0.61
   4   8  -1    1.37    0.51
  -4  -8   1    3.07    0.60
  -4  -8   1    1.61    0.54
  -4  -8   1    1.93    0.37
   3   8  -1    0.16    0.53
   3   8  -1   -0.18    0.42
   3   8  -1    0.32    0.47
  -3  -8   1    0.12    0.46
  -3  -8   1    0.08    0.43
  -3  -8   1   -0.13    0.31
   2   8  -1   15.22    1.13
   2   8  -1   13.59    1.04
   2   8  -1   12.23    1.04
  -2  -8   1   14.78    0.99
  -2  -8   1   15.45    1.09
  -2  -8   1   14.54    0.90
   1   8  -1    2.76    0.58
   1   8  -1    3.86    0.59
   1   8  -1    4.02    0.68
  -1  -8   1    4.67    0.57
  -1  -8   1    4.49    0.57
  -1  -8   1    3.49    0.59
   0   8  -1    0.84    0.41
   0   8  -1    0.43    0.34
   0   8  -1    0.96    0.41
   0   8  -1    0.59    0.45
   0  -8   1    0.15    0.26
   0  -8   1    0.60    0.40
   0  -8   1    0.76    0.30
   0  -8   1    0.82    0.41
  -1   8  -1    2.03    0.46
  -1   8  -1    1.67    0.36
  -1   8  -1    2.02    0.43
   1  -8   1    1.72    0.33
   1  -8   1    1.81    0.30
   1  -8   1    1.60    0.39
   1  -8   1    1.26    0.41
  -2   8  -1   11.14    0.75
  -2   8  -1   11.08    0.80
  -2   8  -1   11.65    0.88
  -2   8  -1   10.84    1.20
  -2   8  -1   10.97    0.80
   2  -8   1   11.31    0.62
   2  -8   1   11.45    0.88
   2  -8   1   10.88    0.85
  -3   8  -1    0.82    0.49
  -3   8  -1    0.99    0.45
  -3   8  -1    0.93    0.32
   3  -8   1    0.58    0.37
  -4   8  -1    0.72    0.48
  -4   8  -1    0.76    0.43
  -4   8  -1    0.23    0.31
   4  -8   1    0.83    0.45
   4  -8   1    0.64    0.46
  -5   8  -1    0.57    0.30
  -5   8  -1    0.63    0.51
  -5   8  -1    0.53    0.50
  -5   8  -1    0.17    0.30
   5  -8   1    1.54    0.65
   5  -8   1    0.22    0.45
  -6   8  -1    1.25    0.34
  -6   8  -1    1.97    0.38
  -6   8  -1    2.16    0.61
  -6   8  -1    1.63    0.53
   6  -8   1    2.54    0.55
   6  -8   1    1.49    0.54
  -7   8  -1    1.18    0.68
  -7   8  -1   -0.05    0.67
   7  -8   1    1.93    0.62
   7  -8   1    0.83    0.63
   7  -8   1    1.48    0.50
  -8   8  -1    0.92    0.79
  -8   8  -1    2.11    0.81
   8  -8   1    0.91    0.63
   8  -8   1    1.50    0.70
   7   7  -1   -0.01    0.91
  -7  -7   1   -0.32    0.84
  -7  -7   1   -0.05    0.73
   6   7  -1    0.13    0.61
   6   7  -1    0.33    0.58
  -6  -7   1   -0.06    0.62
  -6  -7   1   -0.57    0.66
   5   7  -1    2.13    0.63
   5   7  -1    2.38    0.45
   5   7  -1    1.94    0.61
  -5  -7   1    1.92    0.58
  -5  -7   1    1.82    0.54
   4   7  -1    0.90    0.38
   4   7  -1    0.98    0.30
   4   7  -1    0.69    0.48
   4   7  -1    0.69    0.51
  -4  -7   1    0.99    0.49
  -4  -7   1    0.67    0.43
  -4  -7   1    0.53    0.26
   3   7  -1   12.42    0.67
   3   7  -1   13.91    0.91
  -3  -7   1   12.72    0.74
  -3  -7   1   12.68    0.94
  -3  -7   1   13.77    0.96
   2   7  -1   -0.54    0.34
   2   7  -1   -0.46    0.38
   2   7  -1   -0.23    0.33
  -2  -7   1   -0.12    0.29
  -2  -7   1    0.07    0.31
  -2  -7   1   -0.22    0.22
   1   7  -1  108.14    4.05
   1   7  -1  106.99    3.92
   1   7  -1  104.70    3.65
   1   7  -1  111.99    4.09
   1   7  -1  106.27    3.91
   1   7  -1  103.05    4.05
  -1  -7   1  101.16    3.89
  -1  -7   1  107.63    3.96
  -1  -7   1  105.13    3.96
   0   7  -1   21.79    1.24
   0   7  -1   23.70    1.25
   0   7  -1   20.44    1.10
   0   7  -1   23.57    1.19
   0  -7   1   23.40    1.12
   0  -7   1   21.56    1.14
   0  -7   1   22.68    1.09
   0  -7   1   21.33    1.08
   0  -7   1   23.25    1.24
  -1   7  -1    8.44    0.58
  -1   7  -1    7.01    0.61
  -1   7  -1    8.49    0.67
  -1   7  -1    8.08    0.66
  -1   7  -1    8.12    0.71
   1  -7   1    6.67    0.61
   1  -7   1    8.22    0.54
   1  -7   1    8.50    0.64
   1  -7   1    8.70    0.69
   1  -7   1    8.17    0.56
   1  -7   1    8.11    0.55
  -2   7  -1    0.42    0.24
  -2   7  -1    0.79    0.32
  -2   7  -1    0.19    0.32
   2  -7   1    0.73    0.30
   2  -7   1    0.34    0.29
   2  -7   1    0.52    0.16
   2  -7   1    0.57    0.34
  -3   7  -1    1.31    0.38
  -3   7  -1    1.76    0.35
  -3   7  -1    1.42    0.30
   3  -7   1    1.78    0.40
   3  -7   1    0.92    0.37
   3  -7   1    1.80    0.39
  -4   7  -1    3.17    0.55
  -4   7  -1    1.98    0.39
  -4   7  -1    2.54    0.51
  -4   7  -1    2.14    0.37
  -4   7  -1    2.86    0.36
   4  -7   1    2.18    0.49
   4  -7   1    2.64    0.47
   4  -7   1    2.33    0.47
  -5   7  -1   10.49    0.59
  -5   7  -1    9.28    0.65
  -5   7  -1    9.99    0.89
  -5   7  -1   11.16    0.86
   5  -7   1   11.37    0.90
   5  -7   1    9.88    0.72
  -6   7  -1    0.14    0.24
  -6   7  -1   -0.28    0.48
  -6   7  -1    0.12    0.30
  -6   7  -1    0.87    0.43
   6  -7   1    0.59    0.37
   6  -7   1    0.23    0.44
   6  -7   1   -0.53    0.41
  -7   7  -1    0.41    0.58
  -7   7  -1    0.14    0.41
  -7   7  -1    0.55    0.55
   7  -7   1   -1.01    0.52
   7  -7   1   -0.14    0.53
   7  -7   1   -0.34    0.42
  -8   7  -1   -1.30    0.65
  -8   7  -1    0.50    0.63
  -9   7  -1   -0.30    1.00
   7   6  -1    0.85    0.62
   7   6  -1    0.70    0.58
  -7  -6   1    0.74    0.62
  -7  -6   1    0.82    0.66
   6   6  -1   -0.69    0.54
  -6  -6   1   -0.85    0.53
  -6  -6   1    0.00    0.49
   5   6  -1    0.19    0.51
   5   6  -1    0.56    0.50
   5   6  -1    0.21    0.32
  -5  -6   1   -0.06    0.48
  -5  -6   1   -0.44    0.40
   4   6  -1    0.59    0.27
   4   6  -1    0.45    0.40
   4   6  -1    0.53    0.43
   4   6  -1    0.26    0.28
  -4  -6   1    0.60    0.37
  -4  -6   1    0.55    0.39
  -4  -6   1    0.46    0.21
   3   6  -1    0.84    0.37
   3   6  -1    0.21    0.34
   3   6  -1    0.52    0.28
   3   6  -1    0.44    0.22
  -3  -6   1    0.86    0.36
  -3  -6   1    0.32    0.31
  -3  -6   1    0.44    0.20
   2   6  -1   72.78    2.87
   2   6  -1   72.91    2.98
   2   6  -1   75.87    2.97
   2   6  -1   76.05    2.91
  -2  -6   1   74.49    2.80
  -2  -6   1   69.08    2.89
  -2  -6   1   78.21    2.93
   1   6  -1   50.40    2.11
   1   6  -1   51.25    1.83
   1   6  -1   49.57    2.14
   1   6  -1   51.30    2.15
   1   6  -1   52.52    2.18
   1   6  -1   51.27    2.06
   1   6  -1   51.77    2.03
  -1  -6   1   53.65    2.11
  -1  -6   1   51.78    2.11
  -1  -6   1   50.91    2.07
  -1  -6   1   51.66    2.13
   0   6  -1    1.42    0.30
   0   6  -1    1.68    0.28
   0   6  -1    1.25    0.26
   0   6  -1    1.80    0.32
   0   6  -1    1.77    0.32
   0   6  -1    1.33    0.29
   0  -6   1    1.42    0.27
   0  -6   1    1.68    0.29
   0  -6   1    1.49    0.28
   0  -6   1    1.51    0.28
   0  -6   1    1.58    0.26
  -1   6  -1    5.77    0.44
  -1   6  -1    6.83    0.62
  -1   6  -1    6.54    0.52
  -1   6  -1    5.80    0.51
  -1   6  -1    6.82    0.50
  -1   6  -1    6.04    0.45
   1  -6   1    6.37    0.51
   1  -6   1    6.22    0.44
   1  -6   1    6.08    0.53
   1  -6   1    6.55    0.45
   1  -6   1    6.73    0.45
  -2   6  -1   33.54    1.58
  -2   6  -1   33.22    1.45
  -2   6  -1   32.17    1.31
  -2   6  -1   32.32    1.34
  -2   6  -1   31.88    1.45
  -2   6  -1   31.24    1.49
   2  -6   1   33.29    1.49
   2  -6   1   31.45    1.19
   2  -6   1   32.09    1.48
   2  -6   1   32.29    1.20
   2  -6   1   31.51    1.40
  -3   6  -1   12.90    0.69
  -3   6  -1   15.74    0.84
  -3   6  -1   13.50    0.69
  -3   6  -1   13.98    0.68
  -3   6  -1   14.85    0.92
   3  -6   1   12.44    0.80
   3  -6   1   12.47    0.83
  -4   6  -1    0.32    0.19
  -4   6  -1    0.69    0.32
  -4   6  -1    0.01    0.28
  -4   6  -1    0.84    0.18
  -4   6  -1    0.10    0.22
  -4   6  -1    0.43    0.26
   4  -6   1    0.18    0.26
   4  -6   1    0.54    0.31
   4  -6   1    0.73    0.24
   4  -6   1    0.12    0.25
  -5   6  -1    0.33    0.32
  -5   6  -1    0.31    0.43
  -5   6  -1    1.03    0.36
  -5   6  -1    0.40    0.15
  -5   6  -1    0.47    0.25
   5  -6   1    0.19    0.34
   5  -6   1    0.25    0.27
   5  -6   1    0.36    0.36
  -6   6  -1   -0.17    0.34
  -6   6  -1    0.29    0.28
  -6   6  -1    0.26    0.37
   6  -6   1    0.39    0.31
   6  -6   1    0.40    0.38
   6  -6   1    0.35    0.41
  -7   6  -1    2.03    0.54
  -7   6  -1    1.81    0.53
  -7   6  -1    2.92    0.54
   7  -6   1    3.91    0.60
   7  -6   1    2.73    0.58
   7  -6   1    2.53    0.59
  -8   6  -1   -0.06    0.49
  -8   6  -1    0.61    0.56
  -8   6  -1    0.16    0.53
   8  -6   1    0.21    0.40
  -9   6  -1   -0.30    0.74
   9  -6   1    0.03    0.51
   8   5  -1    2.17    0.76
   8   5  -1   -0.43    0.75
  -8  -5   1    0.85    0.83
  -8  -5   1    0.61    0.75
   7   5  -1    0.21    0.65
  -7  -5   1    0.23    0.55
  -7  -5   1    0.29    0.58
   6   5  -1    0.78    0.48
   6   5  -1   -0.03    0.28
  -6  -5   1   -0.74    0.48
  -6  -5   1    0.30    0.43
   5   5  -1    0.02    0.44
   5   5  -1    0.34    0.25
  -5  -5   1    0.46    0.45
   4   5  -1   -0.17    0.34
   4   5  -1   -0.24    0.22
   4   5  -1    0.01    0.24
   4   5  -1    0.07    0.35
  -4  -5   1    0.41    0.30
  -4  -5   1    0.29    0.31
   3   5  -1    0.59    0.31
   3   5  -1    0.75    0.31
   3   5  -1    0.59    0.30
   3   5  -1    0.67    0.24
  -3  -5   1    0.53    0.18
  -3  -5   1    0.58    0.22
  -3  -5   1    0.09    0.26
  -3  -5   1    0.68    0.26
   2   5  -1   10.73    0.69
   2   5  -1    9.38    0.69
   2   5  -1   11.05    0.73
   2   5  -1   10.19    0.57
   2   5  -1   11.91    0.70
   2   5  -1   10.79    0.73
  -2  -5   1   11.51    0.80
  -2  -5   1   10.18    0.59
  -2  -5   1   10.22    0.65
  -2  -5   1   11.00    0.71
  -2  -5   1   11.86    0.71
  -2  -5   1   11.36    0.69
   1   5  -1    7.17    0.46
   1   5  -1    6.50    0.52
   1   5  -1    6.40    0.53
   1   5  -1    6.64    0.35
   1   5  -1    6.50    0.52
   1   5  -1    5.98    0.50
   1   5  -1    6.07    0.49
  -1  -5   1    5.99    0.46
  -1  -5   1    6.69    0.49
  -1  -5   1    7.05    0.47
  -1  -5   1    6.35    0.50
  -1  -5   1    5.82    0.47
  -1  -5   1    6.27    0.51
   0   5  -1    0.44    0.18
   0   5  -1    0.52    0.18
   0   5  -1    0.12    0.17
   0   5  -1    0.45    0.16
   0   5  -1    0.21    0.19
   0   5  -1    0.59    0.20
   0  -5   1    0.26    0.17
   0  -5   1    0.79    0.19
   0  -5   1    0.51    0.22
   0  -5   1    0.48    0.19
   0  -5   1    0.24    0.16
  -1   5  -1   21.52    0.97
  -1   5  -1   21.82    1.04
  -1   5  -1   22.22    1.18
  -1   5  -1   21.14    0.93
  -1   5  -1   21.99    1.07
  -1   5  -1   20.57    1.01
   1  -5   1   22.29    0.93
   1  -5   1   21.48    0.93
   1  -5   1   22.12    1.05
   1  -5   1   21.72    1.05
   1  -5   1   22.13    0.96
   1  -5   1   20.03    1.00
  -2   5  -1   22.75    0.97
  -2   5  -1   22.09    0.94
  -2   5  -1   22.36    1.12
  -2   5  -1   23.23    0.95
  -2   5  -1   22.48    1.10
  -2   5  -1   20.89    1.02
   2  -5   1   22.05    1.07
   2  -5   1   21.18    1.05
   2  -5   1   21.92    1.03
  -3   5  -1   17.57    0.74
  -3   5  -1   17.08    0.87
  -3   5  -1   17.62    0.92
  -3   5  -1   17.52    0.79
  -3   5  -1   18.10    0.95
  -3   5  -1   18.42    0.90
   3  -5   1   17.48    0.87
   3  -5   1   16.75    0.93
   3  -5   1   17.22    0.91
  -4   5  -1   16.73    0.95
  -4   5  -1   16.36    0.86
  -4   5  -1   16.86    0.94
  -4   5  -1   16.11    0.96
   4  -5   1   16.55    0.94
   4  -5   1   17.25    0.84
   4  -5   1   16.75    0.93
   4  -5   1   16.58    0.82
  -5   5  -1   -0.16    0.34
  -5   5  -1   -0.31    0.23
  -5   5  -1   -0.19    0.30
  -5   5  -1    0.10    0.27
   5  -5   1   -0.26    0.25
   5  -5   1    0.15    0.27
   5  -5   1    0.18    0.27
   5  -5   1   -0.24    0.23
  -6   5  -1    0.45    0.27
  -6   5  -1    0.41    0.31
  -6   5  -1    0.27    0.35
   6  -5   1    0.90    0.36
   6  -5   1    0.47    0.27
   6  -5   1    0.96    0.36
  -7   5  -1    0.70    0.38
  -7   5  -1    0.81    0.38
  -7   5  -1    0.17    0.36
   7  -5   1    0.27    0.41
  -8   5  -1    0.95    0.45
  -8   5  -1    0.30    0.51
  -8   5  -1   -0.24    0.46
   8  -5   1    0.59    0.37
  -9   5  -1   -0.28    0.65
  -9   5  -1    0.73    0.66
   9  -5   1    0.33    0.43
   9  -5   1   -0.80    0.52
   8   4  -1    2.94    0.61
   8   4  -1    2.87    0.69
  -8  -4   1    1.51    0.65
  -8  -4   1    1.72    0.76
   7   4  -1    0.87    0.45
  -7  -4   1    0.03    0.56
  -7  -4   1    0.23    0.51
   6   4  -1    0.04    0.26
   6   4  -1    0.84    0.38
  -6  -4   1   -0.31    0.47
  -6  -4   1    0.33    0.44
   5   4  -1   15.90    0.85
   5   4  -1   16.77    1.02
   5   4  -1   16.22    0.82
  -5  -4   1   16.35    0.96
  -5  -4   1   14.61    0.97
  -5  -4   1   16.10    1.05
   4   4  -1    0.30    0.31
   4   4  -1   -0.07    0.19
   4   4  -1    0.23    0.29
   4   4  -1    0.01    0.25
   4   4  -1   -0.05    0.23
  -4  -4   1    0.14    0.26
  -4  -4   1    0.04    0.23
  -4  -4   1   -0.06    0.18
   3   4  -1   32.65    1.38
   3   4  -1   33.42    1.53
   3   4  -1   34.15    1.51
   3   4  -1   34.40    1.50
   3   4  -1   33.07    1.31
   3   4  -1   31.26    1.45
  -3  -4   1   31.89    1.23
  -3  -4   1   32.08    1.47
  -3  -4   1   34.23    1.50
  -3  -4   1   34.57    1.51
  -3  -4   1   35.36    1.39
  -3  -4   1   30.84    1.45
   2   4  -1   -0.03    0.12
   2   4  -1   -0.27    0.19
   2   4  -1    0.10    0.18
   2   4  -1    0.15    0.17
   2   4  -1    0.24    0.18
   2   4  -1    0.03    0.16
  -2  -4   1   -0.08    0.18
  -2  -4   1   -0.03    0.16
  -2  -4   1    0.16    0.19
  -2  -4   1    0.35    0.19
  -2  -4   1    0.21    0.19
   1   4  -1   21.23    0.94
   1   4  -1   18.54    0.92
   1   4  -1   19.94    0.87
   1   4  -1   20.33    0.98
   1   4  -1   21.52    1.07
   1   4  -1   20.73    0.97
  -1  -4   1   19.98    0.93
  -1  -4   1   19.58    0.93
  -1  -4   1   20.32    0.90
  -1  -4   1   18.93    0.94
  -1  -4   1   20.96    0.96
  -1  -4   1   21.14    0.96
   0   4  -1    1.09    0.23
   0   4  -1    1.01    0.21
   0   4  -1    1.48    0.22
   0   4  -1    0.69    0.17
   0   4  -1    0.66    0.19
   0  -4   1    1.17    0.21
   0  -4   1    0.81    0.19
   0  -4   1    1.15    0.22
   0  -4   1    1.02    0.21
   0  -4   1    1.04    0.17
   0  -4   1    0.69    0.18
  -1   4  -1   18.01    0.78
  -1   4  -1   17.69    0.88
  -1   4  -1   17.67    0.83
  -1   4  -1   16.92    0.82
  -1   4  -1   17.06    0.79
  -1   4  -1   18.16    0.84
   1  -4   1   17.72    0.84
   1  -4   1   17.64    0.80
   1  -4   1   16.40    0.73
   1  -4   1   16.68    0.84
   1  -4   1   17.13    0.74
  -2   4  -1    1.78    0.20
  -2   4  -1    1.70    0.18
  -2   4  -1    1.69    0.26
  -2   4  -1    1.66    0.24
  -2   4  -1    1.96    0.30
  -2   4  -1    1.51    0.26
  -2   4  -1    1.90    0.20
   2  -4   1    1.74    0.27
   2  -4   1    1.83    0.29
   2  -4   1    1.25    0.24
  -3   4  -1   62.24    2.37
  -3   4  -1   61.08    2.13
  -3   4  -1   60.80    2.34
  -3   4  -1   58.23    2.34
  -3   4  -1   60.50    2.29
   3  -4   1   60.74    2.36
   3  -4   1   62.59    2.39
   3  -4   1   63.46    2.26
   3  -4   1   63.68    2.30
  -4   4  -1    2.24    0.38
  -4   4  -1    2.80    0.35
  -4   4  -1    2.80    0.32
  -4   4  -1    2.11    0.33
   4  -4   1    2.54    0.30
   4  -4   1    2.60    0.34
   4  -4   1    2.40    0.35
  -5   4  -1    1.05    0.45
  -5   4  -1    0.65    0.24
  -5   4  -1    0.20    0.25
  -5   4  -1    0.11    0.32
  -5   4  -1   -0.43    0.26
   5  -4   1    0.26    0.20
   5  -4   1    0.49    0.25
   5  -4   1    0.07    0.25
  -6   4  -1   -0.23    0.26
  -6   4  -1    0.10    0.27
  -6   4  -1    0.34    0.27
  -6   4  -1   -0.13    0.38
   6  -4   1   -0.08    0.29
   6  -4   1    0.41    0.27
   6  -4   1    0.12    0.24
  -7   4  -1   11.38    0.80
  -7   4  -1   10.79    0.82
  -7   4  -1   10.09    0.73
   7  -4   1   10.29    0.71
  -8   4  -1    0.67    0.43
  -8   4  -1    0.53    0.46
  -8   4  -1    0.47    0.35
   8  -4   1    0.99    0.35
  -9   4  -1    0.49    0.61
  -9   4  -1    0.08    0.76
   9  -4   1    0.01    0.44
   9  -4   1    0.50    0.54
 -10   4  -1   -1.06    0.80
 -10   4  -1    0.42    0.79
  10  -4   1    1.42    0.65
   9   3  -1    1.21    0.70
  -9  -3   1    1.63    0.68
  -9  -3   1    0.98    0.85
  -8  -3   1    2.43    0.64
  -8  -3   1    2.23    0.57
   7   3  -1    0.27    0.48
   7   3  -1    0.27    0.36
  -7  -3   1   -0.26    0.48
  -7  -3   1    0.12    0.44
   6   3  -1   12.98    0.84
   6   3  -1   12.36    0.63
   6   3  -1   11.25    0.81
  -6  -3   1   13.79    1.00
  -6  -3   1   12.44    0.88
   5   3  -1    0.83    0.24
   5   3  -1    1.04    0.31
   5   3  -1    1.30    0.28
   5   3  -1    1.00    0.24
  -5  -3   1    1.18    0.35
  -5  -3   1    0.76    0.33
   4   3  -1    6.40    0.55
   4   3  -1    6.32    0.45
   4   3  -1    6.60    0.59
   4   3  -1    6.56    0.45
   4   3  -1    7.03    0.53
   4   3  -1    6.26    0.51
  -4  -3   1    6.44    0.41
  -4  -3   1    6.32    0.55
  -4  -3   1    6.75    0.60
  -4  -3   1    6.06    0.51
  -4  -3   1    5.18    0.49
   3   3  -1    1.39    0.20
   3   3  -1    2.18    0.33
   3   3  -1    1.91    0.28
   3   3  -1    1.45    0.24
   3   3  -1    1.73    0.28
   3   3  -1    1.37    0.26
  -3  -3   1    1.57    0.26
  -3  -3   1    1.54    0.26
  -3  -3   1    1.66    0.31
  -3  -3   1    1.49    0.23
  -3  -3   1    1.22    0.22
   2   3  -1   63.93    2.39
   2   3  -1   67.99    2.48
   2   3  -1   64.20    2.28
   2   3  -1   68.06    2.31
   2   3  -1   68.91    2.51
   2   3  -1   58.86    2.43
   2   3  -1   67.73    2.46
  -2  -3   1   63.03    2.45
  -2  -3   1   66.63    2.48
  -2  -3   1   63.54    2.38
  -2  -3   1   66.39    2.28
  -2  -3   1   68.91    2.48
  -2  -3   1   62.55    2.46
   1   3  -1    5.26    0.41
   1   3  -1    5.48    0.42
   1   3  -1    5.38    0.36
   1   3  -1    4.97    0.36
   1   3  -1    5.15    0.30
   1   3  -1    5.05    0.39
  -1  -3   1    4.51    0.30
  -1  -3   1    5.11    0.38
  -1  -3   1    5.18    0.38
  -1  -3   1    5.21    0.37
  -1  -3   1    4.39    0.35
  -1  -3   1    5.23    0.34
   0   3  -1   31.54    1.25
   0   3  -1   32.31    1.21
   0   3  -1   33.70    1.27
   0   3  -1   28.88    1.22
   0   3  -1   27.52    1.26
   0   3  -1   31.48    1.21
   0  -3   1   30.07    1.29
   0  -3   1   30.81    1.23
   0  -3   1   30.90    1.22
  -1   3  -1    2.05    0.18
  -1   3  -1    2.13    0.27
  -1   3  -1    2.26    0.22
  -1   3  -1    2.11    0.20
  -1   3  -1    1.74    0.18
   1  -3   1    2.08    0.17
   1  -3   1    2.05    0.24
   1  -3   1    2.41    0.27
   1  -3   1    1.74    0.21
   1  -3   1    2.27    0.27
   1  -3   1    1.93    0.15
  -2   3  -1   50.93    1.92
  -2   3  -1   50.90    1.93
  -2   3  -1   50.80    1.78
  -2   3  -1   50.96    1.78
  -2   3  -1   51.09    1.94
   2  -3   1   50.23    1.94
   2  -3   1   51.04    1.93
   2  -3   1   52.38    1.83
   2  -3   1   49.37    1.84
   2  -3   1   52.20    1.92
  -3   3  -1    3.14    0.29
  -3   3  -1    3.06    0.29
  -3   3  -1    3.17    0.33
  -3   3  -1    3.41    0.32
   3  -3   1    3.02    0.33
   3  -3   1    2.70    0.33
   3  -3   1    2.72    0.27
  -4   3  -1    7.27    0.49
  -4   3  -1    6.75    0.46
  -4   3  -1    6.21    0.45
  -4   3  -1    7.29    0.47
  -4   3  -1    6.73    0.46
   4  -3   1    6.69    0.48
   4  -3   1    6.53    0.46
   4  -3   1    6.21    0.50
  -5   3  -1   -0.05    0.22
  -5   3  -1   -0.08    0.19
  -5   3  -1   -0.07    0.20
  -5   3  -1    0.03    0.24
  -5   3  -1   -0.01    0.17
   5  -3   1    0.58    0.23
   5  -3   1    0.33    0.22
  -6   3  -1   28.00    1.33
  -6   3  -1   26.97    1.33
  -6   3  -1   29.67    1.31
  -6   3  -1   28.99    1.31
  -6   3  -1   30.20    1.27
   6  -3   1   28.24    1.27
  -7   3  -1    8.95    0.74
  -7   3  -1    7.55    0.40
  -7   3  -1    8.02    0.69
  -7   3  -1    8.50    0.91
   7  -3   1    7.79    0.62
  -8   3  -1    3.29    0.40
  -8   3  -1    3.65    0.58
  -8   3  -1    2.32    0.37
  -8   3  -1    3.21    0.58
   8  -3   1    3.27    0.55
  -9   3  -1    0.05    0.67
  -9   3  -1    0.55    0.61
   9  -3   1    0.47    0.39
   9  -3   1   -0.25    0.42
 -10   3  -1    3.38    0.82
 -10   3  -1    4.88    0.89
  10  -3   1    4.03    0.78
   9   2  -1    0.33    0.61
   9   2  -1   -0.52    0.52
  -9  -2   1    0.62    0.65
  -8  -2   1    1.71    0.55
  -8  -2   1    0.69    0.57
   7   2  -1    0.97    0.30
  -7  -2   1    1.45    0.47
  -7  -2   1    0.10    0.39
   6   2  -1    0.55    0.28
   6   2  -1    0.09    0.25
  -6  -2   1   -0.19    0.32
  -6  -2   1   -0.24    0.26
   5   2  -1    1.01    0.27
   5   2  -1    1.20    0.33
   5   2  -1    1.79    0.27
   5   2  -1    1.35    0.23
   5   2  -1    1.00    0.25
  -5  -2   1    1.54    0.29
  -5  -2   1    1.44    0.35
  -5  -2   1    1.48    0.33
  -5  -2   1    1.28    0.26
  -5  -2   1    0.86    0.25
   4   2  -1    6.92    0.52
   4   2  -1    7.01    0.50
   4   2  -1    6.73    0.44
   4   2  -1    6.32    0.39
   4   2  -1    6.42    0.42
   4   2  -1    6.79    0.51
  -4  -2   1    6.25    0.37
  -4  -2   1    7.02    0.48
  -4  -2   1    6.13    0.46
  -4  -2   1    5.96    0.55
  -4  -2   1    5.75    0.49
   3   2  -1    3.70    0.34
   3   2  -1    3.26    0.34
   3   2  -1    3.63    0.29
   3   2  -1    3.74    0.34
   3   2  -1    3.62    0.35
   3   2  -1    3.81    0.29
  -3  -2   1    3.90    0.33
  -3  -2   1    3.35    0.26
  -3  -2   1    3.99    0.39
  -3  -2   1    3.24    0.31
  -3  -2   1    4.08    0.35
   2   2  -1   85.38    3.08
   2   2  -1   91.41    3.19
   2   2  -1   88.31    3.17
   2   2  -1   92.76    3.06
   2   2  -1   83.78    3.13
   2   2  -1   91.36    3.19
  -2  -2   1   83.78    2.96
  -2  -2   1   87.57    3.18
  -2  -2   1   89.85    3.18
  -2  -2   1   85.45    3.15
  -2  -2   1   93.53    3.09
  -2  -2   1   86.59    3.16
   1   2  -1    9.23    0.55
   1   2  -1   10.71    0.44
   1   2  -1    9.83    0.56
   1   2  -1   10.50    0.51
   1   2  -1   10.08    0.55
  -1  -2   1   10.95    0.44
  -1  -2   1   10.84    0.50
   0   2  -1   92.74    3.14
   0   2  -1   90.95    3.11
   0   2  -1   82.00    3.10
   0   2  -1   93.19    3.11
   0   2  -1   94.72    3.14
   0   2  -1   84.46    3.08
   0  -2   1   89.75    3.09
   0  -2   1   85.38    3.08
   0  -2   1   86.85    3.12
   0  -2   1   97.16    3.11
   0  -2   1   92.06    3.11
   0  -2   1   86.98    3.10
  -1   2  -1   14.59    0.65
  -1   2  -1   14.30    0.60
  -1   2  -1   14.57    0.64
  -1   2  -1   14.89    0.57
  -1   2  -1   13.63    0.57
  -1   2  -1   14.56    0.64
  -1   2  -1   14.15    0.59
   1  -2   1   14.45    0.55
   1  -2   1   14.30    0.64
   1  -2   1   14.12    0.63
   1  -2   1   14.04    0.64
   1  -2   1   14.41    0.55
   1  -2   1   14.56    0.60
  -2   2  -1    0.62    0.11
  -2   2  -1    0.71    0.14
  -2   2  -1    0.53    0.14
  -2   2  -1    0.57    0.12
   2  -2   1    0.46    0.09
   2  -2   1    0.60    0.11
   2  -2   1    0.70    0.19
  -3   2  -1    9.97    0.52
  -3   2  -1    9.62    0.48
  -3   2  -1   10.29    0.54
   3  -2   1    9.49    0.50
   3  -2   1    8.83    0.53
   3  -2   1    9.37    0.54
  -4   2  -1    5.59    0.43
  -4   2  -1    5.41    0.38
  -4   2  -1    5.38    0.41
  -4   2  -1    5.75    0.40
   4  -2   1    5.31    0.38
   4  -2   1    5.04    0.41
   4  -2   1    5.03    0.39
   4  -2   1    5.71    0.37
  -5   2  -1    8.79    0.58
  -5   2  -1    9.76    0.54
  -5   2  -1    9.41    0.60
  -5   2  -1    9.08    0.56
   5  -2   1    8.53    0.57
  -6   2  -1    0.71    0.20
  -6   2  -1    1.01    0.25
  -6   2  -1    0.81    0.33
  -6   2  -1    0.54    0.28
   6  -2   1    1.11    0.22
  -7   2  -1    0.26    0.31
  -7   2  -1   -0.05    0.19
  -7   2  -1    0.26    0.18
   7  -2   1   -0.05    0.27
  -8   2  -1    0.21    0.25
  -8   2  -1    0.29    0.42
   8  -2   1   -0.01    0.32
  -9   2  -1    1.24    0.59
  -9   2  -1    0.48    0.36
   9  -2   1    1.31    0.43
  10  -2   1    0.71    0.55
  10  -2   1   -0.61    0.48
   9   1  -1    0.91    0.50
  -9  -1   1    0.14    0.56
  -9  -1   1    0.23    0.68
  -8  -1   1    2.71    0.65
  -8  -1   1    3.64    0.69
  -7  -1   1    0.02    0.33
   6   1  -1    2.83    0.36
   6   1  -1    2.65    0.34
  -6  -1   1    2.69    0.41
  -6  -1   1    2.57    0.45
  -6  -1   1    2.99    0.47
   5   1  -1    4.56    0.43
   5   1  -1    5.13    0.50
   5   1  -1    3.83    0.36
   5   1  -1    4.68    0.40
  -5  -1   1    5.06    0.41
  -5  -1   1    4.73    0.50
  -5  -1   1    4.98    0.47
  -5  -1   1    4.31    0.39
   4   1  -1    2.47    0.29
   4   1  -1    1.89    0.25
   4   1  -1    2.45    0.32
   4   1  -1    1.85    0.35
   4   1  -1    2.11    0.20
   4   1  -1    2.16    0.29
  -4  -1   1    2.51    0.33
  -4  -1   1    2.28    0.31
  -4  -1   1    2.34    0.28
  -4  -1   1    2.10    0.34
  -4  -1   1    2.43    0.21
   3   1  -1   36.43    1.47
   3   1  -1   38.93    1.51
   3   1  -1   33.88    1.32
   3   1  -1   36.79    1.42
   3   1  -1   37.56    1.39
   3   1  -1   36.37    1.40
  -3  -1   1   34.01    1.46
  -3  -1   1   34.36    1.45
  -3  -1   1   33.14    1.40
  -3  -1   1   34.72    1.41
  -3  -1   1   37.91    1.36
   2   1  -1    0.06    0.07
   2   1  -1    0.32    0.11
   2   1  -1    0.12    0.09
   2   1  -1    0.26    0.12
   2   1  -1    0.12    0.08
  -2  -1   1    0.26    0.07
  -2  -1   1   -0.10    0.11
  -2  -1   1    0.10    0.10
  -2  -1   1    0.26    0.10
   1   1  -1   95.77    3.48
   1   1  -1  109.85    3.48
   1   1  -1   95.83    3.45
   1   1  -1   99.19    3.48
   1   1  -1  103.40    3.49
   1   1  -1  100.32    3.37
  -1  -1   1  103.73    3.49
  -1  -1   1  100.77    3.49
  -1  -1   1  103.83    3.49
  -1  -1   1   98.98    3.47
  -1  -1   1   99.20    3.45
   0   1  -1   18.86    0.72
   0   1  -1   20.12    0.76
   0   1  -1   20.18    0.76
   0   1  -1   18.34    0.73
   0   1  -1   19.35    0.75
   0   1  -1   20.11    0.74
   0  -1   1   19.74    0.73
   0  -1   1   18.92    0.74
   0  -1   1   18.98    0.74
   0  -1   1   20.07    0.76
  -1   1  -1  214.86    7.02
  -1   1  -1  213.67    7.05
  -1   1  -1  214.79    7.03
  -1   1  -1  212.27    6.99
  -1   1  -1  209.95    7.03
  -1   1  -1  203.32    6.96
   1  -1   1  212.62    7.03
   1  -1   1  206.19    6.96
   1  -1   1  210.53    7.02
   1  -1   1  200.68    7.02
   1  -1   1  211.74    7.00
  -2   1  -1   86.54    3.00
  -2   1  -1   84.32    2.97
  -2   1  -1   88.97    3.05
  -2   1  -1   90.62    3.04
   2  -1   1   86.69    3.03
   2  -1   1   88.79    3.02
   2  -1   1   87.33    3.05
   2  -1   1   87.58    3.00
  -3   1  -1  166.95    5.96
  -3   1  -1  179.68    6.04
  -3   1  -1  179.37    6.07
  -3   1  -1  176.94    6.07
   3  -1   1  178.85    6.08
   3  -1   1  183.97    6.05
  -4   1  -1    4.12    0.26
  -4   1  -1    5.01    0.39
  -4   1  -1    4.42    0.32
  -4   1  -1    4.15    0.36
   4  -1   1    4.28    0.33
   4  -1   1    4.24    0.32
  -5   1  -1   10.45    0.46
  -5   1  -1    9.42    0.63
  -5   1  -1   10.60    0.48
  -5   1  -1   10.90    0.58
  -5   1  -1    9.42    0.62
   5  -1   1    9.91    0.64
  -6   1  -1    2.71    0.31
  -6   1  -1    3.35    0.46
  -6   1  -1    2.73    0.34
  -6   1  -1    3.68    0.51
   6  -1   1    2.95    0.37
  -7   1  -1    5.77    0.68
  -7   1  -1    5.91    0.44
  -7   1  -1    5.45    0.46
   7  -1   1    5.69    0.52
  -8   1  -1    0.00    0.27
   8  -1   1    0.27    0.33
  -9   1  -1    1.69    0.44
  -9   1  -1    0.60    0.61
   9  -1   1    1.12    0.45
   9  -1   1    0.81    0.41
 -10   1  -1    1.37    0.82
  10  -1   1    0.90    0.62
   9   0  -1    2.42    0.52
  -9   0   1    1.95    0.71
  -9   0   1    2.37    0.59
  -8   0   1    1.31    0.54
  -8   0   1    0.65    0.42
  -7   0   1    0.65    0.39
  -7   0   1    0.38    0.29
  -7   0   1    0.25    0.39
  -6   0   1    2.24    0.37
  -6   0   1    1.93    0.39
   5   0  -1   20.04    0.79
   5   0  -1   19.30    1.01
   5   0  -1   20.03    0.80
   5   0  -1   19.17    1.02
  -5   0   1   19.65    0.81
  -5   0   1   19.85    1.01
  -5   0   1   20.08    0.99
  -5   0   1   20.78    0.95
  -5   0   1   20.98    1.07
   4   0  -1   14.10    0.75
   4   0  -1   14.39    0.62
   4   0  -1   14.87    0.75
   4   0  -1   15.10    0.76
   4   0  -1   14.13    0.61
  -4   0   1   14.72    0.61
  -4   0   1   14.10    0.69
  -4   0   1   12.58    0.74
  -4   0   1   14.39    0.55
  -4   0   1   13.49    0.74
  -4   0   1   14.00    0.69
   3   0  -1    9.16    0.53
   3   0  -1    8.66    0.43
   3   0  -1    8.55    0.47
   3   0  -1    9.30    0.51
   3   0  -1    9.31    0.42
  -3   0   1    8.46    0.41
  -3   0   1    9.09    0.47
  -3   0   1    8.91    0.38
  -3   0   1    9.39    0.54
   2   0  -1   59.71    2.15
   2   0  -1   58.22    2.09
   2   0  -1   59.91    2.08
   2   0  -1   57.31    2.25
   2   0  -1   56.77    2.08
   2   0  -1   62.92    2.13
  -2   0   1   59.10    2.08
  -2   0   1   61.84    2.12
  -2   0   1   59.80    2.15
  -2   0   1   61.16    2.11
   1   0  -1   28.24    1.03
   1   0  -1   29.09    1.05
   1   0  -1   28.49    1.02
   1   0  -1   27.89    1.02
  -1   0   1   27.11    1.02
  -1   0   1   27.43    1.03
  -1   0   1   28.44    1.02
  -1   0   1   28.30    1.04
  -1   0  -1    1.07    0.19
  -1   0  -1    1.24    0.13
  -2   0  -1  897.24   30.14
  -2   0  -1  905.31   30.05
  -2   0  -1  897.28   30.19
  -2   0  -1  875.74   30.17
  -2   0  -1  924.96   30.23
   2   0   1  902.73   30.13
   2   0   1  975.82   30.20
   2   0   1  891.32   29.97
  -3   0  -1   55.75    1.99
  -3   0  -1   56.78    1.94
  -3   0  -1   56.12    1.90
  -3   0  -1   54.90    1.94
  -3   0  -1   56.76    2.08
  -3   0  -1   54.56    2.12
   3   0   1   54.40    2.06
   3   0   1   58.08    2.05
  -4   0  -1    5.40    0.44
  -4   0  -1    6.71    0.37
  -4   0  -1    5.90    0.34
  -4   0  -1    6.64    0.44
  -4   0  -1    6.20    0.39
  -4   0  -1    6.31    0.34
   4   0   1    6.57    0.45
   4   0   1    6.63    0.41
   4   0   1    6.90    0.44
  -5   0  -1    2.14    0.25
  -5   0  -1    1.75    0.30
  -5   0  -1    2.33    0.32
  -5   0  -1    1.56    0.26
  -5   0  -1    1.69    0.26
  -5   0  -1    1.72    0.30
   5   0   1    1.60    0.26
   5   0   1    1.51    0.22
   5   0   1    1.37    0.29
  -6   0  -1    1.83    0.29
  -6   0  -1    1.64    0.27
  -6   0  -1    2.06    0.36
  -6   0  -1    1.33    0.36
  -6   0  -1    1.71    0.27
   6   0   1    1.72    0.28
   6   0   1    0.88    0.31
  -7   0  -1   -0.17    0.38
  -7   0  -1    0.14    0.23
   7   0   1   -0.22    0.28
  -8   0  -1    1.29    0.41
  -8   0  -1    1.27    0.36
  -8   0  -1    1.93    0.57
  -9   0  -1    0.54    0.44
  -9   0  -1    0.08    0.62
   9   0   1   -0.01    0.39
 -10   0  -1   -0.02    0.64
 -10   0  -1    1.04    0.82
  10   0   1    0.19    0.56
   9  -1  -1    5.14    0.67
  -9   1   1    4.85    0.87
  -9   1   1    7.21    1.16
  -8   1   1    0.86    0.37
  -8   1   1    0.79    0.53
   7  -1  -1    0.49    0.31
  -7   1   1    0.02    0.25
  -7   1   1    0.86    0.38
   6  -1  -1    1.19    0.37
   6  -1  -1    1.16    0.29
  -6   1   1    1.12    0.32
  -6   1   1    0.82    0.36
  -6   1   1    0.75    0.24
   5  -1  -1   48.05    1.94
   5  -1  -1   45.36    1.89
   5  -1  -1   44.46    1.90
  -5   1   1   46.89    1.86
  -5   1   1   44.22    1.75
  -5   1   1   48.49    1.91
  -5   1   1   42.86    1.69
  -5   1   1   47.57    1.69
  -5   1   1   45.50    1.76
   4  -1  -1   15.63    0.68
   4  -1  -1   16.16    0.80
   4  -1  -1   16.44    0.80
  -4   1   1   16.92    0.68
  -4   1   1   16.43    0.81
  -4   1   1   16.55    0.71
  -4   1   1   16.16    0.72
   3  -1  -1   18.59    0.81
   3  -1  -1   17.04    0.81
   3  -1  -1   18.44    0.72
   3  -1  -1   18.55    0.81
  -3   1   1   17.76    0.74
  -3   1   1   18.36    0.72
  -3   1   1   17.17    0.72
  -3   1   1   17.88    0.73
  -3   1   1   18.61    0.82
   2  -1  -1   32.56    1.23
   2  -1  -1   31.66    1.20
   2  -1  -1   31.72    1.14
   2  -1  -1   31.40    1.18
  -2   1   1   31.70    1.18
  -2   1   1   31.71    1.17
  -2   1   1   31.85    1.13
  -2   1   1   30.99    1.14
  -2   1   1   30.46    1.13
   1  -1  -1   35.85    1.27
   1  -1  -1   35.84    1.25
   1  -1  -1   36.43    1.24
   1  -1  -1   36.73    1.26
  -1   1   1   36.12    1.25
  -1   1   1   35.54    1.26
  -1   1   1   35.03    1.25
  -1   1   1   35.68    1.24
  -1  -1  -1  262.59    8.33
  -1  -1  -1  252.29    8.35
   1   1   1  252.26    8.34
   1   1   1  238.76    8.35
  -2  -1  -1    9.16    0.42
  -2  -1  -1    9.00    0.42
  -2  -1  -1    9.23    0.42
  -2  -1  -1    8.95    0.46
   2   1   1    9.64    0.46
   2   1   1    9.33    0.41
   2   1   1    8.88    0.42
   2   1   1    8.53    0.41
   2   1   1    8.89    0.43
  -3  -1  -1  169.00    5.86
  -3  -1  -1  166.26    5.77
  -3  -1  -1  172.06    5.78
  -3  -1  -1  169.82    5.80
   3   1   1  171.17    5.75
   3   1   1  171.30    5.86
   3   1   1  168.72    5.74
   3   1   1  164.03    5.81
   3   1   1  183.27    5.82
  -4  -1  -1    8.39    0.51
  -4  -1  -1    8.94    0.49
  -4  -1  -1    8.81    0.58
  -4  -1  -1    8.69    0.48
   4   1   1    8.65    0.43
   4   1   1    8.41    0.54
   4   1   1    9.04    0.52
   4   1   1    8.89    0.42
  -5  -1  -1   28.12    1.31
  -5  -1  -1   29.28    1.20
  -5  -1  -1   27.44    1.09
  -5  -1  -1   27.91    1.24
  -5  -1  -1   28.42    1.19
   5   1   1   26.75    1.06
   5   1   1   29.32    1.32
   5   1   1   29.12    1.08
   5   1   1   26.37    1.25
   5   1   1   29.06    1.27
  -6  -1  -1    0.59    0.29
  -6  -1  -1    1.16    0.26
  -6  -1  -1    0.90    0.30
  -6  -1  -1    0.92    0.26
   6   1   1    0.87    0.25
   6   1   1    1.36    0.23
  -7  -1  -1    0.49    0.26
  -7  -1  -1    0.00    0.37
   7   1   1   -0.27    0.25
  -8  -1  -1    0.02    0.35
  -8  -1  -1   -0.10    0.49
  -9  -1  -1    0.78    0.63
  -9  -1  -1   -0.16    0.46
   9   1   1    0.00    0.40
 -10  -1  -1    0.88    0.79
 -10  -1  -1    0.32    0.68
  10   1   1   -0.19    0.58
   9  -2  -1    0.14    0.47
  -9   2   1    0.56    0.63
  -9   2   1    1.59    0.49
  -8   2   1    0.53    0.34
  -8   2   1    0.22    0.28
  -7   2   1    1.20    0.37
  -7   2   1    1.02    0.41
   6  -2  -1    1.00    0.30
   6  -2  -1    0.96    0.29
  -6   2   1    1.25    0.33
  -6   2   1    1.70    0.28
  -6   2   1    1.27    0.25
  -6   2   1    1.49    0.34
  -6   2   1    1.08    0.29
   5  -2  -1    6.35    0.48
   5  -2  -1    6.07    0.49
   5  -2  -1    5.92    0.43
  -5   2   1    6.43    0.42
  -5   2   1    5.57    0.47
  -5   2   1    5.96    0.42
  -5   2   1    5.64    0.41
  -5   2   1    5.83    0.48
  -5   2   1    6.47    0.38
   4  -2  -1    2.08    0.27
   4  -2  -1    1.94    0.26
   4  -2  -1    2.13    0.28
  -4   2   1    1.89    0.18
  -4   2   1    2.94    0.31
  -4   2   1    2.02    0.24
  -4   2   1    2.21    0.26
  -4   2   1    2.08    0.20
   3  -2  -1    0.68    0.15
   3  -2  -1    0.61    0.17
   3  -2  -1    0.54    0.13
  -3   2   1    0.61    0.15
  -3   2   1    0.51    0.08
  -3   2   1    0.88    0.16
  -3   2   1    0.59    0.14
   2  -2  -1    5.74    0.35
   2  -2  -1    5.75    0.33
   2  -2  -1    5.85    0.30
   2  -2  -1    5.62    0.29
   2  -2  -1    5.91    0.33
  -2   2   1    6.05    0.30
  -2   2   1    5.50    0.32
  -2   2   1    5.74    0.25
  -2   2   1    5.67    0.29
  -2   2   1    5.23    0.25
   1  -2  -1    5.14    0.29
   1  -2  -1    4.47    0.29
   1  -2  -1    5.04    0.24
   1  -2  -1    5.29    0.22
   1  -2  -1    5.36    0.21
  -1   2   1    5.38    0.30
  -1   2   1    5.18    0.30
  -1   2   1    5.03    0.24
  -1   2   1    5.23    0.25
  -1   2   1    4.79    0.24
  -1   2   1    5.09    0.20
   0  -2  -1    3.68    0.22
   0  -2  -1    4.11    0.24
   0  -2  -1    4.18    0.25
   0  -2  -1    4.02    0.25
   0   2   1    3.69    0.17
   0   2   1    3.93    0.23
   0   2   1    4.03    0.24
   0   2   1    3.86    0.25
  -1  -2  -1   81.79    2.83
  -1  -2  -1   81.21    2.82
  -1  -2  -1   86.71    2.81
  -1  -2  -1   75.39    2.82
   1   2   1   76.31    2.82
   1   2   1   80.98    2.82
   1   2   1   85.07    2.81
   1   2   1   84.54    2.83
  -2  -2  -1    2.53    0.22
  -2  -2  -1    2.40    0.26
  -2  -2  -1    3.09    0.24
   2   2   1    2.70    0.17
   2   2   1    2.81    0.22
   2   2   1    3.06    0.24
   2   2   1    3.08    0.23
   2   2   1    2.74    0.25
  -3  -2  -1   -0.21    0.12
  -3  -2  -1   -0.03    0.13
  -3  -2  -1   -0.07    0.12
  -3  -2  -1   -0.05    0.12
   3   2   1    0.06    0.13
   3   2   1    0.07    0.13
   3   2   1    0.14    0.13
   3   2   1   -0.04    0.09
   3   2   1   -0.25    0.13
  -4  -2  -1   14.57    0.72
  -4  -2  -1   14.51    0.78
  -4  -2  -1   13.44    0.71
  -4  -2  -1   14.04    0.73
   4   2   1   14.12    0.70
   4   2   1   14.77    0.72
   4   2   1   14.34    0.67
   4   2   1   13.24    0.76
  -5  -2  -1    3.99    0.49
  -5  -2  -1    4.35    0.40
  -5  -2  -1    3.58    0.40
  -5  -2  -1    3.63    0.42
   5   2   1    3.65    0.36
   5   2   1    3.51    0.43
   5   2   1    3.89    0.36
   5   2   1    3.49    0.43
   5   2   1    3.26    0.33
  -6  -2  -1   15.57    0.96
  -6  -2  -1   14.21    0.81
  -6  -2  -1   12.71    0.86
  -6  -2  -1   14.98    0.83
  -6  -2  -1   13.45    0.60
   6   2   1   14.05    0.69
   6   2   1   13.84    0.73
   6   2   1   12.76    0.86
  -7  -2  -1    8.46    0.84
  -7  -2  -1    8.81    0.67
   7   2   1    8.87    0.77
   7   2   1    7.81    0.50
  -8  -2  -1   -0.02    0.39
  -8  -2  -1    0.03    0.47
  -9  -2  -1    0.67    0.51
  -9  -2  -1    0.83    0.61
   9   2   1    0.89    0.44
 -10  -2  -1    0.90    1.34
 -10  -2  -1   -0.68    0.92
  10   2   1    0.38    0.57
   9  -3  -1    1.28    0.67
  -9   3   1    1.05    0.65
   8  -3  -1    0.49    0.48
  -8   3   1   -0.17    0.45
  -8   3   1    0.29    0.32
  -8   3   1   -0.16    0.31
  -7   3   1    2.06    0.45
  -7   3   1    1.96    0.30
   6  -3  -1   42.63    1.85
   6  -3  -1   43.27    1.74
  -6   3   1   40.28    1.80
  -6   3   1   41.71    1.60
  -6   3   1   44.67    1.82
   5  -3  -1    9.88    0.61
   5  -3  -1    9.73    0.60
   5  -3  -1    9.05    0.60
  -5   3   1   10.46    0.58
  -5   3   1    9.28    0.60
  -5   3   1    9.24    0.44
  -5   3   1    9.21    0.59
   4  -3  -1    7.60    0.52
   4  -3  -1    8.45    0.54
   4  -3  -1    7.84    0.52
  -4   3   1    7.62    0.48
  -4   3   1    7.38    0.47
  -4   3   1    8.21    0.50
   3  -3  -1    5.04    0.39
   3  -3  -1    4.67    0.42
   3  -3  -1    4.24    0.36
  -3   3   1    4.75    0.34
  -3   3   1    5.05    0.40
  -3   3   1    4.89    0.30
   2  -3  -1    9.46    0.52
   2  -3  -1    9.45    0.50
   2  -3  -1    8.21    0.44
  -2   3   1    9.70    0.45
  -2   3   1    9.77    0.39
  -2   3   1    8.82    0.38
  -2   3   1    9.06    0.48
  -2   3   1    9.16    0.40
  -2   3   1    9.65    0.53
   1  -3  -1   25.03    1.05
   1  -3  -1   26.40    0.96
   1  -3  -1   26.94    1.01
  -1   3   1   26.51    0.99
  -1   3   1   27.24    0.99
   0  -3  -1  111.20    3.90
   0  -3  -1  115.43    3.94
   0  -3  -1  124.74    3.99
   0  -3  -1  121.52    3.96
   0  -3  -1  111.12    3.82
   0   3   1  117.47    3.91
   0   3   1  102.66    3.90
   0   3   1  109.11    3.82
   0   3   1  114.22    3.94
  -1  -3  -1    0.31    0.09
  -1  -3  -1    0.43    0.09
   1   3   1    0.24    0.08
   1   3   1    0.37    0.16
  -2  -3  -1    1.78    0.22
  -2  -3  -1    1.83    0.26
  -2  -3  -1    1.55    0.23
  -2  -3  -1    1.84    0.23
   2   3   1    1.99    0.25
   2   3   1    2.05    0.24
   2   3   1    2.15    0.19
   2   3   1    1.83    0.25
   2   3   1    1.46    0.20
  -3  -3  -1    2.71    0.31
  -3  -3  -1    2.57    0.32
  -3  -3  -1    2.85    0.29
  -3  -3  -1    2.99    0.30
   3   3   1    2.67    0.26
   3   3   1    2.44    0.31
   3   3   1    2.71    0.20
   3   3   1    2.50    0.25
   3   3   1    2.69    0.33
   3   3   1    2.31    0.28
  -4  -3  -1   17.36    0.87
  -4  -3  -1   15.78    0.85
  -4  -3  -1   16.67    0.85
  -4  -3  -1   17.92    0.91
   4   3   1   18.02    0.84
   4   3   1   17.30    0.86
   4   3   1   18.04    0.91
   4   3   1   17.64    0.82
  -5  -3  -1    1.91    0.29
  -5  -3  -1    3.10    0.47
  -5  -3  -1    2.05    0.33
  -5  -3  -1    1.84    0.32
   5   3   1    1.77    0.31
   5   3   1    2.16    0.32
   5   3   1    2.25    0.38
   5   3   1    1.78    0.32
   5   3   1    2.43    0.35
  -6  -3  -1   18.40    1.00
  -6  -3  -1   18.51    1.13
  -6  -3  -1   15.80    1.01
   6   3   1   18.24    0.91
   6   3   1   14.86    1.23
  -7  -3  -1   -0.37    0.42
  -7  -3  -1    0.24    0.36
   7   3   1    0.03    0.28
  -8  -3  -1    0.58    0.44
  -8  -3  -1    0.38    0.51
   8   3   1    0.81    0.32
  -9  -3  -1    1.61    0.68
  -9  -3  -1    0.75    0.56
   9   3   1    0.24    0.46
  -9   4   1   -0.20    0.64
  -9   4   1   -1.23    1.09
   8  -4  -1   -0.88    0.46
  -8   4   1    0.51    0.48
  -8   4   1   -0.05    0.56
  -8   4   1    0.04    0.38
   7  -4  -1    1.23    0.36
  -7   4   1    1.26    0.37
  -7   4   1    1.21    0.42
  -7   4   1    1.27    0.25
  -7   4   1    0.83    0.44
  -7   4   1    2.02    0.37
   6  -4  -1    0.57    0.28
   6  -4  -1    0.56    0.31
  -6   4   1    0.34    0.17
  -6   4   1    0.41    0.32
  -6   4   1    0.46    0.28
   5  -4  -1   -0.12    0.23
   5  -4  -1    0.37    0.23
   5  -4  -1    0.57    0.24
  -5   4   1    0.46    0.25
  -5   4   1   -0.01    0.25
  -5   4   1    0.05    0.19
  -5   4   1   -0.25    0.25
   4  -4  -1    3.07    0.32
   4  -4  -1    2.92    0.34
   4  -4  -1    3.96    0.39
  -4   4   1    2.86    0.32
  -4   4   1    2.82    0.39
  -4   4   1    3.09    0.33
  -4   4   1    3.69    0.38
   3  -4  -1   14.27    0.69
   3  -4  -1   13.61    0.74
  -3   4   1   14.68    0.57
  -3   4   1   13.92    0.75
  -3   4   1   13.56    0.58
  -3   4   1   13.22    0.70
  -3   4   1   13.36    0.66
   2  -4  -1    6.03    0.41
   2  -4  -1    6.18    0.45
   2  -4  -1    6.31    0.41
  -2   4   1    6.68    0.33
  -2   4   1    6.50    0.44
  -2   4   1    6.77    0.34
  -2   4   1    6.26    0.43
   1  -4  -1   52.98    1.97
   1  -4  -1   47.06    1.95
   1  -4  -1   51.54    1.94
   1  -4  -1   50.97    1.82
   1  -4  -1   51.37    1.81
  -1   4   1   51.87    1.75
  -1   4   1   54.02    1.97
  -1   4   1   53.34    1.97
  -1   4   1   51.11    1.85
  -1   4   1   48.87    1.87
   0  -4  -1  171.95    5.84
   0  -4  -1  176.31    5.85
   0  -4  -1  166.73    5.69
   0   4   1  165.36    5.81
   0   4   1  168.31    5.69
   0   4   1  166.92    5.79
   0   4   1  173.61    5.84
   0   4   1  169.29    5.85
  -1  -4  -1    5.45    0.36
  -1  -4  -1    5.36    0.38
  -1  -4  -1    5.31    0.40
  -1  -4  -1    5.93    0.40
  -1  -4  -1    5.89    0.39
   1   4   1    6.09    0.41
   1   4   1    6.46    0.43
   1   4   1    5.47    0.34
   1   4   1    5.57    0.42
   1   4   1    5.48    0.39
  -2  -4  -1    0.11    0.16
  -2  -4  -1   -0.20    0.15
  -2  -4  -1   -0.14    0.14
  -2  -4  -1   -0.06    0.13
  -2  -4  -1    0.16    0.14
   2   4   1    0.05    0.16
   2   4   1    0.21    0.14
   2   4   1   -0.06    0.14
   2   4   1    0.14    0.16
   2   4   1    0.02    0.15
  -3  -4  -1   32.41    1.38
  -3  -4  -1   32.59    1.38
  -3  -4  -1   34.21    1.40
  -3  -4  -1   30.39    1.35
   3   4   1   32.97    1.39
   3   4   1   31.49    1.28
   3   4   1   29.58    1.33
   3   4   1   29.67    1.35
   3   4   1   32.08    1.40
  -4  -4  -1    8.49    0.60
  -4  -4  -1    8.89    0.65
  -4  -4  -1   10.51    0.64
  -4  -4  -1    8.58    0.65
   4   4   1   10.44    0.69
   4   4   1    9.84    0.63
   4   4   1    8.84    0.54
   4   4   1    9.41    0.63
   4   4   1    9.62    0.59
   4   4   1    9.56    0.49
  -5  -4  -1    7.53    0.60
  -5  -4  -1    6.92    0.64
  -5  -4  -1    6.65    0.40
  -5  -4  -1    5.53    0.58
  -5  -4  -1    6.04    0.59
   5   4   1    5.48    0.60
   5   4   1    6.47    0.53
   5   4   1    6.19    0.35
   5   4   1    6.85    0.59
   5   4   1    7.10    0.51
  -6  -4  -1    5.38    0.70
  -6  -4  -1    6.77    0.64
   6   4   1    6.02    0.58
   6   4   1    5.55    0.58
  -7  -4  -1    4.44    0.67
   7   4   1    3.87    0.56
   7   4   1    3.40    0.50
  -8  -4  -1    0.85    0.45
  -8  -4  -1   -0.21    0.60
   8   4   1    0.07    0.42
  -9  -4  -1    0.28    0.67
  -9  -4  -1    0.74    0.77
   9   4   1    1.72    0.60
   9   4   1    0.65    0.52
   9  -5  -1    0.31    0.60
  -9   5   1    1.22    0.69
  -9   5   1   -0.05    0.72
   8  -5  -1    0.02    0.43
  -8   5   1   -0.16    0.49
  -8   5   1   -0.43    0.46
  -8   5   1    0.16    0.56
   7  -5  -1    3.92    0.61
  -7   5   1    2.71    0.39
  -7   5   1    3.04    0.61
  -7   5   1    2.89    0.46
  -7   5   1    2.73    0.50
   6  -5  -1   17.81    1.03
   6  -5  -1   16.06    0.96
  -6   5   1   16.57    0.90
  -6   5   1   16.40    0.87
  -6   5   1   17.24    1.03
   5  -5  -1    0.59    0.27
   5  -5  -1    0.61    0.26
   5  -5  -1    0.68    0.30
  -5   5   1    0.93    0.32
  -5   5   1    1.13    0.35
  -5   5   1    0.81    0.23
   4  -5  -1    0.45    0.27
   4  -5  -1    0.51    0.20
  -4   5   1    0.58    0.20
  -4   5   1    0.36    0.12
  -4   5   1    0.36    0.24
  -4   5   1    0.37    0.24
  -4   5   1    0.41    0.15
   3  -5  -1    3.36    0.34
   3  -5  -1    3.63    0.41
  -3   5   1    4.06    0.39
  -3   5   1    2.79    0.41
  -3   5   1    3.29    0.34
  -3   5   1    3.41    0.26
   2  -5  -1   -0.13    0.17
   2  -5  -1    0.44    0.18
   2  -5  -1    0.04    0.15
  -2   5   1   -0.12    0.18
  -2   5   1   -0.22    0.15
  -2   5   1    0.08    0.12
  -2   5   1    0.35    0.19
   1  -5  -1  111.84    3.98
   1  -5  -1  112.24    3.94
   1  -5  -1  111.71    3.84
   1  -5  -1  112.32    4.01
   1  -5  -1  110.52    3.99
   1  -5  -1  111.13    3.84
  -1   5   1  110.28    3.75
  -1   5   1  108.71    3.89
  -1   5   1  116.16    3.93
  -1   5   1  110.82    4.09
  -1   5   1  110.39    3.99
   0  -5  -1   22.57    0.99
   0  -5  -1   24.52    1.21
   0  -5  -1   22.54    0.90
   0  -5  -1   22.40    1.04
   0  -5  -1   21.59    1.02
   0   5   1   23.04    1.03
   0   5   1   22.21    1.02
   0   5   1   22.08    1.05
   0   5   1   22.96    1.00
   0   5   1   22.88    0.90
   0   5   1   24.17    1.08
  -1  -5  -1   47.24    1.82
  -1  -5  -1   48.60    1.89
  -1  -5  -1   46.97    1.86
  -1  -5  -1   48.88    1.91
  -1  -5  -1   50.35    1.89
   1   5   1   46.19    1.92
   1   5   1   45.12    1.90
   1   5   1   50.90    1.91
   1   5   1   47.35    1.80
   1   5   1   49.62    1.98
  -2  -5  -1    0.39    0.19
  -2  -5  -1    0.23    0.19
  -2  -5  -1    0.38    0.17
  -2  -5  -1    0.49    0.16
  -2  -5  -1    0.15    0.19
   2   5   1    0.11    0.17
   2   5   1    0.33    0.19
   2   5   1    0.46    0.20
   2   5   1    0.13    0.21
   2   5   1    0.44    0.17
  -3  -5  -1    1.29    0.22
  -3  -5  -1    1.29    0.28
  -3  -5  -1    1.33    0.28
  -3  -5  -1    0.96    0.25
  -3  -5  -1    1.42    0.30
   3   5   1    1.04    0.22
   3   5   1    1.02    0.28
   3   5   1    0.81    0.23
   3   5   1    1.36    0.27
   3   5   1    1.11    0.25
   3   5   1    1.37    0.25
  -4  -5  -1    0.93    0.27
  -4  -5  -1    0.60    0.20
  -4  -5  -1    0.27    0.26
  -4  -5  -1    0.54    0.32
  -4  -5  -1    1.04    0.32
   4   5   1    0.56    0.28
   4   5   1    0.77    0.24
   4   5   1    1.30    0.34
   4   5   1    0.79    0.20
   4   5   1    0.40    0.28
   4   5   1    0.67    0.30
  -5  -5  -1    3.37    0.55
  -5  -5  -1    2.85    0.51
  -5  -5  -1    3.75    0.39
   5   5   1    4.05    0.51
   5   5   1    3.71    0.55
   5   5   1    3.52    0.39
   5   5   1    3.84    0.36
  -6  -5  -1    3.04    0.38
  -6  -5  -1    2.81    0.57
   6   5   1    2.69    0.29
   6   5   1    3.53    0.63
   6   5   1    2.54    0.48
  -7  -5  -1    0.91    0.44
  -7  -5  -1    0.47    0.51
   7   5   1    0.46    0.45
  -8  -5  -1    0.67    0.60
  -8  -5  -1    1.24    0.65
   8   5   1    0.86    0.53
  -9  -5  -1    3.13    0.84
  -9  -5  -1    1.83    0.93
   9   5   1    2.10    0.73
  -9   6   1    1.67    0.84
   8  -6  -1   -0.39    0.53
  -8   6   1    0.36    0.61
  -8   6   1    0.64    0.56
  -8   6   1    0.55    0.52
   7  -6  -1    6.16    0.79
  -7   6   1    5.53    0.66
  -7   6   1    6.05    0.86
  -7   6   1    5.68    0.52
   6  -6  -1    0.01    0.30
   6  -6  -1   -0.04    0.38
  -6   6   1    0.49    0.40
  -6   6   1   -0.57    0.40
  -6   6   1    0.16    0.25
  -6   6   1   -0.69    0.35
   5  -6  -1   -0.33    0.24
   5  -6  -1    0.22    0.26
   5  -6  -1    0.07    0.32
  -5   6   1    0.07    0.34
  -5   6   1    0.13    0.20
  -5   6   1    0.08    0.15
  -5   6   1    0.29    0.31
   4  -6  -1    5.59    0.48
   4  -6  -1    5.31    0.47
   4  -6  -1    5.83    0.60
  -4   6   1    5.20    0.42
  -4   6   1    4.68    0.36
  -4   6   1    5.86    0.63
   3  -6  -1   24.35    1.18
   3  -6  -1   23.59    1.10
   3  -6  -1   23.51    1.15
   3  -6  -1   24.19    1.22
  -3   6   1   24.13    1.17
  -3   6   1   23.67    1.17
  -3   6   1   23.50    0.99
  -3   6   1   24.10    1.02
   2  -6  -1    6.31    0.45
   2  -6  -1    5.30    0.46
   2  -6  -1    4.99    0.46
  -2   6   1    5.68    0.42
  -2   6   1    5.19    0.48
  -2   6   1    5.60    0.45
  -2   6   1    4.69    0.40
   1  -6  -1    5.95    0.39
   1  -6  -1    6.17    0.42
   1  -6  -1    5.99    0.49
   1  -6  -1    6.60    0.51
   1  -6  -1    6.36    0.50
  -1   6   1    6.86    0.44
  -1   6   1    6.16    0.46
  -1   6   1    6.40    0.52
  -1   6   1    5.86    0.46
  -1   6   1    7.03    0.52
   0  -6  -1   11.65    0.64
   0  -6  -1   10.86    0.62
   0  -6  -1   11.65    0.69
   0  -6  -1   10.23    0.66
   0   6   1   10.95    0.61
   0   6   1   10.62    0.67
   0   6   1   11.98    0.55
   0   6   1   11.96    0.72
   0   6   1   10.51    0.66
   0   6   1   11.62    0.70
  -1  -6  -1    0.19    0.16
  -1  -6  -1    0.19    0.23
  -1  -6  -1    0.35    0.19
  -1  -6  -1   -0.11    0.18
  -1  -6  -1    0.38    0.22
   1   6   1   -0.20    0.18
   1   6   1    0.02    0.19
   1   6   1   -0.18    0.21
   1   6   1    0.19    0.19
   1   6   1    0.10    0.17
  -2  -6  -1   11.14    0.66
  -2  -6  -1   10.87    0.72
  -2  -6  -1   11.24    0.68
  -2  -6  -1   11.49    0.74
  -2  -6  -1   11.50    0.72
   2   6   1   10.58    0.72
   2   6   1   10.92    0.69
   2   6   1   12.31    0.77
   2   6   1   11.06    0.67
   2   6   1   12.50    0.71
  -3  -6  -1   27.77    1.49
  -3  -6  -1   26.31    1.32
  -3  -6  -1   27.80    1.22
  -3  -6  -1   27.56    1.35
   3   6   1   28.88    1.31
   3   6   1   28.93    1.42
   3   6   1   28.14    1.37
   3   6   1   28.09    1.19
   3   6   1   28.60    1.26
  -4  -6  -1   32.12    1.52
  -4  -6  -1   28.91    1.48
  -4  -6  -1   29.74    1.27
   4   6   1   29.60    1.51
   4   6   1   30.15    1.50
   4   6   1   30.53    1.32
  -5  -6  -1    0.23    0.39
  -5  -6  -1    0.34    0.20
  -5  -6  -1   -0.23    0.37
   5   6   1   -0.34    0.38
   5   6   1    0.13    0.24
   5   6   1    0.32    0.37
  -6  -6  -1   22.43    1.35
  -6  -6  -1   20.13    1.33
   6   6   1   21.79    1.34
   6   6   1   19.97    0.97
   6   6   1   20.17    1.24
  -7  -6  -1    2.97    0.60
  -7  -6  -1    1.83    0.61
   7   6   1    1.45    0.65
  -8  -6  -1    0.14    0.73
  -8  -6  -1    1.23    0.69
   8   6   1    1.38    0.68
   8   6   1   -0.32    0.63
   8  -7  -1    3.37    0.72
  -8   7   1    3.46    0.77
  -8   7   1    4.07    0.89
   7  -7  -1    5.41    0.92
  -7   7   1    6.24    0.96
  -7   7   1    6.01    1.24
  -7   7   1    7.25    0.78
   6  -7  -1   14.19    1.21
   6  -7  -1   15.20    0.98
  -6   7   1   16.52    1.14
  -6   7   1   14.79    0.78
  -6   7   1   14.86    0.75
  -6   7   1   14.72    1.07
   5  -7  -1    8.51    0.70
   5  -7  -1    7.81    0.77
   5  -7  -1    8.23    0.65
  -5   7   1    8.29    0.54
  -5   7   1    9.72    0.85
  -5   7   1    9.86    0.82
   4  -7  -1    1.77    0.32
   4  -7  -1    1.18    0.40
   4  -7  -1    1.09    0.28
  -4   7   1    1.40    0.41
  -4   7   1    0.97    0.36
  -4   7   1    1.27    0.25
   3  -7  -1    4.13    0.43
   3  -7  -1    4.76    0.47
   3  -7  -1    4.68    0.55
  -3   7   1    4.95    0.54
  -3   7   1    4.44    0.45
  -3   7   1    5.70    0.64
   2  -7  -1    2.18    0.38
   2  -7  -1    1.83    0.24
   2  -7  -1    1.85    0.36
   2  -7  -1    1.65    0.31
   2  -7  -1    1.31    0.33
  -2   7   1    1.68    0.35
  -2   7   1    1.58    0.33
  -2   7   1    1.68    0.32
  -2   7   1    1.88    0.32
   1  -7  -1   45.30    1.93
   1  -7  -1   46.41    1.92
   1  -7  -1   46.80    1.77
   1  -7  -1   44.18    1.75
   1  -7  -1   47.73    1.97
  -1   7   1   43.45    1.92
  -1   7   1   45.85    1.67
  -1   7   1   45.02    1.84
  -1   7   1   45.76    1.98
  -1   7   1   46.39    1.88
  -1   7   1   46.30    1.97
   0  -7  -1    1.82    0.37
   0  -7  -1    2.14    0.36
   0  -7  -1    1.57    0.27
   0  -7  -1    2.25    0.33
   0  -7  -1    1.87    0.30
   0   7   1    2.02    0.28
   0   7   1    1.82    0.38
   0   7   1    1.79    0.29
   0   7   1    1.95    0.35
   0   7   1    1.67    0.28
   0   7   1    2.18    0.37
  -1  -7  -1    6.92    0.68
  -1  -7  -1    8.13    0.52
  -1  -7  -1    7.26    0.55
  -1  -7  -1    7.55    0.60
  -1  -7  -1    8.41    0.58
   1   7   1    7.92    0.65
   1   7   1    7.08    0.61
   1   7   1    6.86    0.58
   1   7   1    6.78    0.59
   1   7   1    7.02    0.51
  -2  -7  -1    0.19    0.20
  -2  -7  -1   -0.15    0.21
  -2  -7  -1   -0.12    0.22
   2   7   1    0.29    0.26
   2   7   1    0.24    0.28
   2   7   1    0.45    0.28
   2   7   1    0.39    0.31
  -3  -7  -1   17.67    0.93
  -3  -7  -1   20.16    1.09
  -3  -7  -1   18.11    1.05
   3   7   1   17.59    1.12
   3   7   1   17.59    0.88
   3   7   1   20.06    1.01
   3   7   1   17.55    1.04
   3   7   1   18.48    1.11
  -4  -7  -1    6.22    0.67
  -4  -7  -1    6.41    0.72
  -4  -7  -1    6.27    0.53
   4   7   1    4.68    0.57
   4   7   1    5.55    0.73
   4   7   1    5.73    0.46
   4   7   1    5.64    0.73
  -5  -7  -1   24.76    1.40
  -5  -7  -1   23.93    1.08
   5   7   1   23.98    1.15
   5   7   1   23.06    1.45
  -6  -7  -1    0.96    0.48
  -6  -7  -1    0.76    0.57
   6   7   1    1.01    0.38
   6   7   1    0.60    0.55
   6   7   1    0.55    0.53
  -7  -7  -1    0.56    0.64
  -7  -7  -1    0.56    0.57
   7   7   1   -0.69    0.60
  -8  -7  -1    0.11    1.55
  -8  -7  -1    1.53    0.85
   8   7   1   -0.91    1.16
   8  -8  -1   -0.94    0.70
  -8   8   1   -0.64    0.75
  -8   8   1    0.64    0.77
   7  -8  -1    4.06    0.66
  -7   8   1    5.27    0.80
   6  -8  -1    6.00    0.79
   6  -8  -1    6.54    0.81
  -6   8   1    6.12    0.87
  -6   8   1    6.50    0.59
  -6   8   1    5.55    0.83
   5  -8  -1    0.36    0.37
   5  -8  -1   -0.96    0.44
  -5   8   1   -0.01    0.48
  -5   8   1   -0.23    0.29
  -5   8   1   -0.26    0.45
   4  -8  -1    5.35    0.58
  -4   8   1    3.98    0.66
  -4   8   1    3.96    0.52
  -4   8   1    3.97    0.65
   3  -8  -1   14.42    1.04
   3  -8  -1   14.34    0.90
  -3   8   1   15.47    0.85
  -3   8   1   15.36    1.00
  -3   8   1   14.95    1.05
   2  -8  -1   20.83    1.20
   2  -8  -1   20.65    1.12
   2  -8  -1   20.74    0.83
   2  -8  -1   20.58    0.84
  -2   8   1   21.62    1.26
  -2   8   1   21.50    1.21
  -2   8   1   22.01    1.10
   1  -8  -1    1.22    0.26
   1  -8  -1    0.80    0.34
   1  -8  -1    0.66    0.32
   1  -8  -1    0.50    0.22
  -1   8   1    0.48    0.34
  -1   8   1    0.44    0.41
  -1   8   1    0.82    0.28
   0  -8  -1    0.04    0.30
   0  -8  -1   -0.10    0.27
   0  -8  -1    0.10    0.19
   0  -8  -1   -0.17    0.23
   0   8   1   -0.52    0.31
   0   8   1   -0.25    0.30
   0   8   1   -0.21    0.28
  -1  -8  -1    6.01    0.62
  -1  -8  -1    6.68    0.58
  -1  -8  -1    6.41    0.51
   1   8   1    6.41    0.65
   1   8   1    6.45    0.68
   1   8   1    6.06    0.70
  -2  -8  -1    9.92    0.77
  -2  -8  -1    9.28    0.72
  -2  -8  -1    9.22    0.71
   2   8   1   10.35    0.82
   2   8   1   10.51    0.86
   2   8   1   10.78    0.86
   2   8   1    9.52    0.71
  -3  -8  -1    1.47    0.35
  -3  -8  -1    1.75    0.39
  -3  -8  -1    1.79    0.46
   3   8   1    1.83    0.40
  -4  -8  -1    1.82    0.49
  -4  -8  -1    1.67    0.34
  -4  -8  -1    2.38    0.50
   4   8   1    2.94    0.56
   4   8   1    2.73    0.53
   4   8   1    2.95    0.62
   4   8   1    1.49    0.53
  -5  -8  -1    1.05    0.53
  -5  -8  -1   -0.13    0.51
  -5  -8  -1    0.34    0.32
   5   8   1   -0.32    0.37
   5   8   1    1.83    0.57
   5   8   1   -0.27    0.48
  -6  -8  -1    0.85    0.61
  -6  -8  -1    0.40    0.56
   6   8   1    0.27    0.62
   6   8   1    0.08    0.64
  -7  -8  -1   -0.05    0.78
  -7  -8  -1   -0.07    0.76
   7   8   1    0.12    0.77
   7   8   1    0.67    0.91
   7  -9  -1    1.18    0.69
  -7   9   1    2.49    0.83
  -7   9   1    0.65    0.81
   6  -9  -1    1.76    0.65
   6  -9  -1    0.14    0.53
  -6   9   1   -0.49    0.59
  -6   9   1    1.26    0.69
   5  -9  -1    1.83    0.53
   5  -9  -1    1.90    0.60
  -5   9   1    1.90    0.41
  -5   9   1    1.54    0.60
  -5   9   1    1.20    0.63
   4  -9  -1    4.95    0.65
   4  -9  -1    4.06    0.70
  -4   9   1    3.98    0.57
  -4   9   1    3.45    0.70
  -4   9   1    3.46    0.70
   3  -9  -1    0.09    0.44
   3  -9  -1   -0.36    0.35
  -3   9   1   -0.54    0.33
  -3   9   1    0.75    0.42
  -3   9   1    0.56    0.54
  -3   9   1   -0.17    0.47
   2  -9  -1   16.50    1.00
   2  -9  -1   15.01    0.69
  -2   9   1   15.84    0.97
  -2   9   1   16.28    1.12
  -2   9   1   15.60    1.24
   1  -9  -1   12.15    0.71
   1  -9  -1   13.95    0.98
   1  -9  -1   12.54    0.91
  -1   9   1   13.47    1.18
  -1   9   1   12.75    0.92
  -1   9   1   11.96    0.98
   0  -9  -1    2.16    0.47
   0  -9  -1    3.18    0.46
   0  -9  -1    2.44    0.51
   0  -9  -1    3.57    0.63
   0  -9  -1    2.63    0.40
   0   9   1    1.66    0.51
   0   9   1    2.96    0.55
   0   9   1    2.61    0.58
  -1  -9  -1    4.25    0.49
  -1  -9  -1    3.50    0.55
  -1  -9  -1    4.34    0.54
   1   9   1    2.99    0.70
   1   9   1    4.10    0.60
   1   9   1    3.62    0.85
  -2  -9  -1    0.00    0.34
  -2  -9  -1   -0.05    0.43
  -2  -9  -1    0.28    0.35
   2   9   1   -0.04    0.42
   2   9   1    0.15    0.47
   2   9   1    0.05    0.45
  -3  -9  -1   -0.16    0.36
  -3  -9  -1    0.42    0.42
  -3  -9  -1    0.13    0.41
   3   9   1   -0.16    0.44
   3   9   1    0.28    0.33
   3   9   1    0.09    0.49
   3   9   1   -0.67    0.48
  -4  -9  -1    0.19    0.52
  -4  -9  -1    0.56    0.37
  -4  -9  -1   -0.79    0.42
   4   9   1   -0.34    0.55
   4   9   1   -0.37    0.42
   4   9   1   -0.01    0.52
  -5  -9  -1    1.22    0.53
  -5  -9  -1    0.28    0.62
  -5  -9  -1    0.58    0.55
   5   9   1    0.44    0.67
   5   9   1    0.37    0.50
   5   9   1    1.06    0.65
  -6  -9  -1   -0.42    0.68
  -6  -9  -1   -0.30    0.65
   6   9   1   -0.22    0.70
   6   9   1    0.40    0.77
   7 -10  -1    0.35    0.87
  -7  10   1    0.10    0.86
   6 -10  -1    2.58    0.72
   6 -10  -1    0.68    0.74
  -6  10   1    0.81    0.78
  -6  10   1    0.50    0.80
   5 -10  -1   -0.49    0.55
   5 -10  -1    0.62    0.63
  -5  10   1    0.25    0.49
  -5  10   1    0.16    0.66
  -5  10   1    1.28    0.68
   4 -10  -1    0.02    0.49
   4 -10  -1    0.22    0.48
  -4  10   1   -0.22    0.60
  -4  10   1   -0.33    0.62
  -4  10   1    0.89    0.47
   3 -10  -1    6.42    0.93
   3 -10  -1    5.28    0.78
  -3  10   1    5.79    0.76
  -3  10   1    6.31    1.10
  -3  10   1    5.06    0.86
   2 -10  -1    6.66    0.86
   2 -10  -1    7.23    0.83
   2 -10  -1    6.51    0.63
  -2  10   1    6.84    1.01
  -2  10   1    7.28    0.82
  -2  10   1    9.43    0.92
   1 -10  -1    3.32    0.47
   1 -10  -1    2.73    0.56
   1 -10  -1    2.97    0.58
  -1  10   1    3.14    0.69
  -1  10   1    3.61    0.62
   0 -10  -1    0.18    0.44
   0 -10  -1    0.05    0.42
   0 -10  -1    0.15    0.27
   0 -10  -1    0.08    0.35
   0  10   1    0.14    0.53
   0  10   1   -0.30    0.51
   0  10   1   -0.16    0.44
  -1 -10  -1    3.31    0.50
  -1 -10  -1    3.55    0.56
  -1 -10  -1    3.09    0.67
   1  10   1    3.46    0.69
   1  10   1    3.18    0.66
   1  10   1    3.81    0.63
  -2 -10  -1    3.39    0.64
  -2 -10  -1    4.53    0.76
  -2 -10  -1    4.13    0.67
   2  10   1    3.04    0.62
   2  10   1    1.95    0.64
   2  10   1    4.53    0.81
  -3 -10  -1    3.69    0.63
  -3 -10  -1    5.53    0.81
  -3 -10  -1    4.15    0.79
   3  10   1    6.79    1.11
   3  10   1    5.88    0.90
   3  10   1    4.19    0.78
  -4 -10  -1    1.69    0.53
  -4 -10  -1    0.95    0.63
  -4 -10  -1    1.76    0.55
   4  10   1    0.64    0.68
   4  10   1    1.43    0.74
   4  10   1    1.73    0.62
  -5 -10  -1    0.81    0.66
  -5 -10  -1    1.43    0.75
   5  10   1   -0.34    0.76
   5  10   1    1.51    0.82
   5  10   1    0.61    0.78
   5 -11  -1   -1.21    0.70
   5 -11  -1   -0.53    0.65
  -5  11   1   -0.06    0.81
  -5  11   1    0.36    0.77
   4 -11  -1   -0.12    0.85
   4 -11  -1    0.44    0.63
  -4  11   1   -0.09    0.71
  -4  11   1    0.58    0.82
  -4  11   1   -0.18    0.71
   3 -11  -1   -0.80    0.54
   3 -11  -1    0.42    0.64
  -3  11   1   -0.26    0.53
  -3  11   1   -0.62    0.71
  -3  11   1   -0.73    0.61
   2 -11  -1   -0.41    0.59
   2 -11  -1    0.35    0.52
  -2  11   1   -0.36    0.64
  -2  11   1   -0.23    0.54
  -2  11   1    0.55    0.65
   1 -11  -1   -0.53    0.50
   1 -11  -1    0.42    0.38
  -1  11   1   -0.22    0.60
  -1  11   1    0.26    0.58
  -1  11   1    0.35    0.51
   0 -11  -1    3.40    0.62
   0 -11  -1    2.54    0.45
   0 -11  -1    2.42    0.50
   0 -11  -1    1.50    0.59
   0  11   1    3.71    0.73
   0  11   1    1.92    0.67
   0  11   1    2.17    0.76
  -1 -11  -1   -0.32    0.51
  -1 -11  -1   -1.00    0.50
  -1 -11  -1    0.38    0.44
  -1 -11  -1    0.33    0.58
   1  11   1   -0.14    0.59
   1  11   1    0.13    0.64
   1  11   1    0.01    0.65
  -2 -11  -1    6.46    0.88
  -2 -11  -1    5.65    0.91
   2  11   1    6.90    1.38
   2  11   1    5.70    1.09
   2  11   1    6.57    1.05
  -3 -11  -1    2.14    0.65
  -3 -11  -1    2.63    0.71
  -3 -11  -1    0.77    0.62
   3  11   1    1.74    0.89
   3  11   1    2.57    0.82
   3  11   1    2.80    0.68
  -4 -11  -1    3.02    0.72
  -4 -11  -1    3.50    0.72
   4  11   1    1.74    0.90
   4  11   1    1.64    0.75
   4 -12  -1   -1.17    0.74
   4 -12  -1   -0.78    0.89
  -4  12   1    0.59    1.06
  -4  12   1   -0.02    0.75
  -4  12   1    0.74    0.91
   3 -12  -1    0.67    0.75
   3 -12  -1    1.80    0.75
  -3  12   1    2.49    0.88
  -3  12   1    1.50    0.75
  -3  12   1    1.91    0.94
   2 -12  -1    0.51    0.66
   2 -12  -1    0.24    0.67
  -2  12   1   -0.97    0.78
  -2  12   1    0.27    0.80
  -2  12   1    0.35    0.71
   1 -12  -1    0.02    0.69
   1 -12  -1    0.43    0.61
  -1  12   1    0.69    0.86
  -1  12   1    1.36    0.84
  -1  12   1    1.33    0.69
   0 -12  -1    0.44    0.71
   0 -12  -1    1.25    0.68
   0  12   1    1.49    0.74
   0  12   1    1.25    0.81
   0  12   1    2.03    0.81
  -1 -12  -1    0.30    0.63
  -1 -12  -1    0.16    0.63
  -1 -12  -1   -0.30    0.60
   1  12   1   -0.02    0.83
   1  12   1    1.05    0.78
   1  12   1    0.77    0.85
  -2 -12  -1   -0.69    0.72
  -2 -12  -1   -1.84    0.92
  -2 -12  -1   -1.14    0.66
   2  12   1   -0.69    0.93
   2  12   1   -0.04    0.85
   1  11  -2    1.32    0.78
   1  11  -2    1.03    0.91
   1  11  -2   -0.14    0.88
  -1 -11   2    1.69    1.14
  -1 -11   2    0.67    0.79
  -1 -11   2    2.07    0.77
  -1 -11   2    1.83    0.71
   0  11  -2    0.10    0.85
   0  11  -2   -0.87    0.87
   0  11  -2    0.61    0.83
   0 -11   2    0.73    0.68
   0 -11   2   -0.30    0.79
   0 -11   2   -0.66    0.66
  -1  11  -2    0.23    0.78
  -1  11  -2    0.56    0.80
  -1  11  -2    2.19    0.80
   1 -11   2    0.69    0.72
   1 -11   2    0.31    0.72
  -2  11  -2    8.99    1.19
  -2  11  -2    6.47    1.03
  -2  11  -2    5.66    1.02
   2 -11   2    7.87    1.20
   2 -11   2    6.00    0.98
  -3  11  -2    1.31    0.80
  -3  11  -2    0.69    0.72
  -3  11  -2    2.31    0.84
   3 -11   2    0.96    0.72
   3 -11   2    1.69    0.67
  -4  11  -2   -0.64    1.10
  -4  11  -2    0.53    0.86
  -4  11  -2   -0.22    0.94
   4 -11   2   -0.99    0.82
   3  10  -2    2.92    0.86
   3  10  -2    2.13    0.92
   2  10  -2   -0.34    0.76
   2  10  -2   -0.63    0.67
   2  10  -2    1.06    0.81
  -2 -10   2    0.35    0.58
  -2 -10   2    1.15    0.70
  -2 -10   2    0.69    0.62
  -2 -10   2    0.13    0.62
   1  10  -2    1.34    0.75
   1  10  -2    0.51    0.67
   1  10  -2    0.76    0.72
  -1 -10   2    2.71    0.61
  -1 -10   2    2.31    0.60
  -1 -10   2    1.46    0.58
  -1 -10   2    1.72    0.63
   0  10  -2    1.62    0.65
   0  10  -2    0.51    0.71
   0  10  -2    1.30    0.93
   0 -10   2    0.39    0.52
   0 -10   2    1.34    0.55
   0 -10   2    2.06    0.58
   0 -10   2    2.16    0.66
  -1  10  -2    1.28    0.59
  -1  10  -2    0.64    0.62
   1 -10   2   -0.18    0.57
   1 -10   2    0.70    0.43
   1 -10   2    0.52    0.56
  -2  10  -2   -0.44    0.61
  -2  10  -2    0.90    0.59
  -2  10  -2    1.11    0.60
   2 -10   2   -0.11    0.55
   2 -10   2    1.23    0.57
  -3  10  -2    0.38    0.59
  -3  10  -2    0.34    0.58
  -3  10  -2   -0.74    0.57
   3 -10   2    1.01    0.59
   3 -10   2   -0.92    0.52
  -4  10  -2   -0.57    0.72
  -4  10  -2   -0.45    0.58
  -4  10  -2   -0.69    0.65
   4 -10   2   -0.45    0.63
   4 -10   2   -0.81    0.60
  -5  10  -2    0.89    0.67
  -5  10  -2    1.81    0.84
  -5  10  -2    0.73    0.72
   5 -10   2    1.16    0.71
   5 -10   2    0.48    0.61
  -6  10  -2    0.25    1.30
  -6  10  -2    1.06    0.88
   6 -10   2    0.02    0.83
  -5  -9   2    1.75    1.21
  -5  -9   2    1.48    0.84
   4   9  -2    0.15    0.83
   4   9  -2   -0.18    0.64
   4   9  -2    0.25    0.80
  -4  -9   2    0.71    0.67
  -4  -9   2    1.24    0.76
   3   9  -2    4.85    0.74
   3   9  -2    5.64    0.98
   3   9  -2    3.53    0.76
  -3  -9   2    5.06    0.79
  -3  -9   2    3.65    0.72
  -3  -9   2    3.27    0.70
   2   9  -2    2.14    0.64
   2   9  -2    2.86    0.61
   2   9  -2    1.60    0.69
  -2  -9   2    2.12    0.49
  -2  -9   2    2.54    0.52
  -2  -9   2    2.17    0.60
   1   9  -2    3.85    0.70
   1   9  -2    4.65    0.78
   1   9  -2    3.91    0.65
  -1  -9   2    4.21    0.72
  -1  -9   2    3.86    0.68
  -1  -9   2    6.44    0.86
  -1  -9   2    4.31    0.75
   0   9  -2    1.06    0.51
   0   9  -2    0.48    0.46
   0   9  -2   -0.40    0.46
   0  -9   2   -0.06    0.38
   0  -9   2   -0.26    0.45
   0  -9   2    0.34    0.39
  -1   9  -2    2.57    0.65
  -1   9  -2    3.04    0.59
  -1   9  -2    3.19    0.64
   1  -9   2    2.27    0.55
   1  -9   2    2.35    0.54
   1  -9   2    2.13    0.42
   1  -9   2    3.19    0.61
  -2   9  -2    1.71    0.60
  -2   9  -2    0.92    0.55
  -2   9  -2    1.71    0.53
  -2   9  -2    2.19    0.57
   2  -9   2    1.77    0.54
   2  -9   2    2.05    0.53
  -3   9  -2    5.55    0.82
  -3   9  -2    9.43    1.13
   3  -9   2    7.66    0.94
   3  -9   2    8.59    0.94
  -4   9  -2    2.35    0.51
  -4   9  -2    2.68    0.68
   4  -9   2    3.81    0.66
   4  -9   2    3.97    0.72
  -5   9  -2   -0.16    0.65
  -5   9  -2   -0.70    0.60
  -5   9  -2    0.26    0.43
   5  -9   2   -0.36    0.57
   5  -9   2   -0.09    0.59
  -6   9  -2    1.00    0.68
  -6   9  -2    2.68    0.79
   6  -9   2    0.31    0.65
   6  -9   2    1.20    0.68
  -7   9  -2    0.69    0.79
  -7   9  -2    0.29    0.84
   7  -9   2   -0.88    0.74
  -6  -8   2    3.03    0.99
   5   8  -2   -0.52    0.78
   5   8  -2   -0.54    0.56
   5   8  -2   -0.80    0.72
  -5  -8   2   -0.13    0.64
  -5  -8   2   -0.66    0.64
   4   8  -2    0.80    0.65
   4   8  -2    1.94    0.66
  -4  -8   2    1.37    0.59
  -4  -8   2    1.97    0.56
   3   8  -2    1.62    0.56
   3   8  -2    1.83    0.57
  -3  -8   2    1.00    0.36
  -3  -8   2    0.80    0.48
  -3  -8   2    0.42    0.45
   2   8  -2    1.40    0.58
   2   8  -2    0.94    0.48
   2   8  -2    1.18    0.54
  -2  -8   2    0.96    0.44
  -2  -8   2    1.35    0.50
  -2  -8   2    1.77    0.38
   1   8  -2    0.63    0.46
   1   8  -2   -0.30    0.47
   1   8  -2    1.05    0.45
  -1  -8   2    0.91    0.37
  -1  -8   2    0.27    0.35
  -1  -8   2   -0.48    0.37
  -1  -8   2    0.36    0.45
   0   8  -2    6.61    0.74
   0   8  -2    6.11    0.80
   0  -8   2    6.57    0.62
   0  -8   2    5.13    0.66
   0  -8   2    5.86    0.86
   0  -8   2    5.33    0.64
  -1   8  -2    1.43    0.49
  -1   8  -2    0.86    0.38
  -1   8  -2    0.96    0.36
   1  -8   2    1.40    0.29
   1  -8   2    0.77    0.41
   1  -8   2    0.17    0.35
   1  -8   2    0.66    0.44
  -2   8  -2    6.23    0.74
  -2   8  -2    6.73    0.85
  -2   8  -2    3.95    0.64
   2  -8   2    4.31    0.74
   2  -8   2    5.57    0.46
   2  -8   2    4.74    0.45
   2  -8   2    5.54    0.78
  -3   8  -2    0.66    0.46
  -3   8  -2    1.58    0.50
  -3   8  -2    0.43    0.39
  -3   8  -2    1.51    0.35
   3  -8   2    1.10    0.39
   3  -8   2    1.13    0.45
  -4   8  -2    2.04    0.50
  -4   8  -2    1.93    0.38
  -4   8  -2    1.82    0.51
   4  -8   2    1.70    0.52
   4  -8   2    1.88    0.56
  -5   8  -2    0.37    0.48
  -5   8  -2    0.86    0.52
  -5   8  -2    0.63    0.34
   5  -8   2    1.35    0.54
   5  -8   2    0.54    0.49
  -6   8  -2    0.42    0.36
  -6   8  -2   -0.68    0.54
  -6   8  -2    0.23    0.42
  -6   8  -2    0.36    0.94
   6  -8   2    0.13    0.53
   6  -8   2   -0.06    0.53
  -7   8  -2    0.67    0.70
   7  -8   2    0.28    0.57
   7  -8   2   -0.26    0.67
  -8   8  -2    0.09    0.78
   6   7  -2   -0.27    0.78
   6   7  -2   -0.03    0.73
  -6  -7   2   -0.04    0.71
  -6  -7   2    0.99    0.77
   5   7  -2    0.37    0.49
   5   7  -2   -0.93    0.56
   5   7  -2    1.61    0.63
   5   7  -2   -0.20    0.56
  -5  -7   2    0.15    0.54
  -5  -7   2   -0.21    0.60
   4   7  -2   -0.29    0.59
   4   7  -2    0.03    0.44
   4   7  -2   -0.38    0.55
  -4  -7   2   -0.35    0.50
  -4  -7   2    0.55    0.45
   3   7  -2    9.47    0.91
   3   7  -2    7.74    0.88
   3   7  -2    8.12    0.80
  -3  -7   2    7.89    0.82
  -3  -7   2    8.37    0.62
   2   7  -2    4.90    0.69
   2   7  -2    4.69    0.71
   2   7  -2    3.67    0.54
  -2  -7   2    3.81    0.59
  -2  -7   2    4.87    0.52
  -2  -7   2    4.86    0.62
   1   7  -2   42.38    1.98
   1   7  -2   41.80    1.96
   1   7  -2   42.82    1.82
   1   7  -2   43.19    1.97
  -1  -7   2   41.24    1.89
  -1  -7   2   43.05    1.89
  -1  -7   2   40.58    1.88
   0   7  -2    7.23    0.76
   0   7  -2    7.15    0.66
   0   7  -2    6.20    0.60
   0   7  -2    6.60    0.76
   0   7  -2    7.15    0.66
   0  -7   2    6.39    0.60
   0  -7   2    6.80    0.58
   0  -7   2    6.20    0.64
   0  -7   2    6.89    0.70
   0  -7   2    6.00    0.59
  -1   7  -2  154.29    5.33
  -1   7  -2  147.67    5.42
  -1   7  -2  141.16    5.18
  -1   7  -2  142.87    5.31
   1  -7   2  141.37    5.30
   1  -7   2  149.25    5.41
   1  -7   2  144.84    5.14
   1  -7   2  143.93    5.21
  -2   7  -2   34.91    1.58
  -2   7  -2   36.28    1.75
  -2   7  -2   33.14    1.80
  -2   7  -2   34.74    1.61
   2  -7   2   36.02    1.68
   2  -7   2   34.43    1.38
   2  -7   2   36.41    1.39
   2  -7   2   33.27    1.63
   2  -7   2   36.34    1.70
  -3   7  -2    9.09    0.72
  -3   7  -2    9.11    0.63
  -3   7  -2    7.69    0.80
   3  -7   2    8.70    0.74
   3  -7   2    7.30    0.75
   3  -7   2    9.11    0.78
  -4   7  -2    2.15    0.43
  -4   7  -2    2.27    0.46
  -4   7  -2    1.81    0.32
   4  -7   2    1.26    0.43
   4  -7   2    1.26    0.50
   4  -7   2    1.94    0.50
  -5   7  -2    0.90    0.42
  -5   7  -2    0.46    0.45
  -5   7  -2    0.87    0.27
   5  -7   2    0.71    0.44
   5  -7   2    1.04    0.49
  -6   7  -2   -0.24    0.25
  -6   7  -2    0.34    0.37
  -6   7  -2    0.23    0.47
  -6   7  -2    0.32    0.43
   6  -7   2    0.04    0.49
   6  -7   2    0.73    0.49
  -7   7  -2    3.82    0.70
  -7   7  -2    2.94    0.61
   7  -7   2    1.68    0.58
   7  -7   2    3.21    0.68
  -8   7  -2    2.16    0.75
  -8   7  -2    0.47    0.70
   8  -7   2    2.63    0.71
  -7  -6   2    0.40    0.71
  -7  -6   2   -0.20    0.75
   6   6  -2    0.45    0.56
   6   6  -2    1.07    0.59
   6   6  -2   -0.12    0.54
  -6  -6   2   -0.45    0.62
  -6  -6   2    1.44    0.61
   5   6  -2    0.04    0.37
   5   6  -2   -0.32    0.53
  -5  -6   2    0.18    0.47
  -5  -6   2    0.01    0.48
   4   6  -2    8.87    0.97
   4   6  -2    7.82    0.74
   4   6  -2    7.95    0.89
   4   6  -2    8.15    0.54
  -4  -6   2    8.98    0.84
  -4  -6   2    8.62    0.87
   3   6  -2   -0.24    0.37
   3   6  -2    0.29    0.32
   3   6  -2    0.22    0.44
  -3  -6   2    0.35    0.33
  -3  -6   2    0.38    0.22
  -3  -6   2   -0.39    0.33
  -3  -6   2    0.25    0.34
   2   6  -2    7.47    0.56
   2   6  -2    8.01    0.41
   2   6  -2    8.82    0.68
   2   6  -2    7.97    0.77
   2   6  -2    7.84    0.72
  -2  -6   2    7.28    0.68
  -2  -6   2    7.59    0.66
  -2  -6   2    8.63    0.75
  -2  -6   2    9.03    0.58
   1   6  -2   14.96    0.94
   1   6  -2   14.96    0.83
   1   6  -2   14.64    0.97
   1   6  -2   14.97    0.94
   1   6  -2   13.96    0.88
  -1  -6   2   14.34    0.94
  -1  -6   2   16.05    0.85
  -1  -6   2   16.31    0.93
  -1  -6   2   16.05    0.95
  -1  -6   2   17.42    0.94
   0   6  -2   43.77    1.93
   0   6  -2   48.57    2.04
   0   6  -2   47.56    2.07
   0   6  -2   47.74    1.99
   0   6  -2   47.93    1.95
   0   6  -2   46.30    2.03
   0  -6   2   47.19    2.03
   0  -6   2   50.54    1.97
   0  -6   2   52.60    1.97
   0  -6   2   48.10    1.98
   0  -6   2   46.15    2.06
   0  -6   2   48.78    1.99
  -1   6  -2   18.77    1.02
  -1   6  -2   18.87    1.02
  -1   6  -2   19.91    0.95
  -1   6  -2   18.23    1.07
  -1   6  -2   19.13    0.96
   1  -6   2   19.74    0.92
   1  -6   2   18.81    1.07
   1  -6   2   19.01    0.98
   1  -6   2   20.01    0.92
   1  -6   2   19.09    1.03
   1  -6   2   18.88    0.96
  -2   6  -2   -0.05    0.21
  -2   6  -2    0.07    0.21
  -2   6  -2   -0.12    0.21
  -2   6  -2   -0.04    0.20
  -2   6  -2   -0.51    0.29
  -2   6  -2   -0.16    0.27
   2  -6   2   -0.42    0.26
   2  -6   2    0.20    0.26
  -3   6  -2    0.34    0.28
  -3   6  -2    0.25    0.23
  -3   6  -2   -0.08    0.23
  -3   6  -2   -0.35    0.21
   3  -6   2   -0.10    0.27
   3  -6   2    0.39    0.30
   3  -6   2    0.11    0.27
  -4   6  -2    6.60    0.45
  -4   6  -2    6.34    0.62
  -4   6  -2    6.97    0.57
  -4   6  -2    6.81    0.48
   4  -6   2    6.23    0.64
   4  -6   2    6.45    0.54
   4  -6   2    6.96    0.66
  -5   6  -2    3.35    0.34
  -5   6  -2    2.29    0.39
  -5   6  -2    2.44    0.45
   5  -6   2    2.87    0.38
   5  -6   2    2.51    0.50
   5  -6   2    2.74    0.49
  -6   6  -2    0.10    0.33
  -6   6  -2   -0.35    0.41
  -6   6  -2   -0.35    0.32
   6  -6   2   -0.35    0.30
   6  -6   2    0.20    0.46
   6  -6   2    0.36    0.51
   6  -6   2   -0.47    0.39
  -7   6  -2    0.34    0.41
  -7   6  -2    0.26    0.41
  -7   6  -2   -0.46    0.45
   7  -6   2    0.70    0.53
   7  -6   2   -0.06    0.37
  -8   6  -2    0.92    0.56
  -8   6  -2    0.92    0.55
  -8   6  -2   -0.63    0.56
  -9   6  -2    0.59    0.75
   9  -6   2   -0.57    0.51
  -8  -5   2    1.70    0.93
   7   5  -2    1.64    1.15
   7   5  -2    0.51    0.64
  -7  -5   2    1.59    0.77
  -7  -5   2    0.94    0.67
   6   5  -2    1.19    0.37
   6   5  -2    1.41    0.53
  -6  -5   2    1.02    0.47
   5   5  -2    0.36    0.31
   5   5  -2    0.58    0.48
  -5  -5   2   -0.10    0.45
  -5  -5   2    0.34    0.40
   4   5  -2    0.45    0.39
   4   5  -2    0.68    0.45
   4   5  -2    0.38    0.27
  -4  -5   2    0.74    0.38
  -4  -5   2    0.73    0.44
   3   5  -2    0.55    0.33
   3   5  -2    0.00    0.25
   3   5  -2    0.08    0.30
  -3  -5   2   -0.05    0.18
  -3  -5   2    0.16    0.33
  -3  -5   2   -0.38    0.27
   2   5  -2    7.12    0.47
   2   5  -2    7.32    0.63
   2   5  -2    7.45    0.60
   2   5  -2    7.76    0.65
   2   5  -2    8.14    0.63
  -2  -5   2    7.45    0.48
  -2  -5   2    7.47    0.62
  -2  -5   2    7.98    0.68
  -2  -5   2    7.19    0.59
  -2  -5   2    6.80    0.57
  -2  -5   2    7.38    0.62
   1   5  -2    8.26    0.63
   1   5  -2    7.11    0.58
   1   5  -2    7.26    0.57
   1   5  -2    7.27    0.58
   1   5  -2    6.99    0.54
   1   5  -2    6.42    0.48
  -1  -5   2    7.47    0.56
  -1  -5   2    8.01    0.59
  -1  -5   2    7.32    0.50
  -1  -5   2    6.26    0.54
  -1  -5   2    7.10    0.53
  -1  -5   2    8.62    0.59
   0   5  -2    8.07    0.64
   0   5  -2    8.37    0.51
   0   5  -2    8.35    0.58
   0   5  -2    8.11    0.57
   0   5  -2    7.76    0.54
   0   5  -2    7.97    0.56
   0  -5   2    9.01    0.59
   0  -5   2    8.75    0.57
   0  -5   2    8.03    0.55
   0  -5   2    7.47    0.52
   0  -5   2    7.52    0.53
   0  -5   2    8.79    0.62
   0  -5   2    8.06    0.57
  -1   5  -2   26.89    1.15
  -1   5  -2   27.05    1.19
  -1   5  -2   25.88    1.19
  -1   5  -2   24.90    1.25
  -1   5  -2   26.31    1.19
  -1   5  -2   25.64    1.15
   1  -5   2   24.92    1.18
   1  -5   2   25.70    1.10
   1  -5   2   25.35    1.16
   1  -5   2   26.95    1.17
   1  -5   2   27.69    1.28
   1  -5   2   27.06    1.12
   1  -5   2   24.27    1.20
  -2   5  -2   36.19    1.53
  -2   5  -2   34.98    1.55
  -2   5  -2   36.71    1.48
  -2   5  -2   34.16    1.59
  -2   5  -2   38.68    1.49
  -2   5  -2   36.61    1.57
   2  -5   2   37.42    1.59
   2  -5   2   34.93    1.50
   2  -5   2   35.61    1.34
   2  -5   2   37.18    1.59
  -3   5  -2    4.84    0.41
  -3   5  -2    5.60    0.40
  -3   5  -2    5.69    0.51
  -3   5  -2    5.76    0.46
  -3   5  -2    4.72    0.48
  -3   5  -2    5.79    0.38
  -3   5  -2    4.78    0.45
   3  -5   2    5.34    0.44
   3  -5   2    5.67    0.51
   3  -5   2    5.48    0.50
  -4   5  -2    3.43    0.40
  -4   5  -2    3.51    0.40
  -4   5  -2    4.44    0.51
  -4   5  -2    4.22    0.39
  -4   5  -2    3.74    0.29
  -4   5  -2    4.47    0.52
   4  -5   2    3.75    0.61
   4  -5   2    3.80    0.36
   4  -5   2    3.79    0.48
   4  -5   2    3.62    0.47
  -5   5  -2    8.33    0.62
  -5   5  -2    8.37    0.70
   5  -5   2    9.33    0.78
   5  -5   2    9.31    0.72
   5  -5   2   10.25    0.60
  -6   5  -2   23.41    1.19
  -6   5  -2   25.40    1.28
  -6   5  -2   23.81    1.18
   6  -5   2   23.73    1.32
   6  -5   2   24.88    1.34
   6  -5   2   24.75    1.12
  -7   5  -2    0.19    0.40
  -7   5  -2    0.95    0.38
  -7   5  -2    0.46    0.38
   7  -5   2    1.33    0.35
   7  -5   2    1.05    0.59
  -8   5  -2    0.10    0.46
  -8   5  -2    1.40    0.49
  -8   5  -2    0.80    0.50
   8  -5   2    0.24    0.60
  -9   5  -2    0.19    0.63
  -9   5  -2   -1.01    0.62
   9  -5   2    0.95    0.52
   8   4  -2    0.95    0.81
  -8  -4   2    1.15    0.88
  -8  -4   2    0.70    0.88
   7   4  -2    3.42    0.62
  -7  -4   2    2.60    0.67
  -7  -4   2    3.61    0.78
   6   4  -2    6.67    0.82
   6   4  -2    6.35    0.59
  -6  -4   2    7.33    0.77
  -6  -4   2    8.09    0.98
   5   4  -2    2.17    0.34
   5   4  -2    2.35    0.50
  -5  -4   2    2.30    0.46
   4   4  -2    1.04    0.34
   4   4  -2    0.86    0.24
   4   4  -2    1.03    0.25
  -4  -4   2    0.78    0.39
  -4  -4   2    0.60    0.30
   3   4  -2    0.23    0.26
   3   4  -2   -0.34    0.27
   3   4  -2    0.36    0.21
   3   4  -2    0.47    0.32
  -3  -4   2    0.45    0.27
  -3  -4   2   -0.16    0.29
  -3  -4   2   -0.05    0.22
  -3  -4   2    0.20    0.21
  -3  -4   2   -0.19    0.34
   2   4  -2    7.22    0.54
   2   4  -2    5.96    0.53
   2   4  -2    7.38    0.57
   2   4  -2    7.64    0.57
   2   4  -2    7.18    0.53
   2   4  -2    7.02    0.54
  -2  -4   2    7.07    0.53
  -2  -4   2    7.65    0.52
  -2  -4   2    7.14    0.54
  -2  -4   2    7.48    0.54
  -2  -4   2    7.11    0.53
  -2  -4   2    7.81    0.56
   1   4  -2    0.72    0.20
   1   4  -2    0.67    0.16
   1   4  -2    0.72    0.23
   1   4  -2    0.84    0.20
   1   4  -2    1.20    0.22
   1   4  -2    0.78    0.23
  -1  -4   2    0.53    0.22
  -1  -4   2    0.58    0.22
  -1  -4   2    0.91    0.19
  -1  -4   2    0.99    0.19
  -1  -4   2    1.17    0.24
  -1  -4   2    0.73    0.22
   0   4  -2   18.40    0.88
   0   4  -2   18.32    0.91
   0   4  -2   18.75    0.86
   0   4  -2   17.66    0.88
   0   4  -2   18.29    0.94
   0   4  -2   17.51    0.93
   0  -4   2   20.31    0.89
   0  -4   2   17.69    0.92
   0  -4   2   18.88    0.91
   0  -4   2   18.02    0.87
   0  -4   2   18.77    0.90
   0  -4   2   18.71    0.88
  -1   4  -2    7.52    0.53
  -1   4  -2    7.30    0.47
  -1   4  -2    7.30    0.49
  -1   4  -2    7.33    0.47
  -1   4  -2    6.86    0.44
  -1   4  -2    6.88    0.45
   1  -4   2    7.43    0.47
   1  -4   2    7.15    0.48
   1  -4   2    7.09    0.51
   1  -4   2    6.69    0.47
   1  -4   2    7.22    0.45
   1  -4   2    7.05    0.50
   1  -4   2    7.58    0.44
  -2   4  -2   25.91    1.12
  -2   4  -2   26.75    1.12
  -2   4  -2   26.03    1.23
  -2   4  -2   26.34    1.10
  -2   4  -2   27.03    1.08
  -2   4  -2   26.39    1.18
  -2   4  -2   26.71    1.18
   2  -4   2   26.35    1.20
   2  -4   2   26.57    0.99
   2  -4   2   27.16    1.21
   2  -4   2   26.01    1.19
   2  -4   2   26.45    1.13
   2  -4   2   27.20    0.99
  -3   4  -2    4.66    0.29
  -3   4  -2    4.25    0.36
  -3   4  -2    4.31    0.34
  -3   4  -2    5.02    0.43
  -3   4  -2    4.27    0.44
  -3   4  -2    3.95    0.40
  -3   4  -2    4.84    0.38
   3  -4   2    4.47    0.42
   3  -4   2    5.31    0.37
   3  -4   2    4.21    0.40
  -4   4  -2    0.38    0.25
  -4   4  -2   -0.11    0.23
  -4   4  -2    0.37    0.21
  -4   4  -2    0.00    0.16
   4  -4   2   -0.06    0.21
   4  -4   2   -0.05    0.20
   4  -4   2   -0.16    0.19
  -5   4  -2   33.81    1.39
  -5   4  -2   32.74    1.50
  -5   4  -2   31.83    1.50
  -5   4  -2   32.44    1.44
  -5   4  -2   32.39    1.42
   5  -4   2   32.18    1.52
   5  -4   2   32.51    1.41
   5  -4   2   32.90    1.52
  -6   4  -2    2.86    0.47
  -6   4  -2    2.54    0.44
  -6   4  -2    2.93    0.48
   6  -4   2    2.94    0.52
  -7   4  -2    0.03    0.36
  -7   4  -2    0.27    0.32
  -7   4  -2   -0.40    0.29
   7  -4   2    0.32    0.29
  -8   4  -2    0.62    0.36
  -8   4  -2   -0.26    0.47
  -8   4  -2    0.51    0.41
   8  -4   2   -0.04    0.34
  -9   4  -2    0.28    0.57
  -9   4  -2    0.66    0.56
   9  -4   2    0.11    0.42
 -10   4  -2    0.72    1.25
  10  -4   2    1.06    0.65
   8   3  -2    4.58    0.79
  -8  -3   2    4.07    0.80
  -8  -3   2    6.55    1.09
   7   3  -2    4.19    0.70
  -7  -3   2    5.81    0.87
  -7  -3   2    3.95    0.65
   6   3  -2    0.36    0.24
   6   3  -2    0.09    0.35
  -6  -3   2    0.85    0.49
   5   3  -2   -0.03    0.20
   5   3  -2   -0.17    0.31
   5   3  -2    0.56    0.33
  -5  -3   2   -0.05    0.34
  -5  -3   2   -0.40    0.22
  -5  -3   2   -0.36    0.27
   4   3  -2   17.23    0.84
   4   3  -2   17.72    0.96
   4   3  -2   16.55    0.89
   4   3  -2   17.96    0.87
  -4  -3   2   15.36    1.01
  -4  -3   2   17.58    0.84
  -4  -3   2   17.69    1.02
  -4  -3   2   16.46    0.96
   3   3  -2    0.64    0.25
   3   3  -2    0.29    0.19
   3   3  -2    0.01    0.23
   3   3  -2    0.28    0.17
   3   3  -2    0.19    0.24
   3   3  -2   -0.35    0.21
   3   3  -2    0.33    0.24
  -3  -3   2    0.00    0.24
  -3  -3   2    0.10    0.18
  -3  -3   2    0.09    0.23
  -3  -3   2    0.08    0.20
  -3  -3   2   -0.15    0.17
   2   3  -2   12.04    0.66
   2   3  -2   11.97    0.68
   2   3  -2   12.51    0.71
   2   3  -2   11.80    0.53
   2   3  -2   11.58    0.71
   2   3  -2   12.00    0.71
  -2  -3   2   12.43    0.69
  -2  -3   2   12.01    0.69
  -2  -3   2   12.81    0.72
  -2  -3   2   13.44    0.71
  -2  -3   2   11.09    0.62
   1   3  -2    0.75    0.19
   1   3  -2    0.75    0.20
   1   3  -2    0.66    0.19
   1   3  -2    0.94    0.19
   1   3  -2    0.89    0.21
   1   3  -2    0.70    0.14
  -1  -3   2    0.98    0.16
  -1  -3   2    0.68    0.15
  -1  -3   2    1.10    0.23
  -1  -3   2    0.82    0.19
  -1  -3   2    0.75    0.19
  -1  -3   2    0.59    0.18
   0   3  -2   57.68    2.13
   0   3  -2   53.13    2.14
   0   3  -2   55.91    2.11
   0   3  -2   55.61    2.12
   0   3  -2   54.86    2.11
   0   3  -2   58.23    2.08
   0  -3   2   55.38    2.10
   0  -3   2   56.34    2.13
   0  -3   2   59.13    2.09
   0  -3   2   53.29    2.10
   0  -3   2   57.77    2.11
   0  -3   2   58.53    2.15
  -1   3  -2   16.41    0.75
  -1   3  -2   16.18    0.81
  -1   3  -2   16.29    0.77
  -1   3  -2   16.65    0.75
  -1   3  -2   16.20    0.75
  -1   3  -2   17.11    0.74
   1  -3   2   16.91    0.78
   1  -3   2   16.20    0.80
   1  -3   2   16.04    0.71
   1  -3   2   16.07    0.70
   1  -3   2   16.24    0.77
   1  -3   2   14.51    0.79
   1  -3   2   16.82    0.80
  -2   3  -2   19.89    0.85
  -2   3  -2   20.22    0.89
  -2   3  -2   20.56    0.94
  -2   3  -2   20.13    0.96
  -2   3  -2   21.19    0.84
  -2   3  -2   21.77    0.96
   2  -3   2   21.97    0.97
   2  -3   2   20.61    0.78
   2  -3   2   21.15    0.87
   2  -3   2   21.09    0.97
   2  -3   2   19.65    0.94
   2  -3   2   21.29    0.81
  -3   3  -2    0.49    0.17
  -3   3  -2    0.42    0.17
  -3   3  -2    0.22    0.07
  -3   3  -2    0.21    0.17
   3  -3   2    0.10    0.11
   3  -3   2    0.38    0.15
   3  -3   2    0.32    0.16
   3  -3   2    0.21    0.16
   3  -3   2    0.39    0.16
  -4   3  -2    1.85    0.28
  -4   3  -2    1.56    0.26
  -4   3  -2    1.33    0.25
  -4   3  -2    1.49    0.30
   4  -3   2    1.48    0.26
   4  -3   2    1.91    0.26
   4  -3   2    1.45    0.20
   4  -3   2    1.78    0.31
  -5   3  -2    1.72    0.31
  -5   3  -2    1.41    0.27
  -5   3  -2    1.54    0.26
  -5   3  -2    1.80    0.31
  -5   3  -2    1.58    0.32
   5  -3   2    0.96    0.29
   5  -3   2    1.83    0.43
  -6   3  -2    8.14    0.61
  -6   3  -2    6.66    0.60
  -6   3  -2    6.00    0.55
  -6   3  -2    7.38    0.64
  -7   3  -2    4.15    0.61
  -7   3  -2    4.20    0.49
  -7   3  -2    4.30    0.53
   7  -3   2    5.47    0.49
  -8   3  -2    3.08    0.41
  -8   3  -2    2.96    0.53
  -8   3  -2    3.49    0.62
  -8   3  -2    2.58    0.48
   8  -3   2    4.05    0.54
  -9   3  -2    1.26    0.67
  -9   3  -2    0.39    0.52
   9  -3   2    1.19    0.43
   9  -3   2    0.96    0.40
 -10   3  -2    0.22    0.76
  10  -3   2    0.87    0.56
   9   2  -2    1.08    0.78
  -9  -2   2    2.02    0.79
  -9  -2   2    3.23    0.97
  -8  -2   2    0.63    0.60
  -8  -2   2    0.70    0.58
   7   2  -2    0.61    0.36
  -7  -2   2    0.45    0.41
  -7  -2   2   -0.49    0.50
   6   2  -2    2.98    0.48
   6   2  -2    2.95    0.43
  -6  -2   2    3.67    0.61
  -6  -2   2    2.46    0.58
   5   2  -2   24.37    1.24
   5   2  -2   25.28    1.20
   5   2  -2   25.55    1.10
   5   2  -2   24.17    1.16
  -5  -2   2   25.02    1.06
  -5  -2   2   25.41    1.27
  -5  -2   2   25.07    1.32
   4   2  -2   -0.31    0.20
   4   2  -2    0.55    0.21
   4   2  -2   -0.09    0.27
   4   2  -2    0.27    0.24
   4   2  -2    0.06    0.25
   4   2  -2    0.50    0.18
  -4  -2   2    0.43    0.23
  -4  -2   2    0.19    0.27
  -4  -2   2    0.02    0.24
  -4  -2   2    0.10    0.17
  -4  -2   2    0.01    0.22
   3   2  -2   15.47    0.84
   3   2  -2   15.49    0.82
   3   2  -2   14.46    0.74
   3   2  -2   15.28    0.75
   3   2  -2   14.94    0.80
   3   2  -2   15.06    0.71
  -3  -2   2   14.97    0.80
  -3  -2   2   13.64    0.76
  -3  -2   2   15.72    0.73
  -3  -2   2   14.48    0.81
  -3  -2   2   14.89    0.82
   2   2  -2  126.69    4.61
   2   2  -2  142.06    4.77
   2   2  -2  132.98    4.70
   2   2  -2  139.88    4.75
   2   2  -2  139.78    4.68
   2   2  -2  131.12    4.72
   2   2  -2  131.70    4.49
   2   2  -2  122.18    4.72
  -2  -2   2  140.73    4.67
  -2  -2   2  127.74    4.71
  -2  -2   2  135.99    4.74
  -2  -2   2  141.49    4.73
  -2  -2   2  131.27    4.74
   1   2  -2    1.46    0.23
   1   2  -2    1.79    0.23
   1   2  -2    1.77    0.24
   1   2  -2    1.44    0.24
   1   2  -2    1.62    0.15
   1   2  -2    1.49    0.26
  -1  -2   2    1.78    0.22
  -1  -2   2    1.67    0.25
  -1  -2   2    1.33    0.22
  -1  -2   2    1.57    0.22
  -1  -2   2    1.50    0.22
   0   2  -2    4.05    0.30
   0   2  -2    4.23    0.32
   0   2  -2    3.94    0.28
   0   2  -2    4.06    0.33
   0   2  -2    4.19    0.27
   0  -2   2    4.17    0.33
   0  -2   2    4.09    0.31
   0  -2   2    4.30    0.29
   0  -2   2    4.11    0.28
  -1   2  -2   47.92    1.75
  -1   2  -2   44.83    1.84
  -1   2  -2   48.21    1.78
  -1   2  -2   47.98    1.73
  -1   2  -2   48.60    1.75
  -1   2  -2   47.79    1.82
  -1   2  -2   48.11    1.80
   1  -2   2   47.77    1.88
   1  -2   2   51.04    1.74
   1  -2   2   46.10    1.72
   1  -2   2   50.22    1.74
   1  -2   2   48.23    1.81
   1  -2   2   48.96    1.82
  -2   2  -2  128.94    4.34
  -2   2  -2  124.69    4.33
  -2   2  -2  126.24    4.34
  -2   2  -2  121.11    4.21
  -2   2  -2  117.51    4.19
   2  -2   2  127.37    4.35
   2  -2   2  127.78    4.21
   2  -2   2  123.89    4.25
   2  -2   2  120.95    4.32
   2  -2   2  124.40    4.32
  -3   2  -2   25.55    1.09
  -3   2  -2   24.85    1.07
  -3   2  -2   24.45    1.06
  -3   2  -2   24.73    0.95
   3  -2   2   24.96    1.03
   3  -2   2   24.13    1.09
   3  -2   2   24.49    1.04
  -4   2  -2    2.40    0.24
  -4   2  -2    2.48    0.28
  -4   2  -2    2.48    0.31
  -4   2  -2    2.57    0.31
   4  -2   2    2.28    0.31
   4  -2   2    2.28    0.28
  -5   2  -2    9.13    0.58
  -5   2  -2    8.37    0.52
  -5   2  -2    8.17    0.60
  -5   2  -2    9.25    0.53
  -5   2  -2    8.63    0.55
   5  -2   2    8.85    0.63
  -6   2  -2    9.82    0.65
  -6   2  -2   10.69    0.73
  -6   2  -2    9.42    0.73
  -6   2  -2   10.15    0.60
  -6   2  -2   10.30    0.59
  -7   2  -2    3.29    0.33
  -7   2  -2    4.28    0.41
  -7   2  -2    3.69    0.64
  -7   2  -2    4.50    0.53
   7  -2   2    3.77    0.46
  -8   2  -2   -0.20    0.22
  -8   2  -2    0.34    0.43
  -8   2  -2    1.09    0.44
  -8   2  -2    0.92    0.26
   8  -2   2   -0.09    0.32
  -9   2  -2   -0.13    0.59
  -9   2  -2    0.77    0.46
   9  -2   2    0.13    0.38
   9  -2   2    0.00    0.39
 -10   2  -2   -0.36    0.70
 -10   2  -2    0.17    0.71
  10  -2   2    0.04    0.49
  10  -2   2    1.23    0.61
   9   1  -2    1.98    0.69
   9   1  -2    1.63    1.00
  -9  -1   2    2.00    0.68
  -9  -1   2    4.47    1.52
  -8  -1   2    0.17    0.57
  -8  -1   2    0.52    0.44
   7   1  -2    0.20    0.27
  -7  -1   2   -0.71    0.38
  -7  -1   2   -0.31    0.47
   6   1  -2    1.62    0.34
   6   1  -2    3.18    0.45
  -6  -1   2    2.70    0.45
  -6  -1   2    2.44    0.53
  -6  -1   2    2.25    0.33
   5   1  -2   11.55    0.67
   5   1  -2   11.53    0.68
   5   1  -2   10.66    0.79
   5   1  -2   11.33    0.68
   5   1  -2   11.23    0.62
  -5  -1   2   10.42    0.71
  -5  -1   2   12.66    0.75
  -5  -1   2   12.08    0.83
  -5  -1   2   11.09    0.59
   4   1  -2    1.27    0.26
   4   1  -2    0.86    0.22
   4   1  -2    1.06    0.21
   4   1  -2    1.46    0.26
   4   1  -2    1.48    0.26
   4   1  -2    1.52    0.29
  -4  -1   2    0.80    0.23
  -4  -1   2    1.23    0.28
  -4  -1   2    0.96    0.25
  -4  -1   2    1.15    0.27
  -4  -1   2    1.06    0.20
   3   1  -2    3.09    0.33
   3   1  -2    3.07    0.34
   3   1  -2    3.22    0.28
   3   1  -2    2.73    0.31
   3   1  -2    2.64    0.39
   3   1  -2    2.84    0.27
  -3  -1   2    3.21    0.30
  -3  -1   2    3.11    0.31
  -3  -1   2    2.58    0.33
  -3  -1   2    3.59    0.34
   2   1  -2    1.97    0.19
   2   1  -2    2.19    0.24
   2   1  -2    2.09    0.11
   2   1  -2    1.77    0.25
   2   1  -2    1.50    0.24
   2   1  -2    1.99    0.26
  -2  -1   2    2.06    0.25
  -2  -1   2    2.20    0.24
  -2  -1   2    1.89    0.28
  -2  -1   2    2.12    0.26
  -2  -1   2    1.87    0.21
   1   1  -2   27.05    1.01
   1   1  -2   28.36    1.12
   1   1  -2   27.97    1.13
   1   1  -2   29.11    1.13
   1   1  -2   31.25    1.17
  -1  -1   2   27.17    1.14
  -1  -1   2   26.44    1.12
  -1  -1   2   27.69    1.10
  -1  -1   2   26.54    1.14
   0   1  -2   19.75    0.81
   0   1  -2   18.55    0.80
   0   1  -2   19.52    0.77
   0   1  -2   18.73    0.78
   0   1  -2   19.58    0.79
   0   1  -2   18.41    0.81
   0  -1   2   19.46    0.79
   0  -1   2   19.78    0.78
   0  -1   2   19.08    0.81
   0  -1   2   19.85    0.82
   0  -1   2   19.57    0.80
  -1   1  -2   73.14    2.48
  -1   1  -2   65.92    2.43
  -1   1  -2   73.74    2.48
  -1   1  -2   70.93    2.49
  -1   1  -2   68.03    2.43
  -1   1  -2   68.96    2.39
  -1   1  -2   70.25    2.48
   1  -1   2   65.61    2.41
   1  -1   2   71.20    2.42
   1  -1   2   68.56    2.39
   1  -1   2   70.80    2.48
   1  -1   2   72.57    2.49
  -2   1  -2   12.74    0.50
  -2   1  -2   12.59    0.57
  -2   1  -2   12.18    0.65
  -2   1  -2   12.33    0.48
  -2   1  -2   12.59    0.51
   2  -1   2   13.03    0.54
   2  -1   2   12.90    0.51
   2  -1   2   13.12    0.58
  -3   1  -2   71.34    2.48
  -3   1  -2   73.08    2.61
  -3   1  -2   70.74    2.54
  -3   1  -2   71.35    2.49
  -3   1  -2   72.13    2.63
   3  -1   2   70.81    2.64
   3  -1   2   73.77    2.55
   3  -1   2   73.72    2.58
  -4   1  -2   33.26    1.40
  -4   1  -2   32.66    1.27
  -4   1  -2   33.96    1.36
  -4   1  -2   31.91    1.38
   4  -1   2   33.95    1.43
   4  -1   2   33.82    1.37
  -5   1  -2   40.29    1.46
  -5   1  -2   41.40    1.72
  -5   1  -2   40.97    1.52
  -5   1  -2   42.68    1.65
  -5   1  -2   43.77    1.73
   5  -1   2   35.28    1.79
  -6   1  -2    0.94    0.23
  -6   1  -2    0.95    0.17
  -6   1  -2    1.03    0.33
  -6   1  -2    0.89    0.24
  -6   1  -2    1.06    0.33
   6  -1   2    1.52    0.29
  -7   1  -2   11.99    0.63
  -7   1  -2   12.31    0.64
  -7   1  -2   12.89    0.92
   7  -1   2   11.95    0.71
  -8   1  -2    2.29    0.40
  -8   1  -2    1.26    0.42
  -8   1  -2    1.01    0.52
  -9   1  -2   -0.31    0.51
  -9   1  -2    0.42    0.36
   9  -1   2    0.36    0.40
   9  -1   2    0.18    0.37
 -10   1  -2   -0.79    0.78
  10  -1   2    1.02    0.62
   9   0  -2    3.17    0.56
  -9   0   2    2.85    0.69
  -8   0   2    0.03    0.57
  -7   0   2    1.50    0.30
  -7   0   2    1.53    0.43
  -6   0   2   11.64    0.62
  -6   0   2   12.27    0.90
  -6   0   2   12.41    0.77
   5   0  -2   30.06    1.46
   5   0  -2   28.88    1.22
   5   0  -2   31.08    1.21
   5   0  -2   31.39    1.40
   5   0  -2   28.95    1.40
  -5   0   2   28.60    1.60
  -5   0   2   27.52    1.42
  -5   0   2   32.59    1.35
  -5   0   2   30.30    1.41
  -5   0   2   30.46    1.23
   4   0  -2   54.87    2.21
   4   0  -2   56.55    2.26
   4   0  -2   56.34    2.07
   4   0  -2   57.65    2.09
   4   0  -2   55.73    2.09
   4   0  -2   56.78    2.17
  -4   0   2   58.28    2.24
  -4   0   2   53.72    2.12
  -4   0   2   58.39    2.15
  -4   0   2   55.33    2.23
  -4   0   2   54.47    2.15
   3   0  -2   15.87    0.72
   3   0  -2   15.86    0.81
   3   0  -2   15.07    0.73
   3   0  -2   15.15    0.77
   3   0  -2   16.01    0.70
  -3   0   2   16.46    0.76
  -3   0   2   14.30    0.73
  -3   0   2   15.22    0.78
  -3   0   2   15.89    0.71
   2   0  -2    4.21    0.30
   2   0  -2    4.12    0.30
   2   0  -2    3.89    0.31
   2   0  -2    4.04    0.29
   2   0  -2    3.93    0.27
   2   0  -2    3.32    0.32
  -2   0   2    3.83    0.34
  -2   0   2    4.27    0.34
  -2   0   2    4.16    0.28
  -2   0   2    3.81    0.30
   1   0  -2   57.54    2.04
   1   0  -2   56.58    2.02
   1   0  -2   57.41    2.03
   1   0  -2   55.77    2.05
   1   0  -2   52.72    2.02
  -1   0   2   55.91    2.03
  -1   0   2   55.31    2.04
  -1   0   2   56.28    2.03
  -1   0   2   62.25    2.06
   0   0  -2  242.47    8.28
   0   0  -2  245.58    8.27
   0   0  -2  247.95    8.27
   0   0  -2  248.62    8.26
   0   0   2  252.69    8.28
   0   0   2  251.34    8.28
   0   0   2  254.17    8.23
   0   0   2  235.85    8.26
   0   0   2  249.87    8.26
  -1   0  -2    7.69    0.38
  -1   0  -2    7.07    0.36
  -1   0  -2    7.35    0.37
  -1   0  -2    7.03    0.35
   1   0   2    7.29    0.35
   1   0   2    8.00    0.36
   1   0   2    7.16    0.37
   1   0   2    7.18    0.28
   1   0   2    7.47    0.37
  -2   0  -2  956.24   31.42
  -2   0  -2  902.91   31.08
  -2   0  -2 1000.00   31.69
  -2   0  -2  915.88   31.37
  -2   0  -2  918.29   31.43
   2   0   2  949.89   31.43
   2   0   2  927.71   31.33
   2   0   2  962.48   31.07
   2   0   2  963.09   31.78
   2   0   2  930.52   31.31
  -3   0  -2   42.38    1.56
  -3   0  -2   42.63    1.69
  -3   0  -2   45.80    1.70
  -3   0  -2   43.90    1.56
  -3   0  -2   43.08    1.55
  -3   0  -2   44.04    1.56
   3   0   2   44.66    1.65
   3   0   2   44.25    1.56
  -4   0  -2  323.04   10.96
  -4   0  -2  329.77   10.87
  -4   0  -2  315.15   10.80
  -4   0  -2  332.04   10.97
  -4   0  -2  309.29   10.77
  -4   0  -2  318.80   10.77
   4   0   2  336.65   10.94
   4   0   2  325.49   10.82
  -5   0  -2    2.37    0.35
  -5   0  -2    2.15    0.36
  -5   0  -2    1.92    0.23
  -5   0  -2    2.19    0.29
  -5   0  -2    2.38    0.27
  -5   0  -2    2.47    0.29
  -6   0  -2   10.87    0.76
  -6   0  -2    9.68    0.55
  -6   0  -2   10.41    0.55
  -6   0  -2    9.88    0.70
  -6   0  -2    9.23    0.58
  -6   0  -2    9.05    0.66
   6   0   2    9.10    0.58
  -7   0  -2    1.64    0.42
  -7   0  -2    1.68    0.27
   7   0   2    1.78    0.30
  -8   0  -2    0.13    0.28
  -8   0  -2   -0.57    0.45
   8   0   2   -0.14    0.30
  -9   0  -2   -0.39    0.38
  -9   0  -2   -0.46    0.55
   9   0   2   -0.44    0.38
   9   0   2   -0.39    0.36
 -10   0  -2    1.05    0.69
 -10   0  -2    0.97    0.79
  10   0   2    1.94    0.70
  10   0   2    0.92    0.48
   9  -1  -2    0.75    0.80
   9  -1  -2    0.48    0.59
  -9   1   2   -0.02    0.57
  -9   1   2   -0.91    0.65
   8  -1  -2    4.06    0.52
  -8   1   2    4.14    0.66
  -8   1   2    3.18    0.67
  -7   1   2    0.34    0.41
  -7   1   2    0.55    0.33
  -7   1   2    0.87    0.41
  -6   1   2    6.03    0.53
  -6   1   2    6.25    0.66
   5  -1  -2    1.41    0.32
   5  -1  -2    0.88    0.28
  -5   1   2    1.28    0.23
  -5   1   2    1.45    0.25
  -5   1   2    1.56    0.25
  -5   1   2    1.51    0.30
   4  -1  -2    0.16    0.20
   4  -1  -2    0.25    0.09
   4  -1  -2    0.20    0.18
   4  -1  -2    0.20    0.10
   4  -1  -2    0.21    0.10
   4  -1  -2    0.44    0.21
  -4   1   2    0.10    0.14
  -4   1   2    0.30    0.15
  -4   1   2   -0.10    0.17
  -4   1   2    0.17    0.15
   3  -1  -2   29.80    1.14
   3  -1  -2   30.32    1.12
   3  -1  -2   29.45    1.24
   3  -1  -2   29.84    1.15
   3  -1  -2   30.80    1.33
   3  -1  -2   30.50    1.25
  -3   1   2   32.15    1.27
  -3   1   2   30.34    1.24
  -3   1   2   30.01    1.20
   2  -1  -2   82.25    2.93
   2  -1  -2   85.93    3.01
   2  -1  -2   89.42    2.97
   2  -1  -2   85.37    2.95
   2  -1  -2   86.42    3.01
  -2   1   2   86.62    3.01
  -2   1   2   87.72    2.99
  -2   1   2   83.83    3.01
  -2   1   2   82.68    2.98
   1  -1  -2   28.59    1.07
   1  -1  -2   27.02    1.07
   1  -1  -2   29.00    1.14
   1  -1  -2   29.05    1.11
   1  -1  -2   28.30    1.06
  -1   1   2   28.72    1.10
  -1   1   2   29.02    1.08
  -1   1   2   29.21    1.07
  -1   1   2   27.72    1.14
   0  -1  -2   95.55    3.24
   0  -1  -2   98.41    3.35
   0  -1  -2   93.29    3.32
   0  -1  -2   95.27    3.30
   0  -1  -2  106.94    3.34
   0   1   2   98.79    3.34
   0   1   2  103.04    3.24
   0   1   2   90.30    3.32
   0   1   2   93.15    3.32
  -1  -1  -2   18.35    0.72
  -1  -1  -2   18.56    0.73
  -1  -1  -2   19.19    0.69
  -1  -1  -2   18.61    0.74
  -1  -1  -2   19.36    0.75
   1   1   2   19.27    0.74
   1   1   2   18.40    0.68
   1   1   2   19.29    0.74
   1   1   2   18.10    0.74
  -2  -1  -2  161.05    5.33
  -2  -1  -2  161.50    5.37
  -2  -1  -2  155.93    5.27
  -2  -1  -2  155.96    5.27
  -2  -1  -2  160.89    5.33
   2   1   2  149.96    5.31
   2   1   2  159.63    5.28
   2   1   2  158.74    5.27
   2   1   2  157.56    5.31
  -3  -1  -2    6.54    0.36
  -3  -1  -2    6.53    0.28
  -3  -1  -2    7.40    0.48
  -3  -1  -2    6.83    0.34
  -3  -1  -2    6.64    0.37
   3   1   2    7.05    0.40
   3   1   2    6.52    0.28
   3   1   2    6.15    0.33
   3   1   2    6.56    0.33
  -4  -1  -2   10.26    0.54
  -4  -1  -2   10.62    0.66
   4   1   2   10.55    0.47
   4   1   2   10.64    0.47
   4   1   2   10.88    0.57
   4   1   2   10.23    0.53
  -5  -1  -2    9.99    0.58
  -5  -1  -2   11.48    0.58
  -5  -1  -2   10.94    0.59
  -5  -1  -2   10.07    0.71
  -5  -1  -2   10.66    0.59
   5   1   2    9.83    0.71
   5   1   2   11.30    0.47
   5   1   2   10.83    0.46
  -6  -1  -2    0.70    0.40
  -6  -1  -2    0.97    0.22
  -6  -1  -2    1.07    0.21
  -6  -1  -2    0.67    0.28
  -6  -1  -2    0.79    0.23
   6   1   2    1.47    0.25
  -7  -1  -2    0.78    0.27
  -7  -1  -2    0.26    0.39
   7   1   2    0.56    0.28
  -8  -1  -2   -0.30    0.29
  -8  -1  -2    0.81    0.50
   8   1   2   -0.16    0.32
  -9  -1  -2    2.01    0.48
  -9  -1  -2    1.97    0.65
   9   1   2    1.55    0.42
   9   1   2    1.33    0.40
 -10  -1  -2   -0.17    0.61
 -10  -1  -2   -0.29    0.76
  10   1   2    1.15    0.66
   9  -2  -2   -0.21    0.51
   9  -2  -2    0.07    0.44
  -9   2   2    0.25    0.65
  -9   2   2   -0.18    0.76
   8  -2  -2    0.38    0.55
  -8   2   2    0.25    0.41
  -8   2   2    0.30    0.53
  -7   2   2    0.45    0.30
  -7   2   2    0.32    0.41
   6  -2  -2    5.66    0.44
   6  -2  -2    5.17    0.64
  -6   2   2    6.26    0.54
  -6   2   2    6.03    0.57
  -6   2   2    5.49    0.47
   5  -2  -2   40.56    1.56
  -5   2   2   39.14    1.59
  -5   2   2   41.00    1.59
  -5   2   2   39.10    1.63
  -5   2   2   41.88    1.71
  -5   2   2   39.65    1.60
   4  -2  -2   16.54    0.95
   4  -2  -2   15.62    0.79
   4  -2  -2   16.63    0.88
   4  -2  -2   16.79    0.76
  -4   2   2   17.16    0.76
  -4   2   2   16.27    0.78
  -4   2   2   17.88    0.85
  -4   2   2   16.33    0.79
  -4   2   2   17.19    0.77
   3  -2  -2   50.57    1.90
   3  -2  -2   46.87    1.93
   3  -2  -2   49.63    1.96
   3  -2  -2   51.21    2.00
  -3   2   2   51.16    1.91
  -3   2   2   54.66    1.87
  -3   2   2   51.01    1.92
  -3   2   2   54.20    1.87
  -3   2   2   51.06    1.86
   2  -2  -2   46.17    1.60
   2  -2  -2   45.68    1.65
   2  -2  -2   45.16    1.67
   2  -2  -2   46.72    1.77
  -2   2   2   45.30    1.65
  -2   2   2   45.75    1.61
  -2   2   2   47.06    1.65
  -2   2   2   43.36    1.64
   1  -2  -2    6.21    0.31
   1  -2  -2    6.02    0.31
   1  -2  -2    6.68    0.29
   1  -2  -2    6.34    0.35
  -1   2   2    5.88    0.31
  -1   2   2    6.17    0.33
  -1   2   2    6.37    0.24
  -1   2   2    6.55    0.29
   0  -2  -2  356.92   11.71
   0  -2  -2  338.91   11.71
   0  -2  -2  353.94   11.71
   0   2   2  369.22   11.72
   0   2   2  360.39   11.72
   0   2   2  336.27   11.71
  -1  -2  -2  125.85    4.51
  -1  -2  -2  129.85    4.49
  -1  -2  -2  132.17    4.52
   1   2   2  135.13    4.50
   1   2   2  149.13    4.54
   1   2   2  124.42    4.52
  -2  -2  -2    1.75    0.23
  -2  -2  -2    1.80    0.24
  -2  -2  -2    1.76    0.20
  -2  -2  -2    1.96    0.18
   2   2   2    2.06    0.18
   2   2   2    2.05    0.17
   2   2   2    1.88    0.18
   2   2   2    1.64    0.14
  -3  -2  -2    9.40    0.56
  -3  -2  -2    9.38    0.48
  -3  -2  -2   10.02    0.53
  -3  -2  -2   10.19    0.51
   3   2   2    9.68    0.51
   3   2   2   10.36    0.57
   3   2   2    9.94    0.39
   3   2   2    8.59    0.54
  -4  -2  -2  101.25    3.63
  -4  -2  -2  105.60    3.66
  -4  -2  -2  106.93    3.75
  -4  -2  -2   95.43    3.63
   4   2   2  103.20    3.62
   4   2   2  100.13    3.58
   4   2   2  105.13    3.69
   4   2   2  101.67    3.65
   4   2   2  105.40    3.75
  -5  -2  -2    2.10    0.36
  -5  -2  -2    2.41    0.34
  -5  -2  -2    2.16    0.31
  -5  -2  -2    1.87    0.27
   5   2   2    2.54    0.30
   5   2   2    2.34    0.27
   5   2   2    2.23    0.30
   5   2   2    2.20    0.33
   5   2   2    2.18    0.28
  -6  -2  -2    1.00    0.32
  -6  -2  -2    1.24    0.19
  -6  -2  -2    1.14    0.25
   6   2   2    1.68    0.32
   6   2   2    1.02    0.24
   6   2   2    1.07    0.20
  -7  -2  -2    5.13    0.83
  -7  -2  -2    3.82    0.38
  -7  -2  -2    4.04    0.59
  -7  -2  -2    2.67    0.48
  -7  -2  -2    4.15    0.63
   7   2   2    3.85    0.42
   7   2   2    3.39    0.49
   7   2   2    3.33    0.31
  -8  -2  -2    0.77    0.38
  -8  -2  -2    1.53    0.53
  -9  -2  -2    2.14    0.75
   9   2   2    2.20    0.46
 -10  -2  -2    0.30    0.63
 -10  -2  -2    0.32    0.80
  10   2   2    0.15    0.56
   9  -3  -2    0.31    0.56
  -9   3   2    0.58    0.66
   8  -3  -2    1.88    0.44
  -8   3   2    1.16    0.41
  -7   3   2    0.19    0.39
  -7   3   2    0.38    0.28
   6  -3  -2    1.06    0.33
   6  -3  -2    1.05    0.27
  -6   3   2    1.50    0.31
  -6   3   2    0.91    0.27
  -6   3   2    0.87    0.27
   5  -3  -2   23.35    1.33
   5  -3  -2   23.56    1.10
   5  -3  -2   25.12    1.09
  -5   3   2   24.28    1.03
  -5   3   2   24.23    1.10
  -5   3   2   25.86    1.14
  -5   3   2   23.79    1.02
  -5   3   2   23.93    1.11
  -5   3   2   23.92    1.07
   4  -3  -2   25.57    1.21
   4  -3  -2   25.07    1.17
   4  -3  -2   25.76    1.09
   4  -3  -2   26.05    1.12
  -4   3   2   25.34    1.12
  -4   3   2   23.22    1.01
  -4   3   2   27.39    1.11
  -4   3   2   25.73    1.08
  -4   3   2   26.05    1.11
   3  -3  -2    7.15    0.47
   3  -3  -2    6.18    0.36
   3  -3  -2    6.54    0.44
  -3   3   2    6.39    0.40
  -3   3   2    6.50    0.35
  -3   3   2    6.37    0.37
  -3   3   2    7.26    0.38
  -3   3   2    6.06    0.34
   2  -3  -2   18.55    0.85
   2  -3  -2   18.39    0.73
   2  -3  -2   18.98    0.72
   2  -3  -2   20.58    0.89
  -2   3   2   18.41    0.72
  -2   3   2   19.81    0.89
  -2   3   2   18.90    0.73
  -2   3   2   17.02    0.87
  -2   3   2   19.19    0.76
   1  -3  -2   38.59    1.47
   1  -3  -2   40.03    1.48
   1  -3  -2   36.79    1.37
   1  -3  -2   38.13    1.37
   1  -3  -2   37.31    1.33
  -1   3   2   38.38    1.48
  -1   3   2   36.93    1.39
  -1   3   2   37.17    1.40
   0  -3  -2   35.16    1.27
   0  -3  -2   31.75    1.21
   0  -3  -2   31.37    1.20
   0   3   2   32.12    1.22
   0   3   2   28.63    1.20
  -1  -3  -2    0.48    0.11
  -1  -3  -2    0.29    0.08
   1   3   2    0.03    0.14
   1   3   2    0.26    0.12
   1   3   2    0.18    0.11
   1   3   2    0.29    0.08
  -2  -3  -2    3.50    0.30
  -2  -3  -2    3.24    0.30
  -2  -3  -2    3.37    0.30
  -2  -3  -2    3.66    0.34
   2   3   2    3.87    0.28
   2   3   2    3.55    0.31
   2   3   2    3.32    0.30
   2   3   2    3.66    0.33
  -3  -3  -2    0.81    0.16
  -3  -3  -2    0.56    0.18
  -3  -3  -2    0.82    0.20
  -3  -3  -2    0.90    0.20
   3   3   2    0.70    0.15
   3   3   2    0.68    0.17
   3   3   2    0.58    0.18
   3   3   2    0.75    0.21
  -4  -3  -2    4.88    0.41
  -4  -3  -2    6.14    0.51
  -4  -3  -2    5.28    0.43
  -4  -3  -2    5.67    0.45
   4   3   2    5.36    0.25
   4   3   2    5.21    0.40
   4   3   2    5.46    0.44
   4   3   2    5.79    0.44
   4   3   2    4.59    0.42
   4   3   2    5.41    0.37
  -5  -3  -2    1.50    0.28
  -5  -3  -2    1.27    0.27
  -5  -3  -2    1.20    0.27
  -5  -3  -2    1.16    0.29
   5   3   2    1.62    0.25
   5   3   2    1.99    0.34
   5   3   2    1.38    0.28
   5   3   2    0.77    0.29
   5   3   2    1.67    0.31
  -6  -3  -2    0.49    0.33
  -6  -3  -2   -0.27    0.30
  -6  -3  -2    0.29    0.31
  -6  -3  -2   -0.16    0.25
   6   3   2    0.22    0.22
   6   3   2   -0.23    0.23
   6   3   2    0.09    0.31
  -7  -3  -2    0.64    0.20
  -7  -3  -2    0.26    0.34
   7   3   2    0.14    0.39
   7   3   2    0.61    0.26
   7   3   2    0.88    0.37
  -8  -3  -2    1.38    0.48
  -8  -3  -2    1.47    0.57
   8   3   2    1.25    0.32
  -9  -3  -2   -0.14    0.59
  -9  -3  -2   -0.53    0.67
   9   3   2    0.29    0.45
 -10  -3  -2   -0.07    0.68
 -10  -3  -2   -0.93    0.96
  10   3   2    0.52    0.54
   9  -4  -2    0.52    0.60
  -9   4   2    0.08    0.75
   8  -4  -2   -0.25    0.41
  -8   4   2   -0.16    0.55
  -8   4   2   -0.44    0.62
  -8   4   2    0.57    0.38
   7  -4  -2    4.50    0.60
  -7   4   2    4.50    0.49
  -7   4   2    4.92    0.78
  -7   4   2    4.73    0.66
   6  -4  -2    0.13    0.26
   6  -4  -2   -0.07    0.27
  -6   4   2    0.08    0.27
  -6   4   2   -0.17    0.22
  -6   4   2    0.18    0.20
   5  -4  -2    6.29    0.52
   5  -4  -2    6.65    0.57
  -5   4   2    6.25    0.50
  -5   4   2    6.23    0.58
  -5   4   2    6.39    0.47
  -5   4   2    6.21    0.51
  -5   4   2    6.67    0.43
   4  -4  -2    2.04    0.34
   4  -4  -2    1.68    0.31
  -4   4   2    1.86    0.22
  -4   4   2    1.81    0.28
  -4   4   2    2.30    0.27
  -4   4   2    1.67    0.31
  -4   4   2    1.84    0.31
   3  -4  -2    6.37    0.46
   3  -4  -2    6.32    0.47
  -3   4   2    6.07    0.37
  -3   4   2    6.07    0.42
  -3   4   2    6.16    0.35
  -3   4   2    7.31    0.52
  -3   4   2    6.21    0.38
  -3   4   2    6.31    0.33
   2  -4  -2    9.99    0.46
   2  -4  -2   10.48    0.60
   2  -4  -2    9.00    0.56
  -2   4   2    9.90    0.55
  -2   4   2    9.65    0.58
  -2   4   2    9.72    0.48
  -2   4   2    9.26    0.45
  -2   4   2    9.36    0.46
   1  -4  -2   32.17    1.33
   1  -4  -2   33.77    1.21
   1  -4  -2   33.81    1.21
   1  -4  -2   31.89    1.20
   1  -4  -2   33.13    1.33
   1  -4  -2   30.59    1.31
  -1   4   2   30.96    1.24
  -1   4   2   30.33    1.32
   0  -4  -2    0.33    0.15
   0  -4  -2    0.54    0.14
   0  -4  -2    0.35    0.11
   0  -4  -2    0.51    0.14
   0   4   2    0.50    0.16
   0   4   2    0.54    0.13
   0   4   2    0.48    0.16
  -1  -4  -2  280.94    9.26
  -1  -4  -2  283.91    9.26
  -1  -4  -2  268.55    9.25
  -1  -4  -2  274.15    9.27
  -1  -4  -2  269.67    9.16
   1   4   2  263.81    9.26
   1   4   2  271.76    9.16
   1   4   2  279.46    9.26
   1   4   2  275.22    9.28
  -2  -4  -2   49.53    1.85
  -2  -4  -2   47.71    1.88
  -2  -4  -2   48.01    1.87
  -2  -4  -2   47.80    1.88
   2   4   2   49.65    1.89
   2   4   2   46.33    1.82
   2   4   2   50.64    1.88
   2   4   2   48.29    1.90
  -3  -4  -2   11.46    0.64
  -3  -4  -2    9.17    0.59
  -3  -4  -2   10.13    0.61
  -3  -4  -2    9.50    0.59
   3   4   2   10.33    0.53
   3   4   2    9.99    0.58
   3   4   2   10.06    0.61
   3   4   2   10.05    0.57
   3   4   2    9.47    0.60
  -4  -4  -2    6.86    0.52
  -4  -4  -2    6.67    0.48
  -4  -4  -2    7.19    0.55
  -4  -4  -2    5.38    0.47
   4   4   2    6.60    0.55
   4   4   2    6.77    0.53
   4   4   2    5.59    0.44
   4   4   2    6.97    0.48
   4   4   2    6.26    0.36
   4   4   2    6.76    0.55
  -5  -4  -2   43.94    1.91
  -5  -4  -2   46.35    1.96
  -5  -4  -2   44.76    1.94
  -5  -4  -2   49.39    2.04
   5   4   2   47.41    1.63
   5   4   2   45.66    1.92
   5   4   2   48.27    1.99
   5   4   2   44.65    1.88
   5   4   2   47.09    1.92
  -6  -4  -2    0.04    0.26
  -6  -4  -2    0.00    0.36
   6   4   2    0.11    0.27
   6   4   2    0.17    0.47
  -7  -4  -2    0.78    0.46
  -7  -4  -2    1.69    0.45
   7   4   2    2.28    0.42
   7   4   2    1.61    0.38
  -8  -4  -2   -1.01    0.54
  -8  -4  -2    0.72    0.50
   8   4   2    0.29    0.36
  -9  -4  -2    1.97    0.65
  -9  -4  -2    1.75    0.78
   9   4   2    1.70    0.55
  -9   5   2    1.69    0.85
   8  -5  -2   -0.30    0.47
  -8   5   2    0.46    0.50
  -8   5   2    0.03    0.50
  -8   5   2   -0.18    0.66
   7  -5  -2    0.67    0.40
  -7   5   2    0.82    0.51
  -7   5   2    0.88    0.42
  -7   5   2    0.65    0.32
   6  -5  -2    1.46    0.36
   6  -5  -2    0.88    0.31
  -6   5   2    1.50    0.46
  -6   5   2    1.25    0.26
  -6   5   2    1.17    0.31
   5  -5  -2    1.95    0.36
   5  -5  -2    1.06    0.33
  -5   5   2    1.36    0.25
  -5   5   2    2.03    0.43
  -5   5   2    1.12    0.35
  -5   5   2    1.49    0.23
   4  -5  -2    0.00    0.17
   4  -5  -2    0.22    0.23
   4  -5  -2    0.03    0.23
  -4   5   2    0.32    0.18
  -4   5   2    0.20    0.24
  -4   5   2   -0.23    0.15
  -4   5   2   -0.12    0.12
  -4   5   2   -0.27    0.18
  -4   5   2   -0.21    0.25
   3  -5  -2    0.77    0.23
   3  -5  -2    0.60    0.18
   3  -5  -2    0.60    0.20
  -3   5   2    0.91    0.19
  -3   5   2    0.75    0.18
  -3   5   2    0.76    0.25
  -3   5   2    0.88    0.17
  -3   5   2    0.81    0.27
   2  -5  -2    1.85    0.27
   2  -5  -2    2.30    0.31
   2  -5  -2    1.83    0.30
  -2   5   2    2.32    0.23
  -2   5   2    2.47    0.29
  -2   5   2    1.95    0.31
  -2   5   2    2.06    0.29
   1  -5  -2   13.87    0.74
   1  -5  -2   13.12    0.71
   1  -5  -2   12.82    0.60
   1  -5  -2   11.62    0.64
   1  -5  -2   13.27    0.71
  -1   5   2   12.65    0.66
  -1   5   2   12.72    0.63
  -1   5   2   13.88    0.73
   0  -5  -2   43.61    1.74
   0  -5  -2   42.88    1.54
   0  -5  -2   42.43    1.74
   0  -5  -2   41.71    1.67
   0  -5  -2   46.51    1.75
   0  -5  -2   42.37    1.74
   0   5   2   45.00    1.70
   0   5   2   43.69    1.76
   0   5   2   45.29    1.73
   0   5   2   42.34    1.53
  -1  -5  -2  130.98    4.63
  -1  -5  -2  128.08    4.62
  -1  -5  -2  139.74    4.68
  -1  -5  -2  125.37    4.52
  -1  -5  -2  131.34    4.63
   1   5   2  142.17    4.75
   1   5   2  127.54    4.51
   1   5   2  134.66    4.64
   1   5   2  124.60    4.66
  -2  -5  -2   10.66    0.62
  -2  -5  -2   10.20    0.58
  -2  -5  -2    9.86    0.59
  -2  -5  -2    9.96    0.59
  -2  -5  -2    9.36    0.57
   2   5   2    9.57    0.57
   2   5   2    8.96    0.59
   2   5   2   10.33    0.57
   2   5   2   10.14    0.63
  -3  -5  -2   32.26    1.33
  -3  -5  -2   28.76    1.36
  -3  -5  -2   29.71    1.40
  -3  -5  -2   30.39    1.40
  -3  -5  -2   32.43    1.41
   3   5   2   31.56    1.43
   3   5   2   30.95    1.37
   3   5   2   32.69    1.39
   3   5   2   34.91    1.33
   3   5   2   35.04    1.47
  -4  -5  -2   36.25    1.59
  -4  -5  -2   35.74    1.47
  -4  -5  -2   31.40    1.53
  -4  -5  -2   34.55    1.52
  -4  -5  -2   33.66    1.55
   4   5   2   34.57    1.56
   4   5   2   33.98    1.49
   4   5   2   33.46    1.37
   4   5   2   36.35    1.57
   4   5   2   33.63    1.53
  -5  -5  -2    2.28    0.39
  -5  -5  -2    1.92    0.45
  -5  -5  -2    1.90    0.32
   5   5   2    2.12    0.34
   5   5   2    2.05    0.28
   5   5   2    1.38    0.39
   5   5   2    2.53    0.44
  -6  -5  -2    0.41    0.41
  -6  -5  -2    1.00    0.40
  -6  -5  -2    0.61    0.22
   6   5   2   -0.03    0.40
   6   5   2   -0.12    0.32
  -7  -5  -2    1.95    0.52
  -7  -5  -2    1.36    0.54
  -7  -5  -2    1.79    0.31
   7   5   2    1.52    0.43
  -8  -5  -2    0.53    0.57
  -8  -5  -2    0.78    0.58
   8   5   2    0.25    0.48
  -9  -5  -2   -0.45    0.65
  -9  -5  -2   -0.38    0.82
   9   5   2   -0.94    0.67
   9   5   2    1.03    0.89
  -9   6   2    1.31    0.93
   8  -6  -2   -1.68    0.88
  -8   6   2    0.92    0.69
  -8   6   2    0.07    0.61
   7  -6  -2    1.19    0.48
  -7   6   2    0.77    0.55
  -7   6   2   -0.12    0.37
  -7   6   2   -0.51    0.31
   6  -6  -2    9.03    0.78
  -6   6   2    7.39    0.82
  -6   6   2    7.45    0.54
  -6   6   2    8.11    0.61
   5  -6  -2    1.51    0.40
   5  -6  -2    1.49    0.30
  -5   6   2    2.01    0.32
  -5   6   2    2.13    0.32
  -5   6   2    2.72    0.42
  -5   6   2    2.04    0.47
   4  -6  -2    0.33    0.22
   4  -6  -2    0.30    0.25
   4  -6  -2    0.83    0.27
  -4   6   2    0.63    0.37
  -4   6   2    0.92    0.33
  -4   6   2    0.75    0.21
  -4   6   2    0.52    0.18
   3  -6  -2    2.76    0.34
   3  -6  -2    2.65    0.35
   3  -6  -2    3.72    0.43
  -3   6   2    3.37    0.42
  -3   6   2    3.26    0.34
  -3   6   2    2.65    0.41
  -3   6   2    3.30    0.30
   2  -6  -2    7.91    0.60
   2  -6  -2    8.30    0.58
   2  -6  -2    7.99    0.56
   2  -6  -2    8.37    0.52
  -2   6   2    7.86    0.49
  -2   6   2    8.16    0.56
  -2   6   2    8.51    0.60
  -2   6   2    7.47    0.60
   1  -6  -2   10.55    0.81
   1  -6  -2   10.90    0.56
   1  -6  -2   11.00    0.69
   1  -6  -2   10.74    0.67
   1  -6  -2   11.06    0.57
   1  -6  -2   10.31    0.64
  -1   6   2   10.76    0.62
  -1   6   2   10.69    0.60
  -1   6   2   10.90    0.68
   0  -6  -2   15.30    0.75
   0  -6  -2   15.02    0.76
   0  -6  -2   14.49    0.81
   0  -6  -2   13.79    0.79
   0  -6  -2   14.90    0.62
   0   6   2   15.99    0.85
   0   6   2   14.41    0.77
   0   6   2   15.42    0.82
  -1  -6  -2   20.02    0.86
  -1  -6  -2   20.12    0.97
  -1  -6  -2   19.89    0.95
  -1  -6  -2   18.94    0.96
  -1  -6  -2   19.23    0.95
   1   6   2   18.17    0.92
   1   6   2   19.08    1.00
   1   6   2   17.84    0.94
   1   6   2   18.89    0.84
  -2  -6  -2    8.40    0.60
  -2  -6  -2    9.80    0.65
  -2  -6  -2    8.99    0.60
  -2  -6  -2    9.73    0.60
  -2  -6  -2    9.25    0.58
   2   6   2    9.24    0.67
   2   6   2   10.32    0.58
   2   6   2    9.12    0.64
   2   6   2    9.69    0.62
   2   6   2    8.68    0.58
  -3  -6  -2    7.94    0.61
  -3  -6  -2    6.61    0.56
  -3  -6  -2    7.81    0.55
  -3  -6  -2    6.98    0.58
  -3  -6  -2    9.18    0.59
   3   6   2    7.24    0.58
   3   6   2    8.63    0.65
   3   6   2    8.18    0.64
   3   6   2    8.41    0.55
   3   6   2    7.58    0.53
  -4  -6  -2    8.51    0.61
  -4  -6  -2    9.10    0.69
  -4  -6  -2    9.63    0.72
   4   6   2    9.19    0.73
   4   6   2    8.56    0.57
   4   6   2    9.29    0.58
   4   6   2    9.28    0.72
   4   6   2    8.36    0.68
  -5  -6  -2   26.63    1.36
  -5  -6  -2   29.92    1.45
  -5  -6  -2   25.55    1.40
   5   6   2   25.87    1.16
   5   6   2   25.53    1.38
   5   6   2   28.81    1.45
  -6  -6  -2   38.51    1.89
  -6  -6  -2   36.76    1.82
  -6  -6  -2   34.15    1.46
   6   6   2   37.13    1.78
   6   6   2   36.15    1.93
  -7  -6  -2    0.68    0.51
  -7  -6  -2   -0.02    0.47
   7   6   2    0.50    0.49
  -8  -6  -2    2.98    0.74
  -8  -6  -2    3.79    0.73
  -9  -6  -2   -0.58    0.97
  -9  -6  -2    0.23    0.79
   9   6   2    1.18    0.87
   9   6   2    1.77    0.77
   8  -7  -2    0.20    0.61
  -8   7   2    0.20    0.82
   7  -7  -2   11.43    1.05
  -7   7   2    9.09    1.14
  -7   7   2    9.81    1.10
  -6   7   2   33.27    1.40
  -6   7   2   33.08    1.37
  -6   7   2   36.08    1.84
   5  -7  -2   -0.05    0.29
   5  -7  -2    0.60    0.29
   5  -7  -2    0.07    0.44
  -5   7   2    0.64    0.24
  -5   7   2    0.30    0.46
   4  -7  -2    9.52    0.75
   4  -7  -2    8.74    0.61
  -4   7   2    8.39    0.52
  -4   7   2    8.23    0.73
  -4   7   2    7.79    0.56
   3  -7  -2   16.63    0.87
   3  -7  -2   16.87    1.02
  -3   7   2   17.50    0.89
  -3   7   2   17.53    1.03
   2  -7  -2    9.79    0.62
   2  -7  -2    9.58    0.69
   2  -7  -2    9.45    0.69
   2  -7  -2    9.08    0.48
   2  -7  -2    9.60    0.74
  -2   7   2    9.33    0.63
  -2   7   2    8.85    0.70
  -2   7   2    8.83    0.57
   1  -7  -2    7.92    0.50
   1  -7  -2    7.92    0.50
   1  -7  -2    8.66    0.57
   1  -7  -2    7.47    0.61
   1  -7  -2    7.66    0.63
   1  -7  -2    8.09    0.58
  -1   7   2    7.53    0.64
  -1   7   2    9.34    0.61
  -1   7   2    8.14    0.56
   0  -7  -2    1.96    0.34
   0  -7  -2    2.10    0.24
   0  -7  -2    2.43    0.41
   0  -7  -2    2.58    0.35
   0  -7  -2    2.07    0.36
   0   7   2    3.04    0.41
   0   7   2    2.21    0.24
   0   7   2    3.00    0.42
  -1  -7  -2    1.80    0.32
  -1  -7  -2    1.90    0.29
  -1  -7  -2    2.04    0.34
  -1  -7  -2    1.78    0.34
  -1  -7  -2    1.44    0.30
   1   7   2    2.05    0.36
   1   7   2    1.65    0.29
   1   7   2    2.86    0.45
   1   7   2    1.80    0.26
   1   7   2    1.71    0.35
  -2  -7  -2    3.86    0.40
  -2  -7  -2    4.27    0.41
  -2  -7  -2    4.12    0.48
  -2  -7  -2    3.85    0.49
   2   7   2    3.83    0.42
   2   7   2    3.41    0.51
   2   7   2    4.17    0.52
   2   7   2    3.75    0.49
  -3  -7  -2    5.50    0.56
  -3  -7  -2    6.37    0.55
  -3  -7  -2    5.46    0.59
   3   7   2    6.12    0.65
   3   7   2    6.49    0.65
   3   7   2    6.35    0.63
   3   7   2    6.41    0.55
  -4  -7  -2    3.91    0.65
  -4  -7  -2    3.40    0.54
  -4  -7  -2    4.36    0.47
   4   7   2    4.43    0.62
   4   7   2    4.76    0.67
   4   7   2    4.60    0.50
  -5  -7  -2   32.19    1.69
  -5  -7  -2   32.31    1.45
  -5  -7  -2   34.18    1.76
   5   7   2   36.01    2.11
   5   7   2   32.99    1.44
   5   7   2   33.40    1.72
  -6  -7  -2    3.15    0.50
  -6  -7  -2    3.44    0.66
  -6  -7  -2    2.67    0.63
   6   7   2    2.25    0.57
   6   7   2    2.36    0.35
   6   7   2    2.49    0.53
  -7  -7  -2    9.51    1.18
  -7  -7  -2   10.78    1.10
   7   7   2   11.19    1.18
   7   7   2    8.62    1.02
  -8  -7  -2    0.30    0.67
  -8  -7  -2   -0.66    0.72
   8   7   2    1.70    0.75
   8   7   2    1.36    0.71
   8  -8  -2    0.95    0.73
  -8   8   2    0.01    0.82
  -8   8   2    0.20    0.83
   7  -8  -2    4.88    0.74
  -7   8   2    4.38    0.82
  -7   8   2    4.57    0.82
   6  -8  -2    0.02    0.52
  -6   8   2    0.93    0.55
  -6   8   2    0.40    0.34
  -6   8   2    0.41    0.58
   5  -8  -2    3.89    0.66
   5  -8  -2    3.23    0.45
  -5   8   2    2.13    0.60
  -5   8   2    3.49    0.65
  -5   8   2    2.76    0.49
   4  -8  -2    1.49    0.35
   4  -8  -2    1.64    0.60
  -4   8   2    1.14    0.48
  -4   8   2    1.53    0.34
   3  -8  -2    0.49    0.35
   3  -8  -2    0.62    0.27
  -3   8   2   -0.36    0.37
  -3   8   2    0.07    0.25
   2  -8  -2    9.00    0.63
   2  -8  -2    8.49    0.42
   2  -8  -2    8.44    0.44
   2  -8  -2    9.83    0.76
  -2   8   2    7.46    0.74
  -2   8   2    8.80    0.66
   1  -8  -2   10.66    0.76
   1  -8  -2    9.15    0.59
   1  -8  -2    9.96    0.69
   1  -8  -2    9.87    0.59
  -1   8   2    8.42    0.78
  -1   8   2   10.80    0.69
  -1   8   2    9.59    0.69
   0  -8  -2    7.71    0.66
   0  -8  -2    8.03    0.56
   0  -8  -2    6.44    0.58
   0   8   2    8.55    0.78
   0   8   2    5.96    0.67
   0   8   2    7.79    0.71
   0   8   2    8.69    0.70
  -1  -8  -2    5.39    0.62
  -1  -8  -2    5.89    0.58
  -1  -8  -2    5.97    0.56
  -1  -8  -2    5.94    0.47
   1   8   2    5.08    0.64
   1   8   2    6.78    0.66
   1   8   2    5.98    0.61
  -2  -8  -2    1.93    0.34
  -2  -8  -2    1.63    0.43
  -2  -8  -2    2.16    0.40
   2   8   2    2.27    0.48
   2   8   2    1.75    0.41
  -3  -8  -2   11.50    0.78
  -3  -8  -2   10.39    0.73
  -3  -8  -2   10.82    0.85
   3   8   2    7.93    0.76
   3   8   2   10.60    0.91
   3   8   2    9.50    0.85
   3   8   2   10.02    0.79
  -4  -8  -2    4.75    0.58
  -4  -8  -2    6.06    0.73
  -4  -8  -2    6.37    0.73
   4   8   2    6.03    0.78
   4   8   2    6.44    0.62
   4   8   2    5.93    0.77
  -5  -8  -2    0.93    0.33
  -5  -8  -2    1.26    0.48
  -5  -8  -2    1.24    0.52
   5   8   2    0.88    0.36
   5   8   2    2.01    0.59
   5   8   2    0.79    0.54
  -6  -8  -2    3.48    0.59
  -6  -8  -2    4.61    0.77
   6   8   2    4.78    0.77
   6   8   2    3.87    0.64
   6   8   2    3.89    0.67
  -7  -8  -2   -0.41    0.67
  -7  -8  -2   -0.85    0.60
   7   8   2    1.59    0.66
   7   8   2    0.44    0.70
   7  -9  -2    1.57    0.68
  -7   9   2    1.10    0.84
  -7   9   2    0.57    0.78
   6  -9  -2    2.00    0.64
   6  -9  -2    1.74    0.56
  -6   9   2    2.11    0.68
  -6   9   2    2.64    0.70
   5  -9  -2   -0.61    0.51
   5  -9  -2    0.27    0.41
  -5   9   2   -0.29    0.38
  -5   9   2    0.21    0.57
  -5   9   2   -1.04    0.50
   4  -9  -2    2.05    0.53
   4  -9  -2    2.55    0.49
  -4   9   2    2.08    0.54
  -4   9   2    2.90    0.45
  -4   9   2    2.23    0.61
   3  -9  -2   12.60    1.03
   3  -9  -2   12.34    0.83
  -3   9   2   11.53    0.85
  -3   9   2   11.69    0.81
  -3   9   2   12.16    1.03
   2  -9  -2   21.88    1.14
   2  -9  -2   19.56    0.84
  -2   9   2   21.49    1.15
  -2   9   2   19.90    1.28
   1  -9  -2    0.43    0.24
   1  -9  -2    0.50    0.30
   1  -9  -2    0.24    0.37
   1  -9  -2    0.76    0.41
  -1   9   2    0.45    0.42
  -1   9   2    0.65    0.42
  -1   9   2    0.41    0.37
   0  -9  -2   19.22    1.02
   0  -9  -2   18.11    0.87
   0  -9  -2   18.42    1.08
   0  -9  -2   18.94    1.00
   0  -9  -2   18.18    1.13
   0   9   2   19.34    1.20
   0   9   2   18.22    1.12
   0   9   2   17.61    0.91
   0   9   2   19.85    1.23
  -1  -9  -2    3.27    0.52
  -1  -9  -2    3.28    0.42
  -1  -9  -2    3.84    0.54
   1   9   2    3.35    0.60
   1   9   2    2.91    0.53
   1   9   2    3.38    0.57
  -2  -9  -2    1.73    0.41
  -2  -9  -2    1.14    0.30
  -2  -9  -2    1.41    0.41
   2   9   2    1.37    0.48
   2   9   2    0.39    0.50
   2   9   2    0.70    0.42
  -3  -9  -2    7.51    0.73
  -3  -9  -2    7.31    0.73
  -3  -9  -2    7.59    0.78
   3   9   2    6.69    0.82
   3   9   2    5.97    0.85
   3   9   2    7.62    0.84
  -4  -9  -2    0.15    0.44
  -4  -9  -2    0.70    0.44
  -4  -9  -2   -0.11    0.36
   4   9   2    0.55    0.54
   4   9   2   -0.90    0.48
   4   9   2   -0.21    0.40
  -5  -9  -2    2.68    0.58
  -5  -9  -2    2.69    0.65
  -5  -9  -2    2.27    0.48
   5   9   2    1.31    0.62
   5   9   2    1.65    0.70
   5   9   2    2.51    0.51
  -6  -9  -2    0.16    0.61
  -6  -9  -2    0.97    0.64
   6   9   2   -0.79    0.68
   6   9   2    0.36    0.67
  -7  -9  -2    1.08    0.80
  -7  -9  -2    1.60    0.90
   7   9   2    2.19    0.87
   6 -10  -2   -0.86    0.64
   6 -10  -2    1.26    0.71
  -6  10   2    0.50    0.78
  -6  10   2    0.07    0.81
   5 -10  -2    1.22    0.61
   5 -10  -2    0.98    0.54
  -5  10   2    1.09    1.46
  -5  10   2    2.02    0.52
  -5  10   2    1.37    0.68
   4 -10  -2    0.12    0.52
   4 -10  -2    0.53    0.45
  -4  10   2    0.81    0.46
  -4  10   2   -0.58    0.65
  -4  10   2    0.81    0.58
   3 -10  -2    3.85    0.66
  -3  10   2    3.97    0.68
  -3  10   2    3.84    0.73
   2 -10  -2    2.82    0.50
   2 -10  -2    1.04    0.48
   2 -10  -2    2.03    0.29
  -2  10   2    1.66    0.54
  -2  10   2    1.55    0.56
  -2  10   2    2.93    0.58
   1 -10  -2    3.30    0.49
   1 -10  -2    3.96    0.66
   1 -10  -2    2.68    0.55
  -1  10   2    2.94    0.63
  -1  10   2    4.72    0.79
  -1  10   2    3.58    0.64
   0 -10  -2    0.68    0.43
   0 -10  -2    1.33    0.28
   0 -10  -2    0.48    0.76
   0 -10  -2    1.37    0.49
   0  10   2    0.95    0.49
   0  10   2    1.13    0.50
   0  10   2    1.09    0.52
   0  10   2    1.57    0.51
  -1 -10  -2    1.95    0.45
  -1 -10  -2    1.33    0.56
  -1 -10  -2    1.09    0.33
   1  10   2    0.95    0.53
   1  10   2    1.23    0.51
   1  10   2    0.05    0.55
  -2 -10  -2    0.09    0.42
  -2 -10  -2    0.71    0.48
  -2 -10  -2    0.22    0.36
   2  10   2   -0.35    0.53
   2  10   2   -0.69    0.48
   2  10   2    0.55    0.58
   2  10   2    0.62    0.54
  -3 -10  -2    1.08    0.49
  -3 -10  -2    2.17    0.58
  -3 -10  -2    0.29    0.49
   3  10   2    0.45    0.59
   3  10   2    2.11    0.67
  -4 -10  -2   -0.05    0.56
  -4 -10  -2    0.34    0.49
  -4 -10  -2   -0.06    0.50
   4  10   2    0.27    0.65
   4  10   2   -0.28    0.58
   4  10   2    0.61    0.69
  -5 -10  -2    0.64    0.64
  -5 -10  -2    1.28    0.73
  -5 -10  -2    1.15    0.58
   5  10   2    1.39    0.80
   5  10   2    0.21    0.73
   5  10   2    0.49    0.64
  -6 -10  -2   -0.64    0.78
  -6 -10  -2   -0.64    0.71
   6  10   2   -0.69    0.87
   6  10   2    0.82    0.97
  -6  11   2    1.24    0.95
   5 -11  -2   -0.01    0.73
   5 -11  -2   -0.38    0.65
  -5  11   2    0.51    0.77
   4 -11  -2    0.93    0.63
   4 -11  -2    1.84    0.68
  -4  11   2    2.61    0.91
  -4  11   2    1.62    0.76
   3 -11  -2    0.92    0.58
  -3  11   2    0.68    0.64
  -3  11   2   -0.62    0.53
  -3  11   2    0.72    0.78
   2 -11  -2    2.52    0.64
  -2  11   2    1.86    0.66
  -2  11   2    2.52    0.59
  -2  11   2    3.21    0.70
   1 -11  -2    0.81    0.52
   1 -11  -2    0.37    0.36
   1 -11  -2    1.86    0.59
  -1  11   2    1.26    0.56
  -1  11   2    1.67    0.62
  -1  11   2    1.17    0.60
   0 -11  -2   -0.91    0.48
   0 -11  -2    0.51    0.42
   0 -11  -2    0.98    0.52
   0  11   2   -0.36    0.62
   0  11   2    0.27    0.58
   0  11   2   -0.55    0.58
  -1 -11  -2   -0.54    0.48
  -1 -11  -2   -0.70    0.37
  -1 -11  -2    0.13    0.52
   1  11   2   -0.84    0.62
   1  11   2    0.78    0.57
   1  11   2   -0.06    0.61
  -2 -11  -2    1.37    0.55
  -2 -11  -2   -0.05    0.45
  -2 -11  -2    0.08    0.53
   2  11   2    0.29    0.66
   2  11   2    0.66    0.60
   2  11   2    0.40    0.61
  -3 -11  -2    0.70    0.55
  -3 -11  -2    0.62    0.61
  -3 -11  -2   -0.15    0.54
   3  11   2    0.05    0.61
   3  11   2    1.14    0.68
   3  11   2   -0.38    0.68
  -4 -11  -2    5.06    0.78
  -4 -11  -2    3.88    0.74
  -4 -11  -2    5.08    0.84
   4  11   2    2.44    0.90
   4  11   2    3.30    0.84
   4  11   2    2.71    0.73
  -5 -11  -2   -0.72    0.74
  -5 -11  -2    0.61    0.86
   5  11   2   -0.64    1.07
   5  11   2    0.60    1.12
   4 -12  -2   -0.33    0.76
   4 -12  -2    0.99    0.73
  -4  12   2    1.67    0.88
  -4  12   2    0.40    0.72
  -4  12   2    0.02    0.97
   3 -12  -2    2.65    0.81
   3 -12  -2    2.19    0.65
  -3  12   2    2.45    0.91
  -3  12   2    1.79    0.86
  -3  12   2    0.81    0.72
   2 -12  -2    2.52    0.64
   2 -12  -2    1.97    0.70
  -2  12   2    2.11    0.79
  -2  12   2    1.96    0.71
  -2  12   2    1.75    0.80
   1 -12  -2    0.50    0.65
   1 -12  -2    1.55    0.57
  -1  12   2    0.59    0.68
  -1  12   2    1.95    0.79
  -1  12   2    1.14    0.71
   0 -12  -2    2.37    0.62
   0 -12  -2    2.85    0.82
   0 -12  -2    2.47    0.70
   0  12   2    1.35    0.76
   0  12   2    2.29    0.82
   0  12   2    1.47    0.81
  -1 -12  -2    0.02    0.63
  -1 -12  -2    0.74    0.61
  -1 -12  -2    0.37    0.63
   1  12   2    0.10    0.79
   1  12   2    0.78    0.71
   1  12   2    0.41    0.78
  -2 -12  -2    1.90    0.71
   2  12   2    0.91    0.84
   2  12   2    1.26    0.79
   2  12   2    1.05    0.74
  -3 -12  -2   -0.52    0.71
   3  12   2    0.60    0.97
   3  12   2    1.22    1.11
   1 -13  -2   -0.11    0.85
   1 -13  -2    0.72    0.82
  -1  13   2    0.75    1.28
  -1  13   2   -1.85    1.01
   0 -13  -2    0.13    0.78
   0  13   2   -0.57    0.87
   0  11  -3    0.59    0.95
  -1  11  -3    1.50    0.96
  -1  11  -3    0.99    0.94
  -1  11  -3   -0.05    0.98
   1 -11   3    0.33    0.87
   1 -11   3    1.36    0.78
  -2  11  -3    1.98    1.03
  -2  11  -3    0.29    0.81
  -2  11  -3    0.99    0.92
   2 -11   3    2.26    0.89
   2 -11   3    2.36    1.13
  -3  11  -3   -0.57    0.77
  -3  11  -3   -0.37    0.88
   3 -11   3    0.47    0.84
   3 -11   3   -0.06    0.80
   2  10  -3   -0.09    1.01
   2  10  -3    1.28    0.98
   2  10  -3    1.06    0.79
  -2 -10   3   -0.42    0.74
   1  10  -3    1.49    0.87
   1  10  -3   -0.70    0.80
   1  10  -3    1.11    0.70
  -1 -10   3   -0.55    0.61
  -1 -10   3    0.08    0.72
  -1 -10   3    0.51    0.62
  -1 -10   3    0.43    0.63
   0  10  -3    0.69    0.74
   0  10  -3    0.97    0.75
   0  10  -3    0.67    0.66
   0 -10   3    1.03    0.61
   0 -10   3    0.01    0.55
   0 -10   3   -0.45    0.59
   0 -10   3    0.53    0.65
  -1  10  -3   -0.59    0.66
  -1  10  -3   -0.24    0.71
  -1  10  -3    1.57    0.76
   1 -10   3   -0.72    0.62
   1 -10   3    1.25    0.72
   1 -10   3    0.28    0.62
  -2  10  -3    0.19    0.68
  -2  10  -3   -0.62    0.70
  -2  10  -3    0.26    0.63
   2 -10   3   -0.08    0.67
   2 -10   3    1.62    0.62
  -3  10  -3    2.94    0.71
  -3  10  -3    1.53    0.69
  -3  10  -3    1.94    0.76
   3 -10   3    1.46    0.70
   3 -10   3    1.89    0.64
  -4  10  -3   -0.87    0.64
  -4  10  -3   -0.80    0.67
  -4  10  -3    0.56    0.73
   4 -10   3    2.05    0.70
   4 -10   3    0.80    0.64
  -5  10  -3   -1.33    0.79
  -5  10  -3   -0.12    0.88
  -5  10  -3   -0.22    0.80
   5 -10   3   -0.17    0.69
   5 -10   3   -1.26    0.80
   4   9  -3    4.00    0.97
   4   9  -3    1.97    1.13
   4   9  -3    1.75    1.12
   4   9  -3    3.08    0.85
  -4  -9   3    2.44    0.85
  -4  -9   3    1.79    0.80
   3   9  -3    1.93    0.79
   3   9  -3    3.09    0.76
   3   9  -3    3.45    0.79
  -3  -9   3    2.90    0.74
  -3  -9   3    1.27    0.68
   2   9  -3    0.66    0.67
   2   9  -3   -0.36    0.60
   2   9  -3    0.61    0.68
  -2  -9   3    0.12    0.57
  -2  -9   3   -0.40    0.60
  -2  -9   3    1.89    0.58
   1   9  -3    0.39    0.63
   1   9  -3    0.06    0.61
   1   9  -3    0.83    0.60
  -1  -9   3    0.89    0.50
  -1  -9   3    0.97    0.59
  -1  -9   3    0.89    0.50
  -1  -9   3    0.76    0.77
   0   9  -3    0.29    0.52
   0   9  -3    0.72    0.59
   0   9  -3    0.38    0.61
   0  -9   3    1.64    0.60
   0  -9   3    1.07    0.55
   0  -9   3    0.16    0.48
  -1   9  -3    1.15    0.55
  -1   9  -3    0.70    0.53
  -1   9  -3    0.82    0.64
   1  -9   3   -0.48    0.52
   1  -9   3    1.01    0.53
  -2   9  -3    1.82    0.60
  -2   9  -3    1.06    0.54
  -2   9  -3    1.44    0.60
   2  -9   3    2.80    0.59
   2  -9   3    1.12    0.56
  -3   9  -3   -1.03    0.54
  -3   9  -3   -0.45    0.63
  -3   9  -3    0.08    0.51
   3  -9   3    0.04    0.52
   3  -9   3    0.52    0.53
  -4   9  -3    1.05    0.65
  -4   9  -3    0.64    0.63
  -4   9  -3   -0.44    0.48
   4  -9   3    0.37    0.55
   4  -9   3    0.63    0.54
  -5   9  -3    0.38    0.53
  -5   9  -3   -0.29    0.61
  -5   9  -3    1.11    0.74
   5  -9   3    0.21    0.65
   5  -9   3    1.32    0.62
  -6   9  -3    1.19    0.71
  -6   9  -3    1.79    0.75
   6  -9   3    0.69    0.69
   6  -9   3    1.26    0.69
  -7   9  -3   -0.61    0.86
   7  -9   3    0.31    0.78
   5   8  -3    0.05    0.76
   5   8  -3    0.94    0.80
  -5  -8   3   -1.61    0.79
  -5  -8   3   -1.22    0.74
   4   8  -3   -0.31    0.67
   4   8  -3    0.47    0.63
   4   8  -3   -0.30    0.71
   4   8  -3   -0.32    0.63
  -4  -8   3   -0.56    0.68
  -4  -8   3   -0.38    0.61
   3   8  -3   -0.47    0.58
   3   8  -3    0.93    0.65
   3   8  -3   -0.31    0.60
  -3  -8   3   -0.26    0.57
  -3  -8   3    1.56    0.58
   2   8  -3    4.84    0.76
   2   8  -3    4.82    0.75
   2   8  -3    6.59    0.95
  -2  -8   3    4.98    0.88
  -2  -8   3    4.98    0.86
   1   8  -3    2.70    0.59
   1   8  -3    2.95    0.62
   1   8  -3    2.43    0.61
  -1  -8   3    2.59    0.47
  -1  -8   3    2.27    0.62
  -1  -8   3    1.52    0.55
  -1  -8   3    2.70    0.59
   0   8  -3    0.38    0.48
   0   8  -3   -0.24    0.43
   0   8  -3   -0.01    0.44
   0  -8   3   -0.36    0.36
   0  -8   3    0.21    0.43
   0  -8   3    0.87    0.39
   0  -8   3    0.26    0.42
  -1   8  -3   -0.38    0.44
  -1   8  -3    0.49    0.51
   1  -8   3    0.53    0.40
   1  -8   3   -0.19    0.31
   1  -8   3   -0.32    0.42
   1  -8   3   -0.59    0.46
  -2   8  -3    7.80    0.87
  -2   8  -3    9.08    0.84
  -2   8  -3    9.16    0.95
   2  -8   3    8.68    0.87
   2  -8   3    9.53    0.94
  -3   8  -3    0.84    0.40
  -3   8  -3   -0.73    0.41
  -3   8  -3    0.63    0.54
  -3   8  -3    0.95    0.46
   3  -8   3   -0.27    0.46
   3  -8   3   -0.63    0.45
  -4   8  -3    0.85    0.48
  -4   8  -3    1.60    0.48
  -4   8  -3    1.39    0.40
  -4   8  -3    2.44    0.63
   4  -8   3    0.98    0.50
   4  -8   3    0.85    0.51
  -5   8  -3    0.17    0.48
  -5   8  -3   -0.02    0.57
  -5   8  -3   -0.41    0.39
   5  -8   3   -0.19    0.51
  -6   8  -3   -0.35    0.45
  -6   8  -3    0.40    0.59
  -6   8  -3    1.63    0.66
   6  -8   3    1.43    0.60
   6  -8   3    0.43    0.59
  -7   8  -3   -1.38    0.70
  -7   8  -3   -0.31    0.64
   7  -8   3   -0.05    0.70
  -8   8  -3   -1.03    0.83
   8  -8   3    1.45    0.86
   6   7  -3    1.69    0.92
   6   7  -3    1.32    0.79
  -6  -7   3    0.99    0.99
  -6  -7   3    1.16    0.90
   5   7  -3    0.31    0.53
   5   7  -3    0.11    0.63
   5   7  -3    0.51    0.71
  -5  -7   3    1.19    0.64
  -5  -7   3    1.76    0.72
   4   7  -3    5.53    0.89
   4   7  -3    5.47    0.88
   4   7  -3    4.42    0.79
   4   7  -3    4.04    0.77
  -4  -7   3    3.82    0.64
  -4  -7   3    4.84    0.76
   3   7  -3    2.42    0.58
   3   7  -3    1.77    0.55
   3   7  -3    1.33    0.51
  -3  -7   3    1.78    0.53
  -3  -7   3    2.89    0.57
   2   7  -3   -0.55    0.44
   2   7  -3    0.06    0.41
   2   7  -3    0.01    0.50
  -2  -7   3   -0.55    0.65
  -2  -7   3   -0.10    0.45
   1   7  -3    3.73    0.62
   1   7  -3    4.48    0.73
   1   7  -3    4.85    0.68
   1   7  -3    4.01    0.70
  -1  -7   3    3.84    0.56
  -1  -7   3    5.70    0.71
  -1  -7   3    4.67    0.74
  -1  -7   3    4.42    0.59
   0   7  -3    3.96    0.62
   0   7  -3    4.17    0.68
   0   7  -3    4.11    0.62
   0  -7   3    4.33    0.55
   0  -7   3    5.55    0.63
   0  -7   3    4.51    0.71
   0  -7   3    4.63    0.62
  -1   7  -3   44.28    1.96
  -1   7  -3   42.52    1.96
  -1   7  -3   43.90    2.08
  -1   7  -3   38.81    1.87
   1  -7   3   43.80    2.15
   1  -7   3   43.71    1.82
   1  -7   3   43.82    1.95
   1  -7   3   46.05    2.08
  -2   7  -3   12.98    1.29
  -2   7  -3   12.01    0.88
  -2   7  -3   10.02    0.81
  -2   7  -3   11.10    0.84
   2  -7   3   10.50    0.65
   2  -7   3   12.70    0.92
   2  -7   3   11.69    0.92
  -3   7  -3   19.79    1.09
  -3   7  -3   18.18    1.00
  -3   7  -3   19.98    1.27
  -3   7  -3   18.28    1.02
  -3   7  -3   19.06    1.05
   3  -7   3   19.39    1.21
   3  -7   3   20.57    1.25
   3  -7   3   19.66    1.26
  -4   7  -3    5.61    0.68
  -4   7  -3    5.51    0.54
   4  -7   3    3.88    0.66
   4  -7   3    4.60    1.07
   4  -7   3    5.48    0.72
  -5   7  -3    1.79    0.62
  -5   7  -3    2.21    0.58
  -5   7  -3    1.76    0.35
   5  -7   3    2.21    0.55
   5  -7   3    1.62    0.52
  -6   7  -3    0.21    0.30
  -6   7  -3    0.29    0.52
  -6   7  -3    0.21    0.42
   6  -7   3   -0.01    0.48
  -7   7  -3   -0.37    0.50
  -7   7  -3   -1.04    0.61
  -7   7  -3   -0.08    0.51
   7  -7   3    0.99    0.60
  -8   7  -3   -0.90    0.70
  -8   7  -3    0.95    0.71
   8  -7   3   -0.36    0.63
   6   6  -3    1.60    0.65
   6   6  -3    0.54    0.69
  -6  -6   3    1.72    0.79
  -6  -6   3    0.14    0.67
   5   6  -3    1.63    0.59
   5   6  -3    1.39    0.59
   5   6  -3    1.07    0.48
  -5  -6   3    1.09    0.54
  -5  -6   3    2.12    0.67
   4   6  -3    1.42    0.51
   4   6  -3    1.41    0.58
   4   6  -3    2.18    0.48
  -4  -6   3    2.70    0.59
  -4  -6   3    3.24    0.59
   3   6  -3    8.01    0.78
   3   6  -3    7.67    0.86
   3   6  -3    9.96    0.87
  -3  -6   3    7.11    0.86
   2   6  -3   12.56    0.94
   2   6  -3   13.26    1.00
   2   6  -3   12.71    0.79
   2   6  -3   12.43    0.97
  -2  -6   3   12.39    0.92
  -2  -6   3   12.65    0.99
   1   6  -3    5.23    0.63
   1   6  -3    5.08    0.53
   1   6  -3    6.41    0.72
   1   6  -3    5.88    0.73
  -1  -6   3    5.04    0.63
  -1  -6   3    5.21    0.66
  -1  -6   3    6.30    0.54
   0   6  -3    6.88    0.57
   0   6  -3    6.04    0.67
   0   6  -3    6.08    0.62
   0   6  -3    6.23    0.61
   0   6  -3    6.41    0.66
   0  -6   3    6.22    0.63
   0  -6   3    6.56    0.58
   0  -6   3    5.45    0.61
   0  -6   3    7.22    0.59
   0  -6   3    7.48    0.66
  -1   6  -3    5.58    0.57
  -1   6  -3    5.34    0.63
  -1   6  -3    5.85    0.60
  -1   6  -3    4.50    0.55
  -1   6  -3    5.78    0.59
  -1   6  -3    6.08    0.56
   1  -6   3    6.09    0.50
   1  -6   3    5.67    0.58
   1  -6   3    5.64    0.60
   1  -6   3    5.68    0.57
   1  -6   3    5.55    0.58
  -2   6  -3   34.71    1.69
  -2   6  -3   33.87    1.54
  -2   6  -3   36.40    1.57
  -2   6  -3   32.19    1.50
  -2   6  -3   33.93    1.49
   2  -6   3   35.63    1.55
   2  -6   3   35.17    1.67
   2  -6   3   36.42    1.40
   2  -6   3   36.23    1.64
  -3   6  -3    8.15    0.79
  -3   6  -3    8.59    0.65
  -3   6  -3    7.15    0.62
  -3   6  -3    9.43    0.60
   3  -6   3    8.03    0.63
   3  -6   3    8.12    0.73
   3  -6   3    9.12    0.72
  -4   6  -3    0.36    0.26
  -4   6  -3    0.32    0.23
  -4   6  -3   -0.49    0.36
   4  -6   3    0.45    0.33
   4  -6   3   -0.39    0.30
   4  -6   3   -0.25    0.35
  -5   6  -3    0.23    0.37
  -5   6  -3   -0.03    0.31
  -5   6  -3   -0.10    0.22
  -5   6  -3    0.08    0.41
   5  -6   3    0.29    0.29
   5  -6   3    0.70    0.39
  -6   6  -3    2.61    0.38
  -6   6  -3    1.63    0.51
  -6   6  -3    1.77    0.38
   6  -6   3    3.09    0.42
   6  -6   3    3.68    0.64
  -7   6  -3   -0.72    0.50
  -7   6  -3   -0.14    0.43
  -7   6  -3    0.07    0.41
   7  -6   3   -0.43    0.48
  -8   6  -3   -0.49    0.60
  -8   6  -3   -0.02    0.51
  -8   6  -3   -0.12    0.57
   8  -6   3   -0.14    0.63
  -9   6  -3   -0.77    0.72
   9  -6   3    0.03    0.53
   7   5  -3    0.81    0.68
  -7  -5   3    1.18    0.78
  -7  -5   3    0.07    0.89
   6   5  -3    1.08    0.56
   6   5  -3    0.95    0.66
   6   5  -3    1.00    0.73
  -6  -5   3    0.59    0.61
  -6  -5   3    1.29    0.62
   5   5  -3    2.53    0.46
   5   5  -3    2.04    0.54
   5   5  -3    3.68    0.56
  -5  -5   3    3.64    0.65
  -5  -5   3    2.66    0.59
   4   5  -3   -0.07    0.34
   4   5  -3    0.52    0.29
  -4  -5   3    0.18    0.40
  -4  -5   3    0.34    0.44
  -4  -5   3    0.87    0.41
   3   5  -3    2.73    0.49
   3   5  -3    2.28    0.49
   3   5  -3    2.54    0.46
  -3  -5   3    2.47    0.46
  -3  -5   3    3.03    0.55
  -3  -5   3    2.65    0.61
   2   5  -3    0.89    0.22
   2   5  -3    0.23    0.31
   2   5  -3    0.65    0.38
   2   5  -3    0.26    0.34
  -2  -5   3    0.50    0.28
  -2  -5   3    0.81    0.31
  -2  -5   3    0.75    0.29
   1   5  -3    0.85    0.30
   1   5  -3    0.63    0.30
   1   5  -3    1.33    0.32
   1   5  -3    1.13    0.23
   1   5  -3    0.84    0.31
  -1  -5   3    0.56    0.28
  -1  -5   3    0.54    0.30
  -1  -5   3    0.93    0.30
  -1  -5   3    0.88    0.32
  -1  -5   3    0.80    0.33
  -1  -5   3    0.54    0.20
   0   5  -3   10.70    0.67
   0   5  -3   10.96    0.69
   0   5  -3   11.59    0.78
   0   5  -3   10.94    0.71
   0   5  -3   10.49    0.75
   0   5  -3   10.79    0.70
   0  -5   3   11.85    0.72
   0  -5   3   10.41    0.67
   0  -5   3   11.12    0.72
   0  -5   3   11.14    0.69
   0  -5   3    9.66    0.70
   0  -5   3    9.96    0.64
   0  -5   3   12.43    0.78
  -1   5  -3   31.93    1.38
  -1   5  -3   31.59    1.39
  -1   5  -3   30.06    1.38
  -1   5  -3   31.78    1.51
  -1   5  -3   28.94    1.41
  -1   5  -3   33.90    1.43
   1  -5   3   31.45    1.40
   1  -5   3   30.33    1.33
   1  -5   3   32.43    1.43
   1  -5   3   32.12    1.35
   1  -5   3   33.82    1.52
   1  -5   3   33.20    1.51
   1  -5   3   31.25    1.41
  -2   5  -3    0.43    0.22
  -2   5  -3    0.29    0.19
  -2   5  -3    0.84    0.28
  -2   5  -3    0.35    0.23
  -2   5  -3    0.66    0.27
  -2   5  -3    0.61    0.21
   2  -5   3    0.25    0.27
   2  -5   3    0.40    0.16
   2  -5   3    0.25    0.24
   2  -5   3    0.53    0.18
   2  -5   3    0.63    0.23
   2  -5   3    0.52    0.27
  -3   5  -3    0.69    0.23
  -3   5  -3    0.73    0.20
  -3   5  -3    0.86    0.46
  -3   5  -3    0.84    0.31
  -3   5  -3    0.84    0.29
  -3   5  -3    0.17    0.21
   3  -5   3    0.25    0.24
   3  -5   3    0.52    0.30
   3  -5   3    0.34    0.24
   3  -5   3    0.52    0.22
  -4   5  -3    1.79    0.36
  -4   5  -3    1.18    0.29
  -4   5  -3    1.34    0.31
  -4   5  -3    1.49    0.26
   4  -5   3    0.84    0.34
   4  -5   3    1.89    0.27
   4  -5   3    1.47    0.27
  -5   5  -3    8.24    0.73
  -5   5  -3    8.05    0.57
  -5   5  -3    6.48    0.46
  -5   5  -3    7.47    0.48
   5  -5   3    8.27    0.73
   5  -5   3    6.74    0.79
  -6   5  -3    2.18    0.40
  -6   5  -3    1.78    0.33
  -6   5  -3    0.92    0.40
   6  -5   3    1.42    0.47
  -7   5  -3    1.06    0.43
  -7   5  -3    1.11    0.35
  -7   5  -3    1.44    0.45
   7  -5   3    0.78    0.56
  -8   5  -3    1.60    0.51
  -8   5  -3    1.29    0.57
  -8   5  -3    1.59    0.46
  -9   5  -3    0.02    0.67
   9  -5   3    0.01    0.46
   7   4  -3    3.47    0.66
   7   4  -3    3.83    0.66
  -7  -4   3    2.96    0.70
  -7  -4   3    3.15    0.78
   6   4  -3    2.29    0.42
   6   4  -3    2.58    0.68
  -6  -4   3    1.25    0.60
  -6  -4   3    2.63    0.60
   5   4  -3   13.92    0.87
   5   4  -3   14.48    1.04
  -5  -4   3   16.13    1.13
  -5  -4   3   14.97    1.03
   4   4  -3    3.10    0.38
   4   4  -3    2.91    0.49
   4   4  -3    3.43    0.54
  -4  -4   3    3.24    0.52
  -4  -4   3    3.71    0.62
   3   4  -3   19.87    1.18
   3   4  -3   20.12    0.84
   3   4  -3   18.74    1.14
   3   4  -3   21.74    1.10
  -3  -4   3   23.93    1.21
  -3  -4   3   20.68    1.19
   2   4  -3    1.39    0.35
   2   4  -3    1.33    0.20
   2   4  -3    1.82    0.33
   2   4  -3    1.71    0.34
   2   4  -3    1.24    0.31
   2   4  -3    1.77    0.35
  -2  -4   3    1.31    0.33
  -2  -4   3    1.86    0.35
  -2  -4   3    1.22    0.32
  -2  -4   3    1.88    0.38
  -2  -4   3    1.34    0.27
   1   4  -3    0.45    0.24
   1   4  -3    0.88    0.37
   1   4  -3    0.50    0.23
   1   4  -3    0.96    0.25
   1   4  -3    1.04    0.19
   1   4  -3    1.15    0.29
  -1  -4   3    1.32    0.25
  -1  -4   3    0.88    0.24
  -1  -4   3    1.07    0.25
  -1  -4   3    1.13    0.24
  -1  -4   3    0.96    0.26
   0   4  -3   25.45    1.16
   0   4  -3   27.04    1.14
   0   4  -3   24.97    1.17
   0   4  -3   24.70    1.18
   0   4  -3   26.73    1.21
   0   4  -3   25.30    1.22
   0  -4   3   25.75    1.22
   0  -4   3   24.23    1.21
   0  -4   3   27.52    1.19
   0  -4   3   26.60    1.22
   0  -4   3   25.95    1.14
   0  -4   3   23.02    1.13
   0  -4   3   26.57    1.17
  -1   4  -3   47.27    1.90
  -1   4  -3   50.39    2.03
  -1   4  -3   46.17    1.90
  -1   4  -3   49.13    1.93
  -1   4  -3   50.07    1.91
  -1   4  -3   49.40    1.91
   1  -4   3   47.92    1.88
   1  -4   3   48.10    1.86
   1  -4   3   47.03    1.92
   1  -4   3   51.53    1.95
   1  -4   3   46.79    1.97
   1  -4   3   45.22    1.96
   1  -4   3   49.01    1.87
  -2   4  -3    1.75    0.29
  -2   4  -3    1.84    0.27
  -2   4  -3    2.09    0.29
  -2   4  -3    1.29    0.24
  -2   4  -3    1.64    0.28
  -2   4  -3    1.24    0.27
   2  -4   3    1.52    0.26
   2  -4   3    1.96    0.23
   2  -4   3    1.80    0.26
   2  -4   3    1.43    0.30
   2  -4   3    2.06    0.31
   2  -4   3    2.06    0.33
  -3   4  -3    8.19    0.52
  -3   4  -3    8.51    0.49
  -3   4  -3    7.56    0.51
  -3   4  -3    8.83    0.62
  -3   4  -3    8.31    0.61
  -3   4  -3    8.22    0.51
  -3   4  -3    9.39    0.60
   3  -4   3    8.19    0.60
   3  -4   3    9.29    0.56
   3  -4   3    8.17    0.57
   3  -4   3    8.42    0.62
  -4   4  -3    3.68    0.34
  -4   4  -3    3.34    0.47
  -4   4  -3    3.92    0.46
  -4   4  -3    2.89    0.31
  -4   4  -3    3.11    0.46
  -4   4  -3    3.83    0.36
   4  -4   3    4.06    0.34
   4  -4   3    3.41    0.32
   4  -4   3    3.71    0.47
  -5   4  -3    0.23    0.13
  -5   4  -3   -0.15    0.19
  -5   4  -3   -0.09    0.26
   5  -4   3    0.03    0.28
   5  -4   3    0.44    0.33
  -6   4  -3   -0.15    0.30
  -6   4  -3    0.53    0.30
   6  -4   3    0.06    0.35
   6  -4   3    0.60    0.28
  -7   4  -3    8.47    0.79
  -7   4  -3    6.57    0.67
  -7   4  -3    8.41    0.62
   7  -4   3    7.91    1.12
  -8   4  -3   -0.97    0.48
  -8   4  -3    0.42    0.37
  -8   4  -3    0.33    0.39
  -9   4  -3    0.05    0.58
  -9   4  -3    0.38    0.68
   9  -4   3    0.34    0.48
 -10   4  -3   -0.16    0.77
  10  -4   3    0.76    0.60
  -8  -3   3    0.84    0.73
  -8  -3   3   -0.40    0.87
   7   3  -3   -0.45    0.51
  -7  -3   3   -0.94    0.59
  -7  -3   3    0.26    0.58
   6   3  -3    1.59    0.44
   6   3  -3    1.63    0.35
  -6  -3   3    1.79    0.54
  -6  -3   3    1.66    0.48
   5   3  -3   -0.21    0.26
   5   3  -3   -0.19    0.35
  -5  -3   3    0.06    0.40
   4   3  -3    2.38    0.41
   4   3  -3    2.26    0.35
   4   3  -3    2.02    0.40
  -4  -3   3    2.24    0.41
  -4  -3   3    1.73    0.43
   3   3  -3    4.25    0.23
   3   3  -3    4.71    0.49
   3   3  -3    3.40    0.44
   3   3  -3    4.51    0.45
   3   3  -3    3.63    0.34
   3   3  -3    3.89    0.51
  -3  -3   3    4.42    0.51
  -3  -3   3    3.11    0.43
  -3  -3   3    3.15    0.46
  -3  -3   3    3.85    0.44
  -3  -3   3    3.57    0.49
   2   3  -3    5.28    0.47
   2   3  -3    5.52    0.48
   2   3  -3    4.47    0.45
   2   3  -3    4.44    0.44
   2   3  -3    4.29    0.47
   2   3  -3    4.73    0.29
   2   3  -3    4.22    0.40
  -2  -3   3    3.62    0.42
  -2  -3   3    4.74    0.44
  -2  -3   3    4.35    0.46
  -2  -3   3    4.55    0.44
  -2  -3   3    4.09    0.42
   1   3  -3    6.07    0.44
   1   3  -3    5.82    0.48
   1   3  -3    6.35    0.48
   1   3  -3    5.86    0.49
   1   3  -3    6.66    0.40
   1   3  -3    6.42    0.46
  -1  -3   3    6.89    0.48
  -1  -3   3    6.92    0.74
  -1  -3   3    6.54    0.45
  -1  -3   3    6.51    0.48
  -1  -3   3    5.98    0.51
   0   3  -3   49.58    1.99
   0   3  -3   49.92    1.93
   0   3  -3   48.92    1.97
   0   3  -3   50.53    1.93
   0   3  -3   48.39    1.94
   0   3  -3   50.89    1.89
   0  -3   3   50.18    1.93
   0  -3   3   47.10    1.91
   0  -3   3   49.67    1.98
   0  -3   3   50.79    1.91
   0  -3   3   50.75    1.97
   0  -3   3   45.87    1.98
  -1   3  -3   50.67    1.95
  -1   3  -3   49.60    2.00
  -1   3  -3   51.69    1.94
  -1   3  -3   53.55    1.92
  -1   3  -3   49.77    1.90
  -1   3  -3   49.24    1.92
   1  -3   3   46.61    1.93
   1  -3   3   49.19    1.88
   1  -3   3   46.55    1.87
   1  -3   3   51.68    2.00
   1  -3   3   50.44    1.99
   1  -3   3   49.92    1.89
  -2   3  -3   21.94    1.06
  -2   3  -3   21.36    0.93
  -2   3  -3   21.71    1.03
  -2   3  -3   22.21    1.00
  -2   3  -3   21.36    1.17
  -2   3  -3   22.66    0.97
   2  -3   3   21.84    0.88
   2  -3   3   21.34    1.05
   2  -3   3   22.17    1.05
   2  -3   3   24.75    0.94
   2  -3   3   21.50    0.87
  -3   3  -3   23.60    1.09
  -3   3  -3   23.39    1.09
  -3   3  -3   21.89    1.06
  -3   3  -3   22.46    1.13
  -3   3  -3   23.00    0.93
   3  -3   3   22.30    1.06
   3  -3   3   23.42    1.11
   3  -3   3   23.08    0.93
  -4   3  -3    3.15    0.23
  -4   3  -3    2.71    0.35
  -4   3  -3    3.00    0.37
   4  -3   3    3.10    0.27
   4  -3   3    2.21    0.39
   4  -3   3    2.77    0.36
  -5   3  -3    8.36    0.66
  -5   3  -3    8.95    0.53
  -5   3  -3    9.04    0.63
  -5   3  -3    9.12    0.65
   5  -3   3    9.86    0.73
   5  -3   3    7.90    0.57
  -6   3  -3   18.64    0.88
  -6   3  -3   19.11    1.06
  -6   3  -3   19.25    0.97
   6  -3   3   16.82    0.81
   6  -3   3   19.85    1.11
  -7   3  -3   -0.05    0.26
  -7   3  -3   -0.08    0.25
  -7   3  -3   -0.28    0.14
  -7   3  -3   -0.35    0.33
  -8   3  -3    0.21    0.31
  -8   3  -3   -0.06    0.24
  -8   3  -3   -0.27    0.47
  -8   3  -3    0.25    0.36
  -9   3  -3   -0.34    0.57
  -9   3  -3   -0.03    0.45
   9  -3   3    0.11    0.45
 -10   3  -3    0.19    0.76
  10  -3   3   -0.06    0.62
   8   2  -3    1.10    0.69
  -8  -2   3    1.83    0.82
  -8  -2   3    0.34    0.67
   7   2  -3    2.63    0.51
  -7  -2   3    3.24    0.66
  -7  -2   3    2.10    0.56
   6   2  -3    0.22    0.28
   6   2  -3    0.06    0.39
  -6  -2   3   -0.16    0.46
   5   2  -3    7.32    0.56
   5   2  -3    7.05    0.58
   5   2  -3    6.73    0.70
  -5  -2   3    7.24    0.75
  -5  -2   3    7.27    0.71
   4   2  -3    2.02    0.32
   4   2  -3    3.05    0.44
   4   2  -3    2.05    0.36
   4   2  -3    2.01    0.39
  -4  -2   3    2.72    0.45
  -4  -2   3    1.68    0.33
  -4  -2   3    1.84    0.62
   3   2  -3    2.21    0.27
   3   2  -3    2.55    0.33
   3   2  -3    1.89    0.32
   3   2  -3    1.97    0.34
   3   2  -3    1.98    0.35
  -3  -2   3    1.83    0.33
  -3  -2   3    2.51    0.38
  -3  -2   3    2.15    0.38
  -3  -2   3    2.57    0.34
  -3  -2   3    2.15    0.37
   2   2  -3    8.23    0.38
   2   2  -3    6.93    0.52
   2   2  -3    7.68    0.56
   2   2  -3    8.31    0.55
   2   2  -3    9.14    0.55
   2   2  -3    9.39    0.53
  -2  -2   3    6.98    0.51
  -2  -2   3    8.27    0.54
  -2  -2   3    7.31    0.56
  -2  -2   3    7.70    0.54
  -2  -2   3    7.46    0.51
   1   2  -3    2.61    0.31
   1   2  -3    1.97    0.20
   1   2  -3    1.73    0.28
   1   2  -3    2.17    0.28
   1   2  -3    2.92    0.32
   1   2  -3    2.52    0.27
   1   2  -3    1.72    0.28
  -1  -2   3    2.13    0.27
  -1  -2   3    1.70    0.24
  -1  -2   3    2.32    0.28
  -1  -2   3    2.10    0.28
  -1  -2   3    2.05    0.33
   0   2  -3  157.73    5.38
   0   2  -3  160.04    5.37
   0   2  -3  153.32    5.33
   0   2  -3  163.97    5.45
   0   2  -3  156.10    5.41
   0   2  -3  155.92    5.41
   0  -2   3  156.45    5.42
   0  -2   3  148.27    5.34
   0  -2   3  155.01    5.39
   0  -2   3  151.63    5.37
   0  -2   3  160.05    5.39
   0  -2   3  147.03    5.40
  -1   2  -3    4.68    0.30
  -1   2  -3    3.91    0.29
  -1   2  -3    3.43    0.35
  -1   2  -3    4.62    0.36
  -1   2  -3    3.94    0.33
  -1   2  -3    3.63    0.32
  -1   2  -3    4.06    0.32
   1  -2   3    4.35    0.35
   1  -2   3    4.36    0.35
   1  -2   3    3.66    0.27
   1  -2   3    4.21    0.31
  -2   2  -3   26.82    1.16
  -2   2  -3   27.91    1.20
  -2   2  -3   28.20    1.05
  -2   2  -3   29.07    1.20
  -2   2  -3   28.70    1.10
  -2   2  -3   28.63    1.19
   2  -2   3   26.96    1.04
   2  -2   3   28.07    1.04
   2  -2   3   27.38    1.04
   2  -2   3   26.90    1.03
   2  -2   3   26.56    1.19
   2  -2   3   26.92    1.16
  -3   2  -3    2.04    0.30
  -3   2  -3    2.62    0.31
  -3   2  -3    2.33    0.18
  -3   2  -3    2.03    0.19
  -3   2  -3    2.14    0.21
  -3   2  -3    2.31    0.28
   3  -2   3    2.15    0.26
   3  -2   3    2.29    0.23
   3  -2   3    2.29    0.18
   3  -2   3    2.09    0.31
  -4   2  -3   13.96    0.75
  -4   2  -3   14.03    0.59
  -4   2  -3   12.95    0.58
  -4   2  -3   13.74    0.73
  -4   2  -3   15.33    0.75
   4  -2   3   15.00    0.82
   4  -2   3   14.25    0.72
  -5   2  -3    8.07    0.52
  -5   2  -3    7.32    0.54
  -5   2  -3    7.19    0.54
   5  -2   3    6.73    0.46
   5  -2   3    7.60    0.59
  -6   2  -3   -0.13    0.29
  -6   2  -3    0.39    0.20
  -6   2  -3    0.05    0.16
  -6   2  -3    0.27    0.20
  -6   2  -3   -0.08    0.28
   6  -2   3    0.10    0.19
  -7   2  -3    1.09    0.38
  -7   2  -3    0.61    0.24
  -7   2  -3    0.57    0.21
  -7   2  -3    0.90    0.22
  -7   2  -3    0.95    0.30
  -8   2  -3    0.46    0.23
  -8   2  -3    0.75    0.50
  -8   2  -3    1.11    0.38
  -8   2  -3    0.79    0.26
   8  -2   3    0.79    0.30
  -9   2  -3   -0.56    0.55
  -9   2  -3    0.13    0.43
   9  -2   3    0.32    0.42
 -10   2  -3    1.54    0.72
  10  -2   3    0.39    0.60
   8   1  -3    1.23    0.62
  -8  -1   3    1.86    0.66
  -8  -1   3    2.64    0.70
   7   1  -3   -0.11    0.33
  -7  -1   3    0.22    0.52
  -7  -1   3   -0.31    0.39
   6   1  -3    1.27    0.34
  -6  -1   3    1.20    0.41
  -6  -1   3    2.49    0.82
   5   1  -3    0.24    0.20
   5   1  -3   -0.56    0.33
   5   1  -3    0.00    0.25
  -5  -1   3    0.67    0.33
  -5  -1   3    0.08    0.28
   4   1  -3   15.30    0.98
   4   1  -3   15.99    0.79
   4   1  -3   14.80    0.82
   4   1  -3   12.64    0.84
   4   1  -3   14.72    0.78
  -4  -1   3   15.74    0.89
  -4  -1   3   13.93    0.82
  -4  -1   3   14.10    0.75
  -4  -1   3   15.26    0.90
  -4  -1   3   13.86    0.81
   3   1  -3    3.26    0.31
   3   1  -3    3.30    0.36
   3   1  -3    3.38    0.35
   3   1  -3    3.12    0.35
   3   1  -3    3.16    0.38
   3   1  -3    3.46    0.39
  -3  -1   3    2.66    0.36
  -3  -1   3    2.60    0.37
  -3  -1   3    2.36    0.31
  -3  -1   3    3.66    0.34
  -3  -1   3    3.18    0.37
   2   1  -3   20.33    1.01
   2   1  -3   22.37    1.00
   2   1  -3   21.86    0.97
   2   1  -3   21.08    1.01
   2   1  -3   22.17    1.01
   2   1  -3   20.64    0.80
  -2  -1   3   20.98    1.01
  -2  -1   3   21.91    1.01
  -2  -1   3   22.69    1.07
  -2  -1   3   21.62    1.04
  -2  -1   3   20.54    0.96
   1   1  -3    1.11    0.18
   1   1  -3    1.25    0.22
   1   1  -3    1.43    0.24
   1   1  -3    1.61    0.21
   1   1  -3    1.26    0.23
  -1  -1   3    1.03    0.20
  -1  -1   3    1.15    0.20
  -1  -1   3    1.47    0.22
  -1  -1   3    1.44    0.23
  -1  -1   3    0.86    0.21
   0   1  -3    0.36    0.15
   0   1  -3    0.20    0.13
   0   1  -3    0.27    0.12
   0   1  -3    0.25    0.12
   0   1  -3    0.54    0.14
   0  -1   3    0.34    0.13
   0  -1   3    0.29    0.13
   0  -1   3    0.44    0.10
   0  -1   3    0.33    0.14
   0  -1   3    0.22    0.14
  -1   1  -3  109.24    4.04
  -1   1  -3  112.95    3.90
  -1   1  -3  114.61    4.03
  -1   1  -3  120.98    4.01
  -1   1  -3  115.03    4.01
   1  -1   3  114.39    3.90
   1  -1   3  118.81    4.03
   1  -1   3  115.93    4.00
   1  -1   3  114.71    3.96
   1  -1   3  112.71    3.97
  -2   1  -3   73.33    2.59
  -2   1  -3   73.04    2.60
  -2   1  -3   73.95    2.51
  -2   1  -3   69.95    2.51
  -2   1  -3   67.85    2.57
  -2   1  -3   69.97    2.40
   2  -1   3   69.38    2.59
   2  -1   3   73.28    2.48
   2  -1   3   68.07    2.56
   2  -1   3   73.16    2.48
   2  -1   3   69.65    2.46
  -3   1  -3    1.64    0.26
  -3   1  -3    1.71    0.25
  -3   1  -3    1.79    0.16
  -3   1  -3    1.64    0.17
  -3   1  -3    1.63    0.24
   3  -1   3    2.01    0.21
   3  -1   3    1.19    0.19
   3  -1   3    1.73    0.27
  -4   1  -3   19.08    0.87
  -4   1  -3   17.51    0.89
  -4   1  -3   17.08    0.71
  -4   1  -3   17.15    0.68
  -4   1  -3   18.26    0.82
  -4   1  -3   17.09    0.71
   4  -1   3   18.37    0.79
   4  -1   3   17.38    0.82
   4  -1   3   16.88    0.89
  -5   1  -3  117.62    3.97
  -5   1  -3  112.24    4.08
  -5   1  -3  114.03    4.14
  -5   1  -3  118.22    4.18
  -5   1  -3  109.71    3.88
   5  -1   3  108.04    4.09
  -6   1  -3   12.55    0.73
  -6   1  -3   13.95    0.87
  -6   1  -3   13.88    0.78
  -6   1  -3   12.79    0.60
  -6   1  -3   12.89    0.65
  -6   1  -3   13.07    0.66
   6  -1   3   12.60    0.63
   6  -1   3   12.85    0.81
  -7   1  -3    1.65    0.25
  -7   1  -3    1.71    0.29
  -7   1  -3    1.11    0.39
  -7   1  -3    1.65    0.30
  -8   1  -3   -0.49    0.23
   8  -1   3    0.40    0.29
  -9   1  -3    0.65    0.35
  -9   1  -3    1.12    0.60
   9  -1   3    1.03    0.39
 -10   1  -3    1.61    0.76
  10  -1   3    1.21    0.61
   9   0  -3   -0.11    0.60
   9   0  -3    0.04    1.03
  -9   0   3   -0.26    0.86
  -9   0   3    0.16    0.69
   8   0  -3    5.62    0.66
  -8   0   3    4.13    0.72
  -8   0   3    5.07    0.82
  -7   0   3   20.74    1.37
  -7   0   3   19.89    1.24
   6   0  -3    0.24    0.26
   6   0  -3    0.79    0.26
  -6   0   3    0.75    0.44
  -6   0   3    0.81    0.33
  -6   0   3    1.39    0.27
   5   0  -3    1.23    0.26
   5   0  -3    1.29    0.25
  -5   0   3    0.84    0.32
  -5   0   3    1.53    0.36
  -5   0   3    0.61    0.23
   4   0  -3   22.53    1.46
   4   0  -3   26.66    1.10
   4   0  -3   26.27    1.14
   4   0  -3   27.76    1.14
   4   0  -3   23.27    1.16
   4   0  -3   27.13    1.27
  -4   0   3   23.77    1.10
  -4   0   3   26.18    1.17
  -4   0   3   25.19    1.16
  -4   0   3   23.20    1.20
  -4   0   3   23.57    1.20
   3   0  -3    0.15    0.17
   3   0  -3   -0.04    0.19
   3   0  -3   -0.11    0.14
   3   0  -3   -0.05    0.19
   3   0  -3    0.01    0.15
   3   0  -3   -0.34    0.17
  -3   0   3   -0.04    0.18
  -3   0   3   -0.06    0.17
  -3   0   3   -0.07    0.15
  -3   0   3    0.20    0.15
   2   0  -3   26.43    1.17
   2   0  -3   28.05    1.18
   2   0  -3   27.88    1.14
   2   0  -3   27.37    1.21
   2   0  -3   28.56    1.18
  -2   0   3   26.31    1.16
  -2   0   3   26.19    1.17
  -2   0   3   28.29    1.17
  -2   0   3   28.42    1.16
   1   0  -3   33.90    1.35
   1   0  -3   33.83    1.36
   1   0  -3   33.24    1.35
   1   0  -3   38.79    1.43
   1   0  -3   33.66    1.36
  -1   0   3   35.05    1.36
  -1   0   3   31.41    1.33
  -1   0   3   31.37    1.34
  -1   0   3   34.63    1.37
   0   0  -3  115.45    3.92
   0   0  -3  113.17    3.79
   0   0   3  100.68    3.74
  -1   0  -3    1.61    0.17
  -1   0  -3    1.45    0.15
  -1   0  -3    1.72    0.17
  -1   0  -3    1.20    0.19
   1   0   3    1.56    0.18
   1   0   3    1.59    0.16
   1   0   3    1.48    0.16
   1   0   3    1.40    0.16
   1   0   3    1.51    0.12
  -2   0  -3   39.24    1.45
  -2   0  -3   39.03    1.48
  -2   0  -3   34.94    1.55
  -2   0  -3   37.37    1.43
   2   0   3   39.44    1.42
   2   0   3   39.03    1.43
   2   0   3   41.19    1.48
   2   0   3   42.50    1.54
  -3   0  -3    7.97    0.47
  -3   0  -3    7.18    0.37
  -3   0  -3    7.15    0.39
  -3   0  -3    6.80    0.37
   3   0   3    7.01    0.32
   3   0   3    6.79    0.47
   3   0   3    7.29    0.40
   3   0   3    6.78    0.38
  -4   0  -3  113.95    3.97
  -4   0  -3  111.68    3.98
  -4   0  -3  117.05    4.15
  -4   0  -3  113.35    3.97
  -4   0  -3  118.03    4.17
   4   0   3  116.45    3.97
   4   0   3  119.34    4.10
  -5   0  -3   84.12    2.90
  -5   0  -3   83.20    3.15
  -5   0  -3   84.82    3.16
  -5   0  -3   83.50    3.06
  -5   0  -3   84.04    2.95
  -5   0  -3   81.49    2.92
   5   0   3   82.62    2.93
  -6   0  -3   17.35    0.80
  -6   0  -3   17.33    0.81
  -6   0  -3   17.71    1.01
  -6   0  -3   17.88    0.82
  -6   0  -3   17.41    0.87
   6   0   3   18.47    0.93
  -7   0  -3    1.34    0.40
  -7   0  -3    1.20    0.24
  -7   0  -3    1.66    0.28
  -8   0  -3    2.31    0.53
  -8   0  -3    1.56    0.31
   8   0   3    1.75    0.36
  -9   0  -3    0.52    0.38
  -9   0  -3    0.97    0.58
   9   0   3    0.06    0.36
   9   0   3    0.14    0.37
 -10   0  -3   -1.14    0.67
  10   0   3   -0.06    0.50
  10   0   3    0.12    0.45
   9  -1  -3    0.11    0.59
   9  -1  -3   -0.14    0.62
  -9   1   3   -0.21    0.76
  -9   1   3    0.41    0.71
   8  -1  -3   12.89    0.95
  -8   1   3   15.94    1.31
  -8   1   3   13.13    1.08
  -7   1   3    5.49    0.69
   6  -1  -3    3.06    0.26
   6  -1  -3    3.39    0.27
  -6   1   3    3.34    0.43
  -6   1   3    2.70    0.43
  -6   1   3    4.49    0.63
  -6   1   3    3.17    0.47
   5  -1  -3   34.96    1.61
   5  -1  -3   35.54    1.29
   5  -1  -3   35.89    1.37
   5  -1  -3   36.41    1.73
  -5   1   3   35.67    1.54
  -5   1   3   35.13    1.53
  -5   1   3   35.79    1.62
   4  -1  -3   25.91    1.02
   4  -1  -3   26.97    1.23
   4  -1  -3   27.80    1.12
   4  -1  -3   28.74    1.14
   4  -1  -3   24.76    1.43
   4  -1  -3   26.62    1.22
  -4   1   3   26.48    1.19
  -4   1   3   27.42    1.21
  -4   1   3   27.55    1.26
  -4   1   3   28.31    1.18
   3  -1  -3    6.81    0.36
   3  -1  -3    7.41    0.54
   3  -1  -3    6.67    0.41
   3  -1  -3    7.27    0.46
   3  -1  -3    7.35    0.50
   3  -1  -3    7.64    0.46
   3  -1  -3    6.86    0.45
  -3   1   3    7.72    0.46
  -3   1   3    7.29    0.47
  -3   1   3    7.38    0.46
  -3   1   3    6.94    0.50
   2  -1  -3    8.57    0.49
   2  -1  -3    8.66    0.45
   2  -1  -3    8.22    0.53
   2  -1  -3    8.66    0.53
   2  -1  -3    7.97    0.50
  -2   1   3    8.52    0.49
  -2   1   3    8.32    0.49
  -2   1   3    8.72    0.49
  -2   1   3    8.01    0.50
   1  -1  -3  189.89    6.74
   1  -1  -3  204.60    6.80
   1  -1  -3  200.99    6.79
  -1   1   3  197.70    6.79
  -1   1   3  192.27    6.81
  -1   1   3  196.56    6.76
  -1   1   3  213.38    6.80
   0  -1  -3    2.60    0.15
   0  -1  -3    2.29    0.22
   0  -1  -3    2.36    0.21
   0  -1  -3    1.93    0.20
   0  -1  -3    2.30    0.22
   0   1   3    2.06    0.14
   0   1   3    2.12    0.21
   0   1   3    2.37    0.21
   0   1   3    2.07    0.19
   0   1   3    2.34    0.22
  -1  -1  -3   22.54    0.93
  -1  -1  -3   24.24    0.93
  -1  -1  -3   21.69    0.88
  -1  -1  -3   24.47    0.94
   1   1   3   23.37    0.93
   1   1   3   22.59    0.89
   1   1   3   22.58    0.85
   1   1   3   23.00    0.93
   1   1   3   22.67    0.93
  -2  -1  -3   20.34    0.74
  -2  -1  -3   21.01    0.85
  -2  -1  -3   20.62    0.85
  -2  -1  -3   20.49    0.83
  -2  -1  -3   21.44    0.87
   2   1   3   19.89    0.83
   2   1   3   20.76    0.84
   2   1   3   21.17    0.84
  -3  -1  -3   26.75    1.11
  -3  -1  -3   25.56    0.95
  -3  -1  -3   26.07    1.04
  -3  -1  -3   25.79    0.99
   3   1   3   25.25    1.01
   3   1   3   26.81    1.00
   3   1   3   26.16    1.01
  -4  -1  -3    6.86    0.50
  -4  -1  -3    6.72    0.46
  -4  -1  -3    6.67    0.42
  -4  -1  -3    6.66    0.35
  -4  -1  -3    6.49    0.39
   4   1   3    6.44    0.34
   4   1   3    6.05    0.43
   4   1   3    6.20    0.31
   4   1   3    6.20    0.33
  -5  -1  -3   36.76    1.49
  -5  -1  -3   39.14    1.63
  -5  -1  -3   37.65    1.50
  -5  -1  -3   38.18    1.65
  -5  -1  -3   37.13    1.46
   5   1   3   42.23    1.49
   5   1   3   38.12    1.56
   5   1   3   37.81    1.37
   5   1   3   35.97    1.59
  -6  -1  -3    1.25    0.35
  -6  -1  -3    0.59    0.23
  -6  -1  -3    0.94    0.23
  -6  -1  -3    0.75    0.23
  -7  -1  -3    0.49    0.39
  -7  -1  -3    0.90    0.27
   7   1   3    0.75    0.26
  -8  -1  -3   -0.55    0.30
  -8  -1  -3   -0.81    0.43
  -9  -1  -3   -0.16    0.57
  -9  -1  -3    0.97    0.44
   9   1   3    1.00    0.37
   9   1   3    1.62    0.40
 -10  -1  -3   -0.50    0.73
 -10  -1  -3   -0.28    0.57
  10   1   3   -0.61    0.50
   9  -2  -3   -0.20    0.52
   9  -2  -3   -0.55    0.52
  -9   2   3    0.49    0.66
   8  -2  -3   -0.35    0.44
  -8   2   3   -0.09    0.51
  -8   2   3    0.11    0.60
  -7   2   3    1.00    0.36
  -7   2   3    1.15    0.49
   6  -2  -3    0.43    0.20
  -6   2   3    0.40    0.27
  -6   2   3   -0.27    0.33
   5  -2  -3   -0.12    0.29
   5  -2  -3   -0.09    0.15
   5  -2  -3    0.46    0.28
  -5   2   3    0.13    0.24
  -5   2   3    0.22    0.24
  -5   2   3    0.13    0.21
  -5   2   3    0.09    0.25
   4  -2  -3   -0.09    0.21
   4  -2  -3   -0.15    0.13
   4  -2  -3    0.09    0.19
   4  -2  -3   -0.19    0.10
   4  -2  -3    0.09    0.11
  -4   2   3   -0.16    0.16
  -4   2   3   -0.32    0.19
  -4   2   3    0.22    0.19
  -4   2   3    0.12    0.16
   3  -2  -3   58.23    2.15
   3  -2  -3   55.18    2.04
   3  -2  -3   59.73    2.28
   3  -2  -3   57.33    2.06
  -3   2   3   56.92    2.14
  -3   2   3   58.01    2.16
  -3   2   3   58.30    2.15
  -3   2   3   55.30    2.17
   2  -2  -3   19.35    0.81
   2  -2  -3   18.53    0.87
   2  -2  -3   20.03    0.80
   2  -2  -3   20.32    0.92
   2  -2  -3   16.30    0.85
  -2   2   3   19.17    0.85
  -2   2   3   18.57    0.86
  -2   2   3   19.69    0.84
   1  -2  -3   35.17    1.32
   1  -2  -3   36.47    1.36
   1  -2  -3   36.01    1.41
   1  -2  -3   36.77    1.35
  -1   2   3   37.52    1.33
  -1   2   3   32.68    1.49
  -1   2   3   34.65    1.19
   0  -2  -3  163.76    5.31
   0  -2  -3  160.14    5.36
   0  -2  -3  157.86    5.36
   0  -2  -3  151.67    5.36
   0  -2  -3  153.97    5.21
   0   2   3  156.95    5.36
   0   2   3  168.69    5.36
   0   2   3  145.24    5.47
  -1  -2  -3   74.39    2.58
  -1  -2  -3   75.56    2.63
  -1  -2  -3   68.58    2.62
  -1  -2  -3   74.45    2.56
   1   2   3   76.08    2.65
   1   2   3   75.40    2.58
   1   2   3   74.33    2.63
  -2  -2  -3    0.09    0.07
  -2  -2  -3    0.15    0.07
  -2  -2  -3    0.11    0.12
  -2  -2  -3    0.22    0.09
   2   2   3    0.10    0.07
   2   2   3    0.05    0.07
  -3  -2  -3    2.76    0.21
  -3  -2  -3    2.42    0.27
  -3  -2  -3    2.35    0.26
  -3  -2  -3    2.48    0.29
   3   2   3    2.94    0.25
   3   2   3    2.61    0.22
   3   2   3    2.05    0.19
   3   2   3    2.60    0.30
  -4  -2  -3   -0.05    0.15
  -4  -2  -3   -0.14    0.18
  -4  -2  -3   -0.09    0.14
   4   2   3    0.13    0.16
   4   2   3    0.00    0.06
   4   2   3   -0.05    0.13
   4   2   3   -0.11    0.14
   4   2   3    0.02    0.17
  -5  -2  -3    0.86    0.22
  -5  -2  -3    1.05    0.26
  -5  -2  -3    0.75    0.21
  -5  -2  -3    0.97    0.23
   5   2   3    0.90    0.19
   5   2   3    1.06    0.22
   5   2   3    1.21    0.20
  -6  -2  -3    2.15    0.37
  -6  -2  -3    1.47    0.37
  -6  -2  -3    1.28    0.26
   6   2   3    1.34    0.29
  -7  -2  -3    0.62    0.32
  -7  -2  -3    1.04    0.42
  -7  -2  -3    0.86    0.37
   7   2   3    0.21    0.28
   7   2   3    0.40    0.14
  -8  -2  -3    3.01    0.65
  -8  -2  -3    2.41    0.48
   8   2   3    2.68    0.40
  -9  -2  -3    2.11    0.68
  -9  -2  -3    1.84    0.50
   9   2   3    1.80    0.43
 -10  -2  -3   -0.19    0.61
 -10  -2  -3    0.32    0.80
  10   2   3   -0.04    0.48
  10   2   3    0.14    0.55
   9  -3  -3    0.53    0.50
  -9   3   3    2.42    0.81
   8  -3  -3    0.46    0.42
  -8   3   3    0.29    0.58
  -8   3   3    0.90    0.47
   7  -3  -3   -0.37    0.26
  -7   3   3    0.14    0.38
  -7   3   3   -0.22    0.34
   6  -3  -3    2.33    0.38
   6  -3  -3    2.12    0.43
  -6   3   3    2.82    0.40
  -6   3   3    2.50    0.45
   5  -3  -3   11.50    0.63
  -5   3   3   10.34    0.69
  -5   3   3   10.39    0.63
   4  -3  -3   48.29    1.82
   4  -3  -3   46.37    1.83
   4  -3  -3   45.88    2.02
  -4   3   3   47.77    1.82
  -4   3   3   48.56    1.85
  -4   3   3   48.07    1.90
  -4   3   3   43.78    1.79
  -4   3   3   46.59    1.77
   3  -3  -3   25.74    1.13
   3  -3  -3   27.98    1.01
   3  -3  -3   28.65    1.25
   3  -3  -3   27.33    1.09
  -3   3   3   26.21    1.10
  -3   3   3   25.62    1.10
  -3   3   3   27.06    1.03
  -3   3   3   25.79    1.16
  -3   3   3   25.69    1.10
   2  -3  -3   36.21    1.55
   2  -3  -3   37.02    1.40
   2  -3  -3   37.91    1.40
   2  -3  -3   37.06    1.39
   2  -3  -3   38.76    1.51
  -2   3   3   36.10    1.45
  -2   3   3   39.32    1.40
  -2   3   3   40.42    1.55
  -2   3   3   37.84    1.47
   1  -3  -3   32.18    1.28
   1  -3  -3   33.06    1.34
   1  -3  -3   32.70    1.25
   1  -3  -3   31.59    1.17
  -1   3   3   33.80    1.34
  -1   3   3   32.25    1.28
  -1   3   3   32.76    1.18
  -1   3   3   32.10    1.33
   0  -3  -3  107.48    3.67
   0  -3  -3  108.66    3.66
   0   3   3  102.35    3.65
   0   3   3  101.74    3.67
   0   3   3  109.69    3.68
   0   3   3   96.69    3.64
  -1  -3  -3    1.19    0.17
  -1  -3  -3    1.04    0.18
  -1  -3  -3    1.11    0.21
  -1  -3  -3    0.95    0.17
   1   3   3    1.08    0.18
   1   3   3    1.37    0.22
  -2  -3  -3    1.00    0.20
  -2  -3  -3    0.92    0.19
  -2  -3  -3    0.65    0.12
  -2  -3  -3    1.17    0.19
   2   3   3    0.96    0.18
   2   3   3    0.87    0.14
   2   3   3    0.66    0.19
  -3  -3  -3   17.27    0.82
  -3  -3  -3   16.57    0.76
  -3  -3  -3   17.19    0.83
  -3  -3  -3   16.86    0.81
   3   3   3   16.46    0.70
   3   3   3   16.78    0.79
   3   3   3   16.52    0.78
   3   3   3   17.14    0.82
  -4  -3  -3   62.01    2.46
  -4  -3  -3   65.95    2.42
  -4  -3  -3   68.09    2.49
  -4  -3  -3   66.72    2.54
   4   3   3   65.26    2.48
   4   3   3   64.77    2.27
   4   3   3   65.15    2.43
   4   3   3   67.30    2.45
   4   3   3   65.19    2.45
  -5  -3  -3    4.17    0.40
  -5  -3  -3    4.10    0.43
  -5  -3  -3    4.81    0.43
  -5  -3  -3    4.58    0.48
   5   3   3    4.31    0.39
   5   3   3    4.26    0.42
   5   3   3    3.36    0.36
  -6  -3  -3    1.15    0.39
  -6  -3  -3    1.96    0.35
  -6  -3  -3    1.75    0.34
   6   3   3    1.00    0.26
   6   3   3    1.07    0.25
   6   3   3    1.38    0.32
  -7  -3  -3    0.31    0.41
  -7  -3  -3    0.50    0.33
   7   3   3   -0.04    0.31
   7   3   3   -0.11    0.24
   7   3   3    0.26    0.26
  -8  -3  -3    1.17    0.49
  -8  -3  -3    0.72    0.39
   8   3   3    0.18    0.42
  -9  -3  -3   -0.27    0.49
  -9  -3  -3   -0.19    0.63
   9   3   3    0.38    0.40
 -10  -3  -3    0.30    0.68
 -10  -3  -3    1.47    0.92
  10   3   3    1.06    0.62
   9  -4  -3   -0.13    0.52
  -9   4   3   -0.94    0.75
  -8   4   3    0.34    0.44
  -8   4   3    2.22    0.68
   7  -4  -3   -0.13    0.33
  -7   4   3   -0.42    0.33
  -7   4   3    0.57    0.52
  -7   4   3    0.36    0.40
   6  -4  -3    0.50    0.27
   6  -4  -3    0.90    0.35
  -6   4   3    0.24    0.36
  -6   4   3    0.44    0.25
  -6   4   3   -0.31    0.29
   5  -4  -3   -0.15    0.21
   5  -4  -3    0.00    0.23
  -5   4   3   -0.04    0.21
  -5   4   3    0.16    0.20
   4  -4  -3   13.25    0.71
   4  -4  -3   14.61    0.91
   4  -4  -3   14.28    0.75
  -4   4   3   14.16    0.71
  -4   4   3   13.06    0.72
  -4   4   3   12.85    0.78
  -4   4   3   13.34    0.74
  -4   4   3   14.15    0.86
  -4   4   3   14.43    0.66
   3  -4  -3    0.22    0.10
   3  -4  -3    0.38    0.20
   3  -4  -3    0.15    0.20
  -3   4   3    0.08    0.14
  -3   4   3    0.25    0.11
  -3   4   3    0.50    0.16
  -3   4   3    0.14    0.20
   2  -4  -3    0.16    0.07
   2  -4  -3    0.56    0.17
   2  -4  -3    0.12    0.07
   2  -4  -3    0.25    0.08
   2  -4  -3    0.06    0.14
   2  -4  -3    0.01    0.09
  -2   4   3    0.15    0.17
  -2   4   3    0.16    0.13
  -2   4   3    0.25    0.15
   1  -4  -3   12.63    0.49
   1  -4  -3   12.24    0.66
   1  -4  -3   12.63    0.66
   1  -4  -3   10.63    0.61
  -1   4   3   12.63    0.63
  -1   4   3   11.72    0.59
   0  -4  -3   53.15    1.88
   0  -4  -3   54.04    2.06
   0  -4  -3   52.77    2.03
   0  -4  -3   55.05    2.01
   0  -4  -3   56.60    2.01
   0   4   3   55.60    2.02
   0   4   3   54.13    2.03
   0   4   3   50.39    2.04
  -1  -4  -3    9.75    0.48
  -1  -4  -3    9.00    0.53
  -1  -4  -3   10.06    0.56
  -1  -4  -3    9.56    0.54
  -1  -4  -3    9.98    0.53
   1   4   3   11.05    0.56
   1   4   3   11.13    0.59
   1   4   3    9.65    0.58
  -2  -4  -3   34.99    1.41
  -2  -4  -3   35.99    1.46
  -2  -4  -3   34.78    1.41
  -2  -4  -3   35.27    1.45
   2   4   3   36.60    1.48
   2   4   3   34.56    1.44
   2   4   3   36.60    1.45
  -3  -4  -3   41.58    1.83
  -3  -4  -3   45.97    1.82
  -3  -4  -3   48.42    1.87
  -3  -4  -3   50.02    1.89
   3   4   3   49.73    1.89
   3   4   3   47.87    1.85
   3   4   3   43.11    1.82
   3   4   3   48.37    1.84
  -4  -4  -3   37.53    1.58
  -4  -4  -3   33.40    1.54
  -4  -4  -3   38.20    1.61
  -4  -4  -3   37.86    1.53
   4   4   3   36.99    1.55
   4   4   3   36.94    1.58
   4   4   3   38.50    1.58
   4   4   3   37.91    1.38
   4   4   3   33.98    1.51
  -5  -4  -3    0.65    0.26
  -5  -4  -3    0.65    0.25
  -5  -4  -3    0.25    0.26
  -5  -4  -3    0.16    0.26
   5   4   3    0.11    0.30
   5   4   3    0.42    0.09
   5   4   3    0.39    0.24
   5   4   3    0.76    0.28
   5   4   3    0.39    0.10
  -6  -4  -3    0.21    0.27
  -6  -4  -3    0.01    0.33
   6   4   3    0.21    0.29
   6   4   3    0.17    0.25
  -7  -4  -3    2.61    0.42
   7   4   3    2.59    0.48
   7   4   3    2.01    0.38
   7   4   3    3.17    0.48
  -8  -4  -3    3.02    0.57
  -8  -4  -3    1.60    0.48
   8   4   3    2.09    0.38
  -9  -4  -3    0.90    0.58
  -9  -4  -3   -0.03    0.66
 -10  -4  -3    0.83    1.37
 -10  -4  -3    0.23    0.74
  10   4   3    1.39    0.63
   9  -5  -3    0.64    0.53
  -9   5   3    1.02    0.97
   8  -5  -3   -1.00    0.50
   8  -5  -3    0.57    0.68
  -8   5   3   -0.96    0.73
  -8   5   3   -0.04    0.57
   7  -5  -3    0.65    0.40
  -7   5   3    0.70    0.40
  -7   5   3    0.01    0.53
  -7   5   3    0.26    0.33
   6  -5  -3    4.41    0.57
  -6   5   3    3.75    0.52
  -6   5   3    4.40    0.81
   5  -5  -3    3.41    0.47
  -5   5   3    2.41    0.38
  -5   5   3    2.41    0.39
  -5   5   3    2.40    0.38
  -5   5   3    3.09    0.38
  -5   5   3    3.78    0.55
   4  -5  -3    9.89    0.69
   4  -5  -3   10.27    0.72
  -4   5   3    9.10    0.57
  -4   5   3   10.16    0.56
  -4   5   3   10.17    0.54
  -4   5   3   10.70    0.78
   3  -5  -3    1.55    0.31
   3  -5  -3    1.14    0.28
   3  -5  -3    1.66    0.22
  -3   5   3    1.57    0.27
  -3   5   3    1.61    0.31
  -3   5   3    1.62    0.25
  -3   5   3    1.92    0.26
   2  -5  -3    0.59    0.10
   2  -5  -3    0.44    0.20
   2  -5  -3    0.39    0.10
   2  -5  -3    0.45    0.10
   2  -5  -3    0.60    0.20
  -2   5   3    0.51    0.17
  -2   5   3    0.44    0.21
  -2   5   3    0.36    0.15
   1  -5  -3    6.39    0.40
   1  -5  -3    6.09    0.38
   1  -5  -3    5.81    0.45
   1  -5  -3    5.70    0.46
   1  -5  -3    6.16    0.34
   1  -5  -3    5.94    0.46
  -1   5   3    6.26    0.47
  -1   5   3    5.41    0.40
  -1   5   3    6.22    0.43
   0  -5  -3   43.34    1.64
   0  -5  -3   40.97    1.49
   0  -5  -3   44.38    1.66
   0  -5  -3   44.23    1.72
   0  -5  -3   43.08    1.72
   0  -5  -3   40.29    1.69
   0   5   3   42.86    1.67
   0   5   3   39.29    1.66
   0   5   3   40.56    1.70
  -1  -5  -3    6.53    0.45
  -1  -5  -3    6.63    0.47
  -1  -5  -3    6.22    0.47
  -1  -5  -3    6.87    0.49
  -1  -5  -3    7.09    0.39
   1   5   3    8.43    0.70
   1   5   3    6.94    0.48
   1   5   3    6.88    0.48
  -2  -5  -3    1.25    0.24
  -2  -5  -3    1.31    0.24
  -2  -5  -3    0.76    0.20
  -2  -5  -3    1.15    0.22
   2   5   3    0.81    0.17
   2   5   3    1.72    0.29
   2   5   3    1.01    0.24
   2   5   3    1.24    0.20
  -3  -5  -3   19.32    1.02
  -3  -5  -3   19.66    1.00
  -3  -5  -3   24.66    1.11
  -3  -5  -3   22.58    1.05
   3   5   3   22.60    1.02
   3   5   3   22.34    1.07
   3   5   3   22.25    1.06
   3   5   3   21.79    1.04
  -4  -5  -3   46.50    1.86
  -4  -5  -3   45.74    1.87
  -4  -5  -3   39.88    1.77
  -4  -5  -3   44.64    1.86
   4   5   3   41.13    1.82
   4   5   3   42.15    1.66
   4   5   3   41.49    1.82
   4   5   3   46.70    1.86
  -5  -5  -3   14.96    0.92
  -5  -5  -3   14.04    0.92
  -5  -5  -3   13.73    0.83
   5   5   3   13.97    0.86
   5   5   3   13.70    0.64
   5   5   3   14.53    0.65
   5   5   3   13.64    0.86
   5   5   3   16.20    0.93
  -6  -5  -3    3.33    0.55
  -6  -5  -3    2.88    0.55
   6   5   3    3.22    0.54
   6   5   3    2.67    0.44
  -7  -5  -3    0.64    0.40
  -7  -5  -3   -0.44    0.45
   7   5   3    0.88    0.41
  -8  -5  -3    1.48    0.57
  -8  -5  -3    2.21    0.66
   8   5   3    2.39    0.49
  -9  -5  -3    1.78    0.79
  -9  -5  -3    0.35    0.67
   9   5   3    1.17    0.48
   8  -6  -3    1.00    0.53
  -8   6   3    0.56    0.82
   7  -6  -3    0.98    0.50
  -7   6   3    0.81    0.39
  -7   6   3   -0.49    0.61
  -7   6   3   -0.04    0.38
   6  -6  -3    0.66    0.37
  -6   6   3   -0.52    0.28
  -6   6   3   -0.01    0.28
  -6   6   3   -0.48    0.48
   5  -6  -3    6.68    0.66
  -5   6   3    5.37    0.50
  -5   6   3    6.80    0.81
  -5   6   3    5.90    0.49
  -5   6   3    7.42    0.85
  -5   6   3    6.80    0.49
   4  -6  -3    2.53    0.42
  -4   6   3    2.04    0.40
  -4   6   3    2.23    0.37
   3  -6  -3    4.89    0.39
   3  -6  -3    5.56    0.53
   3  -6  -3    5.27    0.46
  -3   6   3    4.50    0.54
  -3   6   3    5.19    0.40
  -3   6   3    4.76    0.42
   2  -6  -3    2.96    0.39
   2  -6  -3    3.04    0.23
   2  -6  -3    2.60    0.32
   2  -6  -3    3.24    0.24
   2  -6  -3    3.46    0.40
  -2   6   3    4.13    0.45
  -2   6   3    3.27    0.35
  -2   6   3    3.68    0.36
   1  -6  -3   26.32    1.24
   1  -6  -3   24.34    1.07
   1  -6  -3   25.20    1.21
   1  -6  -3   26.70    1.24
   1  -6  -3   26.51    1.09
   1  -6  -3   26.15    1.10
  -1   6   3   25.72    1.12
  -1   6   3   26.44    1.26
  -1   6   3   26.12    1.17
   0  -6  -3    7.97    0.36
   0  -6  -3    8.07    0.56
   0  -6  -3    8.10    0.52
   0  -6  -3    8.50    0.73
   0  -6  -3    7.53    0.55
   0  -6  -3    8.46    0.57
   0   6   3    7.45    0.53
   0   6   3    8.90    0.60
   0   6   3    8.53    0.58
  -1  -6  -3    0.40    0.19
  -1  -6  -3    0.04    0.21
  -1  -6  -3    0.18    0.20
  -1  -6  -3    0.16    0.20
   1   6   3   -0.11    0.18
   1   6   3    0.11    0.21
  -2  -6  -3    6.24    0.52
  -2  -6  -3    5.45    0.48
  -2  -6  -3    5.09    0.45
  -2  -6  -3    5.34    0.48
  -2  -6  -3    5.68    0.42
   2   6   3    5.30    0.42
   2   6   3    6.44    0.54
   2   6   3    5.90    0.46
   2   6   3    5.18    0.49
  -3  -6  -3   21.57    1.10
  -3  -6  -3   22.09    1.06
  -3  -6  -3   21.89    1.12
  -3  -6  -3   21.16    1.19
  -3  -6  -3   20.40    1.08
   3   6   3   19.38    1.03
   3   6   3   23.86    1.17
   3   6   3   21.08    1.04
   3   6   3   22.77    1.13
  -4  -6  -3   28.36    1.22
  -4  -6  -3   27.38    1.33
  -4  -6  -3   25.83    1.31
  -4  -6  -3   26.52    1.35
   4   6   3   26.56    1.33
   4   6   3   25.96    1.29
   4   6   3   26.53    1.32
   4   6   3   24.88    1.16
  -5  -6  -3    3.26    0.54
  -5  -6  -3    2.89    0.50
   5   6   3    2.93    0.39
   5   6   3    3.05    0.48
   5   6   3    3.46    0.59
   5   6   3    2.35    0.37
  -6  -6  -3    3.55    0.99
  -6  -6  -3    3.09    0.44
  -6  -6  -3    2.79    0.63
   6   6   3    2.37    0.49
   6   6   3    2.17    0.33
   6   6   3    2.71    0.58
   6   6   3    2.71    0.34
  -7  -6  -3    8.78    0.88
  -7  -6  -3    8.40    0.62
  -7  -6  -3    8.07    1.03
   7   6   3    8.95    0.96
   7   6   3    8.80    0.88
  -8  -6  -3   17.88    1.50
  -8  -6  -3   15.99    1.27
   8   6   3   17.75    1.26
  -9  -6  -3   -0.09    0.79
  -9  -6  -3    1.32    0.85
   9   6   3    0.29    0.92
   8  -7  -3   -0.28    0.66
  -8   7   3    0.41    0.87
  -8   7   3   -0.14    0.81
   7  -7  -3    0.11    0.56
  -7   7   3    0.15    0.63
   6  -7  -3    0.15    0.50
  -6   7   3    0.41    0.58
  -6   7   3    0.06    0.29
  -6   7   3    0.47    0.32
   5  -7  -3   19.30    1.23
  -5   7   3   19.80    0.98
   4  -7  -3   48.28    2.19
   4  -7  -3   49.21    1.94
  -4   7   3   51.67    1.97
  -4   7   3   51.31    2.26
   3  -7  -3    0.15    0.19
   3  -7  -3   -0.19    0.30
  -3   7   3    0.44    0.30
  -3   7   3    0.19    0.23
   2  -7  -3    6.65    0.47
   2  -7  -3    6.04    0.35
   2  -7  -3    6.19    0.62
   2  -7  -3    6.28    0.52
  -2   7   3    6.41    0.52
  -2   7   3    5.77    0.58
  -2   7   3    5.38    0.47
   1  -7  -3    4.54    0.38
   1  -7  -3    4.37    0.37
   1  -7  -3    3.96    0.42
   1  -7  -3    4.56    0.50
   1  -7  -3    5.04    0.40
   1  -7  -3    4.86    0.51
  -1   7   3    4.29    0.45
  -1   7   3    4.05    0.38
  -1   7   3    2.91    0.47
   0  -7  -3    0.96    0.29
   0  -7  -3    0.70    0.21
   0  -7  -3    0.88    0.20
   0  -7  -3    0.70    0.11
   0  -7  -3    0.75    0.28
   0   7   3    0.52    0.29
   0   7   3    0.78    0.24
   0   7   3    0.69    0.27
  -1  -7  -3   33.11    1.44
  -1  -7  -3   31.26    1.47
  -1  -7  -3   29.99    1.46
  -1  -7  -3   33.72    1.44
  -1  -7  -3   32.72    1.29
   1   7   3   29.55    1.39
   1   7   3   32.51    1.28
   1   7   3   37.16    1.53
   1   7   3   30.31    1.49
  -2  -7  -3    1.23    0.30
  -2  -7  -3    1.60    0.31
  -2  -7  -3    1.08    0.22
  -2  -7  -3    1.15    0.33
   2   7   3    0.91    0.30
   2   7   3    1.25    0.25
   2   7   3    1.82    0.46
   2   7   3    1.18    0.33
  -3  -7  -3    1.20    0.29
  -3  -7  -3    0.90    0.28
  -3  -7  -3    1.08    0.31
   3   7   3    0.84    0.29
   3   7   3    0.83    0.33
   3   7   3    1.25    0.30
   3   7   3    1.04    0.33
  -4  -7  -3    0.37    0.25
  -4  -7  -3    0.90    0.34
  -4  -7  -3    1.22    0.36
   4   7   3    0.39    0.27
   4   7   3    0.22    0.37
   4   7   3    0.76    0.37
  -5  -7  -3    1.46    0.48
  -5  -7  -3    2.22    0.35
   5   7   3    1.30    0.46
   5   7   3    1.18    0.48
   5   7   3    1.15    0.28
  -6  -7  -3    1.36    0.32
  -6  -7  -3    1.31    0.55
  -6  -7  -3    1.46    0.48
   6   7   3    0.66    0.54
   6   7   3    1.07    0.30
  -7  -7  -3    5.61    0.60
  -7  -7  -3    5.93    0.91
  -7  -7  -3    5.97    0.86
   7   7   3    5.93    0.90
   7   7   3    4.93    0.75
  -8  -7  -3   -0.67    0.62
  -8  -7  -3    0.84    0.77
   8   7   3   -0.48    0.68
   8  -8  -3    2.00    0.80
   8  -8  -3    0.12    0.55
  -8   8   3    2.03    1.03
  -8   8   3    0.32    0.87
   7  -8  -3   -0.71    0.55
  -7   8   3   -0.16    0.76
   6  -8  -3    0.26    0.47
  -6   8   3    0.87    0.38
  -6   8   3    0.44    0.59
   5  -8  -3   10.15    1.01
   5  -8  -3   11.44    0.76
  -5   8   3   10.13    1.05
  -5   8   3   11.59    0.79
   4  -8  -3    0.06    0.26
   4  -8  -3    0.42    0.40
  -4   8   3   -0.15    0.29
   3  -8  -3   15.02    0.80
   3  -8  -3   14.72    1.02
  -3   8   3   15.70    0.88
  -3   8   3   14.13    1.02
   2  -8  -3   11.68    0.86
   2  -8  -3   10.66    0.66
   2  -8  -3   11.12    0.54
  -2   8   3   11.55    0.86
  -2   8   3   11.32    0.74
  -2   8   3   10.80    0.74
   1  -8  -3    3.40    0.51
   1  -8  -3    3.78    0.38
   1  -8  -3    3.50    0.40
   1  -8  -3    2.85    0.41
   1  -8  -3    3.89    0.49
  -1   8   3    2.72    0.47
  -1   8   3    3.28    0.54
  -1   8   3    4.89    0.53
   0  -8  -3   -0.16    0.23
   0  -8  -3   -0.17    0.29
   0  -8  -3    0.09    0.12
   0  -8  -3   -0.28    0.29
   0   8   3    0.20    0.32
   0   8   3   -0.02    0.29
   0   8   3   -0.38    0.33
  -1  -8  -3    3.03    0.50
  -1  -8  -3    1.63    0.36
  -1  -8  -3    1.72    0.26
  -1  -8  -3    1.71    0.37
   1   8   3    1.62    0.37
   1   8   3    1.94    0.42
   1   8   3    1.71    0.25
  -2  -8  -3    4.66    0.56
  -2  -8  -3    3.57    0.55
  -2  -8  -3    3.64    0.42
   2   8   3    5.35    0.61
   2   8   3    5.14    0.60
   2   8   3    5.03    0.64
  -3  -8  -3    0.50    0.29
  -3  -8  -3    0.29    0.33
  -3  -8  -3   -0.05    0.25
   3   8   3   -0.39    0.34
   3   8   3   -0.07    0.31
   3   8   3   -0.50    0.35
   3   8   3    0.68    0.34
  -4  -8  -3    2.78    0.45
  -4  -8  -3    3.05    0.54
   4   8   3    2.55    0.42
   4   8   3    3.11    0.63
  -5  -8  -3    0.13    0.33
  -5  -8  -3    0.67    0.45
  -5  -8  -3    0.69    0.53
   5   8   3    0.12    0.33
   5   8   3    0.30    0.51
   5   8   3    0.55    0.54
  -6  -8  -3    2.27    0.63
  -6  -8  -3    2.57    0.64
  -6  -8  -3    1.35    0.39
   6   8   3    1.49    0.39
   6   8   3    1.55    0.61
   6   8   3    1.32    0.59
  -7  -8  -3    0.17    0.71
  -7  -8  -3    0.87    0.64
   7   8   3    1.35    0.66
   7   8   3   -0.09    0.73
  -8  -8  -3    1.88    0.95
  -8  -8  -3    2.66    0.88
   8   8   3    1.63    0.76
   8   8   3    2.18    0.86
  -7   9   3    2.82    0.92
  -7   9   3    3.07    0.90
   6  -9  -3    3.90    0.71
  -6   9   3    3.10    0.87
   5  -9  -3    7.64    0.72
   5  -9  -3    8.27    0.95
  -5   9   3    6.72    0.74
  -5   9   3    5.65    0.84
   4  -9  -3    2.42    0.53
   4  -9  -3    2.43    0.41
  -4   9   3    1.54    0.40
  -4   9   3    1.75    0.56
   3  -9  -3    0.75    0.42
   3  -9  -3    0.41    0.30
  -3   9   3    0.60    0.39
  -3   9   3    1.49    0.51
  -3   9   3    0.24    0.38
   2  -9  -3    1.45    0.30
  -2   9   3    1.56    0.57
  -2   9   3    1.00    0.37
   1  -9  -3   10.00    0.64
   1  -9  -3   10.71    0.81
   1  -9  -3   11.13    0.74
   1  -9  -3   10.33    0.89
  -1   9   3   10.25    0.85
  -1   9   3   10.93    0.98
   0  -9  -3   13.66    0.87
   0  -9  -3   14.33    0.83
   0  -9  -3   14.43    0.98
   0  -9  -3   14.64    0.89
   0  -9  -3   12.97    0.63
   0   9   3   13.31    0.95
   0   9   3   16.34    1.08
   0   9   3   13.60    1.01
  -1  -9  -3    4.18    0.40
  -1  -9  -3    3.98    0.63
  -1  -9  -3    3.79    0.54
   1   9   3    2.74    0.53
   1   9   3    3.40    0.60
   1   9   3    2.89    0.53
   1   9   3    3.23    0.40
  -2  -9  -3    3.35    0.44
  -2  -9  -3    4.11    0.60
  -2  -9  -3    4.37    0.56
   2   9   3    3.07    0.82
   2   9   3    2.86    0.49
  -3  -9  -3    1.35    0.42
   3   9   3    1.60    0.56
   3   9   3    0.92    0.54
   3   9   3    0.76    0.61
   3   9   3    0.78    0.41
  -4  -9  -3    0.77    0.45
  -4  -9  -3    1.59    0.51
  -4  -9  -3    1.17    0.40
   4   9   3    1.55    0.53
   4   9   3    1.36    0.40
   4   9   3    0.57    0.59
  -5  -9  -3    0.30    0.40
  -5  -9  -3    1.71    0.55
  -5  -9  -3    0.42    0.47
   5   9   3   -0.86    0.89
   5   9   3    0.09    0.42
   5   9   3    0.97    0.60
  -6  -9  -3    0.03    0.59
  -6  -9  -3   -0.14    0.46
  -6  -9  -3   -0.19    0.66
   6   9   3    0.03    0.67
   6   9   3    0.07    0.68
  -7  -9  -3    1.32    0.81
  -7  -9  -3    2.24    0.75
   7   9   3    0.26    0.84
   6 -10  -3    0.95    0.68
   6 -10  -3    2.27    0.61
  -6  10   3    2.25    0.86
  -6  10   3    2.54    0.79
   5 -10  -3    0.75    0.58
   5 -10  -3    0.03    0.49
  -5  10   3    0.30    0.72
  -5  10   3    0.30    0.72
  -5  10   3   -0.31    0.51
   4 -10  -3   -0.30    0.38
   4 -10  -3    0.41    0.53
  -4  10   3    0.57    0.48
  -4  10   3    0.55    0.63
  -4  10   3    0.76    0.60
   3 -10  -3    4.77    0.77
   3 -10  -3    3.93    0.65
  -3  10   3    6.63    0.91
  -3  10   3    6.39    0.96
  -3  10   3    6.34    0.76
   2 -10  -3    4.99    0.72
   2 -10  -3    4.64    0.62
  -2  10   3    3.59    0.73
  -2  10   3    5.15    0.84
  -2  10   3    3.55    0.60
   1 -10  -3    1.69    0.34
   1 -10  -3    2.48    0.54
   1 -10  -3    2.93    0.51
  -1  10   3    1.87    0.49
  -1  10   3    3.05    0.61
  -1  10   3    2.56    0.62
   0 -10  -3    2.09    0.45
   0 -10  -3    2.14    0.42
   0 -10  -3    1.54    0.38
   0 -10  -3    2.81    0.51
   0  10   3    2.22    0.53
   0  10   3    1.50    0.54
   0  10   3    1.79    0.64
  -1 -10  -3   -0.31    0.41
  -1 -10  -3    0.87    0.39
  -1 -10  -3    0.04    0.25
   1  10   3    0.19    0.50
   1  10   3    0.07    0.48
   1  10   3    0.35    0.49
   1  10   3    0.28    0.43
  -2 -10  -3    1.30    0.34
   2  10   3    1.26    0.54
   2  10   3    1.15    0.50
  -3 -10  -3    2.01    0.57
  -3 -10  -3    1.68    0.40
  -3 -10  -3    2.18    0.55
   3  10   3    1.41    0.56
   3  10   3    2.66    0.68
   3  10   3    1.10    0.50
  -4 -10  -3    1.71    0.60
  -4 -10  -3    2.76    0.61
  -4 -10  -3    2.08    0.57
   4  10   3    2.52    0.64
   4  10   3    1.30    0.62
   4  10   3    2.23    0.57
  -5 -10  -3   -0.15    0.58
  -5 -10  -3   -0.18    0.53
   5  10   3   -0.07    0.60
   5  10   3   -0.58    0.74
   5  10   3    0.67    0.68
  -6 -10  -3    0.01    0.69
   6  10   3   -0.40    0.85
   6  10   3   -0.04    0.82
   5 -11  -3   -0.28    0.68
   5 -11  -3    2.27    0.55
  -5  11   3    1.93    0.80
  -5  11   3   -0.43    0.86
   4 -11  -3   -0.13    0.43
   4 -11  -3    0.87    0.62
   4 -11  -3    0.19    0.55
  -4  11   3    1.93    0.77
  -4  11   3    0.98    0.70
  -4  11   3    0.18    0.78
   3 -11  -3    0.69    0.57
   3 -11  -3    0.44    0.45
  -3  11   3   -0.27    0.53
  -3  11   3   -0.50    0.61
  -3  11   3    0.43    0.67
   2 -11  -3    2.60    0.61
   2 -11  -3    1.91    0.51
  -2  11   3   -0.30    0.60
  -2  11   3    1.27    0.57
  -2  11   3    1.31    0.69
   1 -11  -3    1.84    0.52
   1 -11  -3    1.32    0.35
   1 -11  -3    0.37    0.51
  -1  11   3    1.74    0.60
  -1  11   3    1.08    0.60
  -1  11   3    0.38    0.59
   0 -11  -3    4.94    0.71
   0 -11  -3    5.15    0.92
   0 -11  -3    4.97    0.85
   0  11   3    5.62    0.84
   0  11   3    5.45    0.79
   0  11   3    5.28    0.80
  -1 -11  -3    0.62    0.54
  -1 -11  -3    0.53    0.33
  -1 -11  -3   -0.16    0.45
   1  11   3   -0.02    0.66
   1  11   3    1.58    0.54
   1  11   3    1.54    0.61
  -2 -11  -3   -0.31    0.49
  -2 -11  -3    0.24    0.58
  -2 -11  -3    0.23    0.40
   2  11   3   -0.46    0.58
   2  11   3    1.63    0.67
   2  11   3    1.04    0.54
  -3 -11  -3   -0.05    0.55
  -3 -11  -3    0.17    0.52
  -3 -11  -3    1.03    0.49
   3  11   3    0.59    0.60
   3  11   3    0.69    0.64
   3  11   3    0.75    0.66
  -4 -11  -3   -0.21    0.59
  -4 -11  -3   -0.85    0.58
  -4 -11  -3    0.01    0.58
   4  11   3   -0.06    0.64
   4  11   3    0.42    0.74
   4  11   3    0.89    0.73
  -5 -11  -3    1.59    0.72
  -5 -11  -3    1.31    0.75
   5  11   3    0.72    0.94
   5  11   3    2.06    0.92
   4 -12  -3   -0.56    0.85
  -4  12   3    0.13    0.95
  -4  12   3   -0.96    0.72
  -4  12   3   -0.62    0.89
   3 -12  -3    1.46    0.79
   3 -12  -3    1.75    0.64
  -3  12   3    1.35    0.84
  -3  12   3    2.05    0.89
  -3  12   3    0.91    0.75
   2 -12  -3    1.66    0.68
   2 -12  -3    2.68    0.64
  -2  12   3    1.73    0.77
  -2  12   3    2.20    0.86
  -2  12   3    1.18    0.68
   1 -12  -3    4.83    0.79
   1 -12  -3    6.33    0.93
  -1  12   3    4.43    0.86
  -1  12   3    4.25    0.86
  -1  12   3    3.52    0.81
   0 -12  -3    0.92    0.62
   0 -12  -3    1.35    0.54
   0 -12  -3    0.50    0.63
   0  12   3   -0.04    0.68
   0  12   3    0.66    0.66
   0  12   3    1.39    0.72
  -1 -12  -3    0.72    0.62
  -1 -12  -3    0.75    0.68
  -1 -12  -3    1.81    0.63
   1  12   3    3.48    0.89
   1  12   3    0.71    0.63
   1  12   3    1.85    0.71
  -2 -12  -3    6.38    0.98
  -2 -12  -3    5.76    0.93
   2  12   3    6.60    1.16
   2  12   3    7.70    1.29
   2  12   3    5.52    0.96
  -3 -12  -3    6.66    1.10
   3  12   3    3.55    0.94
   3  12   3    3.77    0.88
   3  12   3    3.04    0.90
  -4 -12  -3    0.71    0.81
  -4 -12  -3    0.33    1.13
   2 -13  -3   -0.48    0.81
  -2  13   3    0.01    1.14
   1 -13  -3    4.73    0.95
   1 -13  -3    4.79    0.85
  -1  13   3    3.59    1.14
  -1  13   3    2.63    1.00
   0 -13  -3    9.75    1.30
   0 -13  -3   14.28    1.38
   0  13   3   12.96    1.79
   0  13   3   15.00    1.50
   0  13   3   10.27    1.54
  -1 -13  -3    3.73    0.90
  -1 -13  -3    4.00    0.98
   1  13   3    2.31    0.93
   1  13   3    1.48    0.91
   1  10  -4    2.68    1.04
   1  10  -4    5.33    1.82
   1  10  -4    3.80    0.92
  -1 -10   4    2.63    0.74
  -1 -10   4    3.27    1.48
   0  10  -4    1.13    0.80
   0  10  -4    0.14    0.81
   0  10  -4    0.83    0.89
   0 -10   4    0.25    0.82
   0 -10   4    2.38    0.72
  -1  10  -4   -0.45    0.77
  -1  10  -4    0.55    0.71
  -1  10  -4   -0.36    0.83
   1 -10   4    1.39    0.75
  -2  10  -4    1.23    0.79
  -2  10  -4    0.25    0.75
  -2  10  -4    1.04    0.81
   2 -10   4    1.02    0.75
  -3  10  -4    0.35    0.74
  -3  10  -4   -0.24    0.74
   3 -10   4   -0.52    0.79
  -4  10  -4    1.37    0.78
  -4  10  -4   -1.23    0.94
  -4  10  -4   -0.73    0.91
   4 -10   4    0.34    0.81
   3   9  -4    1.11    1.05
  -3  -9   4    0.50    1.02
  -3  -9   4    1.36    0.82
   2   9  -4    0.66    0.77
   2   9  -4    0.46    0.80
   2   9  -4    2.32    0.92
  -2  -9   4    0.09    0.71
  -2  -9   4    2.15    0.78
  -2  -9   4    2.00    0.71
   1   9  -4    5.08    0.78
   1   9  -4    4.53    0.91
   1   9  -4    5.02    0.88
  -1  -9   4    4.12    0.74
  -1  -9   4    6.65    1.26
  -1  -9   4    6.12    1.08
   0   9  -4    1.14    0.75
   0   9  -4    0.25    0.63
   0  -9   4    0.91    0.56
   0  -9   4    0.93    0.53
   0  -9   4    0.95    0.68
  -1   9  -4   -0.15    0.65
  -1   9  -4    1.21    0.71
  -1   9  -4   -0.42    0.60
   1  -9   4    0.09    0.48
   1  -9   4   -0.82    0.55
  -2   9  -4   -0.01    0.64
  -2   9  -4    1.09    0.76
  -2   9  -4    0.17    0.62
   2  -9   4    1.59    0.63
  -3   9  -4    3.15    0.68
  -3   9  -4    3.35    0.80
  -3   9  -4    3.34    0.71
   3  -9   4    2.98    0.70
  -4   9  -4    3.14    0.70
  -4   9  -4    3.96    0.84
  -4   9  -4    2.76    0.68
  -5   9  -4    1.56    0.80
  -5   9  -4    1.59    0.70
  -5   9  -4    0.65    0.68
   5  -9   4    2.95    0.74
  -6   9  -4    0.30    0.86
   6  -9   4    2.19    0.85
   4   8  -4   -0.13    0.83
   4   8  -4    1.51    0.78
   4   8  -4    1.18    0.83
  -4  -8   4    1.64    0.76
  -4  -8   4    1.58    0.81
   3   8  -4   -1.14    0.70
   3   8  -4   -0.07    0.62
   3   8  -4    0.49    0.64
   3   8  -4    0.33    0.77
  -3  -8   4    0.09    0.60
  -3  -8   4    0.05    0.66
   2   8  -4   -0.07    0.60
   2   8  -4    0.28    0.62
   2   8  -4   -0.95    0.93
  -2  -8   4   -0.82    0.50
  -2  -8   4    0.68    0.61
  -2  -8   4   -0.09    0.62
   1   8  -4   -0.15    0.60
   1   8  -4   -0.93    0.54
   1   8  -4    0.60    0.60
  -1  -8   4   -0.53    0.48
  -1  -8   4   -0.53    0.50
  -1  -8   4    0.36    0.52
   0   8  -4    1.91    0.61
   0   8  -4    1.64    0.56
   0   8  -4    1.84    0.59
   0  -8   4    3.17    0.56
   0  -8   4    2.37    0.64
  -1   8  -4    1.26    0.58
  -1   8  -4    1.82    0.56
  -1   8  -4    1.51    0.57
   1  -8   4    0.70    0.52
   1  -8   4    1.38    0.41
  -2   8  -4   -0.07    0.48
  -2   8  -4    0.43    0.55
  -2   8  -4   -0.26    0.43
   2  -8   4   -0.44    0.42
   2  -8   4   -0.37    0.45
   2  -8   4    0.14    0.33
  -3   8  -4   -0.59    0.45
  -3   8  -4   -0.34    0.47
  -3   8  -4   -0.37    0.57
   3  -8   4    0.13    0.50
   3  -8   4   -0.51    0.42
  -4   8  -4    6.81    0.83
  -4   8  -4    8.53    1.15
  -4   8  -4    5.34    0.83
   4  -8   4    7.24    0.96
  -5   8  -4    0.46    0.49
  -5   8  -4    0.74    0.59
  -5   8  -4    1.00    0.50
   5  -8   4   -0.85    0.58
  -6   8  -4   -0.54    0.74
  -6   8  -4    0.30    0.57
  -7   8  -4    0.53    0.84
   7  -8   4   -0.60    0.76
   5   7  -4    1.05    0.79
   5   7  -4    0.67    0.78
   5   7  -4   -0.12    0.86
  -5  -7   4    1.49    0.86
  -5  -7   4    2.27    0.84
   4   7  -4    1.24    0.65
   4   7  -4    1.86    0.59
  -4  -7   4    1.73    0.67
  -4  -7   4    1.81    0.62
   3   7  -4    6.73    0.95
   3   7  -4    5.94    0.89
   3   7  -4    6.49    0.92
  -3  -7   4    4.17    0.76
  -3  -7   4    5.30    0.83
   2   7  -4    3.78    0.72
   2   7  -4    5.56    0.95
   2   7  -4    6.37    0.91
  -2  -7   4    4.92    0.88
  -2  -7   4    6.14    0.86
   1   7  -4    3.71    0.66
   1   7  -4    3.57    0.64
   1   7  -4    3.43    0.58
  -1  -7   4    3.57    0.63
  -1  -7   4    2.40    0.61
  -1  -7   4    2.51    0.64
   0   7  -4    0.45    0.42
   0   7  -4   -0.45    0.50
   0   7  -4    0.24    0.43
   0  -7   4    0.31    0.32
   0  -7   4    0.52    0.44
   0  -7   4   -0.53    0.39
  -1   7  -4    2.88    0.56
  -1   7  -4    2.61    0.51
  -1   7  -4    2.77    0.55
   1  -7   4    2.46    0.56
   1  -7   4    2.44    0.58
   1  -7   4    3.54    0.50
  -2   7  -4    0.25    0.38
  -2   7  -4    0.30    0.34
  -2   7  -4   -0.32    0.44
   2  -7   4   -0.12    0.38
   2  -7   4   -0.45    0.26
   2  -7   4    0.71    0.37
  -3   7  -4   56.65    2.63
  -3   7  -4   58.96    2.42
  -3   7  -4   56.77    2.43
   3  -7   4   58.73    2.11
   3  -7   4   59.73    2.61
   3  -7   4   57.85    2.03
  -4   7  -4   23.51    1.21
  -4   7  -4   21.69    1.19
  -4   7  -4   25.24    1.48
  -4   7  -4   23.31    1.24
   4  -7   4   22.50    1.27
  -5   7  -4    2.29    0.49
  -5   7  -4    2.82    0.48
  -5   7  -4    2.66    0.61
   5  -7   4    2.53    0.55
   5  -7   4    2.21    0.56
  -6   7  -4    0.14    0.39
  -6   7  -4   -0.30    0.43
  -6   7  -4    0.66    0.56
   6  -7   4   -0.62    0.57
  -7   7  -4    2.30    0.63
  -7   7  -4    1.77    0.70
   7  -7   4    2.11    0.73
  -8   7  -4    0.63    0.75
  -8   7  -4    0.06    0.72
   8  -7   4   -0.09    0.79
   6   6  -4    0.19    0.78
  -6  -6   4   -0.50    0.97
  -6  -6   4    1.59    1.00
   5   6  -4    0.38    0.65
   5   6  -4    0.39    0.60
  -5  -6   4    0.98    0.64
  -5  -6   4    1.27    0.71
   4   6  -4    1.95    0.55
   4   6  -4    1.02    0.57
  -4  -6   4    2.49    0.63
  -4  -6   4    2.84    0.66
   3   6  -4    1.85    0.54
   3   6  -4    2.11    0.54
   3   6  -4    1.93    0.57
  -3  -6   4    1.83    0.50
  -3  -6   4    2.03    0.54
   2   6  -4    0.28    0.47
   2   6  -4    0.18    0.46
   2   6  -4    0.20    0.50
  -2  -6   4   -0.28    0.45
  -2  -6   4   -0.18    0.38
   1   6  -4    7.51    0.64
   1   6  -4    8.25    0.82
   1   6  -4    7.43    0.88
  -1  -6   4   10.22    0.89
  -1  -6   4    6.74    0.76
  -1  -6   4    7.44    0.79
   0   6  -4    8.38    0.77
   0   6  -4    8.79    0.90
   0   6  -4    7.29    0.76
   0   6  -4    9.79    0.81
   0  -6   4    8.18    0.77
   0  -6   4    9.68    0.73
   0  -6   4   10.09    0.83
  -1   6  -4    2.58    0.52
  -1   6  -4    2.27    0.41
  -1   6  -4    2.88    0.47
   1  -6   4    2.48    0.39
   1  -6   4    2.50    0.54
   1  -6   4    2.21    0.48
   1  -6   4    2.57    0.42
  -2   6  -4    0.07    0.42
  -2   6  -4    0.29    0.31
  -2   6  -4    0.65    0.40
  -2   6  -4    0.87    0.32
   2  -6   4    0.73    0.35
   2  -6   4    0.50    0.23
   2  -6   4    1.12    0.38
  -3   6  -4    7.72    0.63
  -3   6  -4    5.91    0.84
  -3   6  -4    6.01    0.60
  -3   6  -4    5.81    0.66
  -3   6  -4    7.96    0.62
   3  -6   4    6.42    0.75
   3  -6   4    6.02    0.59
   3  -6   4    5.68    0.35
  -4   6  -4    3.12    0.57
  -4   6  -4    3.27    0.58
  -4   6  -4    2.88    0.45
  -4   6  -4    3.08    0.41
   4  -6   4    4.29    0.71
  -5   6  -4    0.51    0.31
  -5   6  -4    0.64    0.48
  -5   6  -4    0.83    0.31
   5  -6   4    0.18    0.47
   5  -6   4    0.64    0.33
  -6   6  -4   -0.03    0.80
  -6   6  -4   -0.32    0.37
  -6   6  -4   -0.39    0.28
   6  -6   4   -0.16    0.35
   6  -6   4    0.63    0.52
  -7   6  -4   -0.28    0.39
  -7   6  -4    0.30    0.50
  -7   6  -4    0.35    0.56
   7  -6   4    0.74    0.55
  -8   6  -4    1.17    0.63
  -8   6  -4   -0.50    0.62
   8  -6   4   -0.47    0.64
  -9   6  -4    0.72    0.78
  -9   6  -4    1.76    1.48
   9  -6   4    0.42    0.57
   6   5  -4    1.15    0.98
   6   5  -4    0.99    0.64
  -6  -5   4    0.27    0.70
  -6  -5   4   -1.42    0.71
   5   5  -4    0.12    0.53
  -5  -5   4    1.71    0.58
  -5  -5   4    0.85    0.55
   4   5  -4    6.25    0.91
   4   5  -4    5.12    0.75
  -4  -5   4    4.58    0.77
  -4  -5   4    4.80    0.82
   3   5  -4    9.81    0.86
   3   5  -4    9.60    0.60
   3   5  -4    9.84    0.97
  -3  -5   4   10.19    0.92
  -3  -5   4    9.33    0.85
   2   5  -4    1.82    0.46
   2   5  -4    1.12    0.26
   2   5  -4    1.79    0.44
  -2  -5   4    1.40    0.38
  -2  -5   4    0.54    0.39
   1   5  -4   -0.15    0.31
   1   5  -4   -0.34    0.25
   1   5  -4    0.48    0.33
   1   5  -4    0.07    0.34
  -1  -5   4    0.43    0.31
  -1  -5   4    0.46    0.28
  -1  -5   4    0.53    0.34
   0   5  -4    2.37    0.39
   0   5  -4    2.08    0.31
   0   5  -4    1.59    0.37
   0   5  -4    2.54    0.45
   0  -5   4    2.11    0.36
   0  -5   4    1.46    0.35
   0  -5   4    2.23    0.38
   0  -5   4    2.55    0.40
   0  -5   4    2.34    0.43
  -1   5  -4   10.89    0.77
  -1   5  -4    9.69    0.79
  -1   5  -4    9.71    0.73
  -1   5  -4   10.57    0.73
  -1   5  -4   10.52    0.71
  -1   5  -4   10.16    0.73
   1  -5   4   10.61    0.66
   1  -5   4   11.01    0.78
   1  -5   4   12.59    0.92
   1  -5   4   10.80    0.79
  -2   5  -4   25.79    1.20
  -2   5  -4   26.61    1.36
  -2   5  -4   26.01    1.25
  -2   5  -4   26.04    1.20
  -2   5  -4   24.32    1.24
   2  -5   4   24.93    1.32
   2  -5   4   25.95    1.12
   2  -5   4   25.91    1.12
   2  -5   4   24.85    1.32
  -3   5  -4   20.31    1.03
  -3   5  -4   20.58    1.00
  -3   5  -4   21.68    1.20
   3  -5   4   20.03    1.15
   3  -5   4   20.34    0.79
  -4   5  -4    1.40    0.37
  -4   5  -4    1.42    0.30
  -4   5  -4    1.00    0.33
  -4   5  -4    1.55    0.29
   4  -5   4    1.51    0.44
   4  -5   4    1.40    0.27
  -5   5  -4    1.26    0.36
  -5   5  -4    2.41    0.38
  -5   5  -4    2.21    0.54
  -5   5  -4    1.52    0.41
  -5   5  -4    2.05    0.36
   5  -5   4    1.75    0.34
   5  -5   4    1.58    0.45
  -6   5  -4    1.22    0.29
  -6   5  -4    1.26    0.45
  -6   5  -4    1.03    0.26
   6  -5   4    1.14    0.33
   6  -5   4    1.15    0.48
  -7   5  -4    1.11    0.49
  -7   5  -4    1.54    0.35
  -7   5  -4    1.24    0.47
  -7   5  -4    1.09    0.28
   7  -5   4    0.41    0.51
  -8   5  -4    5.59    0.92
  -8   5  -4    3.66    0.66
   8  -5   4    2.93    0.69
  -9   5  -4   -0.27    0.69
   9  -5   4    0.48    0.51
   7   4  -4    1.28    0.78
   7   4  -4   -0.06    0.74
  -7  -4   4   -0.55    0.79
  -7  -4   4   -0.22    0.90
   6   4  -4    1.08    0.54
   6   4  -4    0.77    0.54
   6   4  -4    0.00    0.48
  -6  -4   4   -0.72    0.62
  -6  -4   4    0.02    0.58
   5   4  -4    0.80    0.48
   5   4  -4    1.59    0.41
  -5  -4   4    0.68    0.53
  -5  -4   4    1.15    0.58
   4   4  -4   22.21    1.21
   4   4  -4   22.83    1.64
  -4  -4   4   21.87    1.29
  -4  -4   4   21.03    1.39
   3   4  -4    0.99    0.21
   3   4  -4    1.39    0.43
   3   4  -4    1.13    0.36
  -3  -4   4    1.06    0.36
  -3  -4   4    1.06    0.41
  -3  -4   4    0.85    0.39
   2   4  -4   -0.21    0.32
   2   4  -4    0.77    0.33
   2   4  -4   -0.10    0.19
   2   4  -4    0.12    0.30
  -2  -4   4    0.12    0.31
  -2  -4   4    0.60    0.29
  -2  -4   4   -0.27    0.29
   1   4  -4    7.75    0.64
   1   4  -4    6.40    0.57
   1   4  -4    8.45    0.74
   1   4  -4    7.82    0.69
   1   4  -4    6.88    0.60
   1   4  -4    6.49    0.46
  -1  -4   4    7.06    0.57
  -1  -4   4    7.03    0.62
  -1  -4   4    7.11    0.60
  -1  -4   4    7.47    0.61
  -1  -4   4    5.51    0.57
   0   4  -4    5.46    0.51
   0   4  -4    4.06    0.47
   0   4  -4    4.42    0.43
   0   4  -4    4.76    0.55
   0   4  -4    4.84    0.50
   0   4  -4    4.29    0.48
   0  -4   4    4.94    0.47
   0  -4   4    4.80    0.47
   0  -4   4    4.20    0.50
   0  -4   4    4.31    0.44
   0  -4   4    4.23    0.42
   0  -4   4    4.29    0.49
  -1   4  -4    0.43    0.23
  -1   4  -4    0.36    0.22
  -1   4  -4   -0.19    0.22
  -1   4  -4    0.51    0.23
  -1   4  -4    0.23    0.22
  -1   4  -4    0.20    0.20
   1  -4   4    0.25    0.21
   1  -4   4    0.38    0.24
   1  -4   4    0.21    0.25
   1  -4   4    0.25    0.23
   1  -4   4    0.16    0.21
   1  -4   4    0.10    0.20
  -2   4  -4    2.33    0.35
  -2   4  -4    2.40    0.40
  -2   4  -4    1.59    0.32
  -2   4  -4    1.81    0.28
  -2   4  -4    2.31    0.32
  -2   4  -4    2.09    0.34
   2  -4   4    2.42    0.30
   2  -4   4    2.33    0.39
   2  -4   4    1.99    0.32
   2  -4   4    2.17    0.37
   2  -4   4    2.31    0.31
  -3   4  -4    6.59    0.56
  -3   4  -4    6.97    0.49
  -3   4  -4    7.05    0.58
  -3   4  -4    6.93    0.47
  -3   4  -4    6.27    0.58
  -3   4  -4    7.14    0.51
  -3   4  -4    7.10    0.60
   3  -4   4    7.11    0.46
   3  -4   4    6.92    0.34
   3  -4   4    7.25    0.63
   3  -4   4    6.96    0.57
  -4   4  -4   -0.35    0.17
  -4   4  -4    0.19    0.27
  -4   4  -4   -0.01    0.18
  -4   4  -4    0.15    0.18
  -4   4  -4   -0.03    0.27
   4  -4   4    0.20    0.27
   4  -4   4   -0.15    0.18
   4  -4   4   -0.21    0.30
   4  -4   4    0.07    0.21
  -5   4  -4    2.47    0.35
  -5   4  -4    2.40    0.33
  -5   4  -4    1.53    0.38
  -5   4  -4    1.75    0.29
   5  -4   4    2.14    0.34
   5  -4   4    2.06    0.48
  -6   4  -4    2.03    0.33
  -6   4  -4    1.56    0.28
  -6   4  -4    1.55    0.40
   6  -4   4    1.78    0.32
   6  -4   4    0.78    0.47
  -7   4  -4    1.47    0.28
  -7   4  -4    0.97    0.29
  -7   4  -4    0.96    0.41
  -7   4  -4    1.03    0.46
   7  -4   4    2.18    0.59
  -8   4  -4    0.62    0.54
  -8   4  -4    1.22    0.36
  -8   4  -4    1.07    0.48
  -9   4  -4    0.84    0.66
   9  -4   4    0.72    0.47
 -10   4  -4   -0.17    0.81
  10  -4   4   -0.43    0.62
   7   3  -4    0.76    0.63
   7   3  -4   -0.36    0.64
  -7  -3   4   -0.57    0.74
  -7  -3   4    0.67    0.70
   6   3  -4   -0.63    0.55
   6   3  -4    0.79    0.40
   5   3  -4    2.63    0.51
   5   3  -4    1.94    0.42
  -5  -3   4    2.11    0.63
  -5  -3   4    1.38    0.49
   4   3  -4    7.13    0.64
   4   3  -4    6.01    0.69
   4   3  -4    7.11    0.51
  -4  -3   4    6.52    0.71
  -4  -3   4    6.65    0.65
  -4  -3   4    6.65    0.83
   3   3  -4    0.11    0.26
   3   3  -4    0.28    0.29
   3   3  -4    0.16    0.12
  -3  -3   4    0.44    0.33
  -3  -3   4    0.79    0.32
   2   3  -4    0.06    0.29
   2   3  -4   -0.08    0.24
   2   3  -4    0.49    0.31
   2   3  -4    0.11    0.14
   2   3  -4   -0.04    0.25
  -2  -3   4    0.05    0.26
  -2  -3   4    0.09    0.25
  -2  -3   4    0.25    0.25
  -2  -3   4    0.43    0.33
  -2  -3   4   -0.13    0.29
   1   3  -4   10.73    0.72
   1   3  -4   10.66    0.71
   1   3  -4   10.54    0.72
   1   3  -4   11.32    0.73
   1   3  -4   10.61    0.70
   1   3  -4   10.79    0.66
   1   3  -4   10.98    0.59
  -1  -3   4   10.11    0.70
  -1  -3   4   10.67    0.69
  -1  -3   4   10.69    0.70
  -1  -3   4   11.99    0.75
  -1  -3   4   11.70    0.72
   0   3  -4    1.34    0.27
   0   3  -4    1.21    0.30
   0   3  -4    0.79    0.23
   0   3  -4    1.03    0.21
   0   3  -4    1.15    0.24
   0   3  -4    0.74    0.19
   0   3  -4    0.97    0.25
   0  -3   4    1.22    0.26
   0  -3   4    0.79    0.22
   0  -3   4    0.49    0.22
   0  -3   4    1.23    0.28
   0  -3   4    1.19    0.24
   0  -3   4    0.74    0.23
  -1   3  -4    5.59    0.43
  -1   3  -4    4.76    0.45
  -1   3  -4    5.16    0.40
  -1   3  -4    4.89    0.42
  -1   3  -4    5.00    0.40
  -1   3  -4    4.57    0.46
   1  -3   4    4.62    0.45
   1  -3   4    4.45    0.38
   1  -3   4    5.00    0.41
   1  -3   4    5.38    0.47
   1  -3   4    5.69    0.45
   1  -3   4    3.90    0.42
  -2   3  -4  113.85    4.21
  -2   3  -4  119.87    4.18
  -2   3  -4  111.48    4.16
  -2   3  -4  114.72    4.02
  -2   3  -4  112.89    4.10
  -2   3  -4  119.23    4.09
  -2   3  -4  115.00    4.15
   2  -3   4  118.54    4.02
   2  -3   4  110.71    4.18
   2  -3   4  112.81    4.19
   2  -3   4  114.90    4.01
   2  -3   4  115.53    4.02
  -3   3  -4   27.39    1.28
  -3   3  -4   28.10    1.27
  -3   3  -4   28.30    1.17
  -3   3  -4   25.21    1.22
  -3   3  -4   29.30    1.20
  -3   3  -4   29.38    1.31
   3  -3   4   27.56    1.02
   3  -3   4   27.18    1.30
   3  -3   4   26.44    1.28
   3  -3   4   29.12    1.05
   3  -3   4   27.71    1.09
  -4   3  -4    1.15    0.16
  -4   3  -4    0.69    0.25
  -4   3  -4    0.61    0.18
  -4   3  -4    0.92    0.22
  -4   3  -4    0.74    0.27
  -4   3  -4    0.63    0.28
   4  -3   4    1.11    0.23
   4  -3   4    0.89    0.24
   4  -3   4    0.95    0.27
  -5   3  -4    0.07    0.24
  -5   3  -4    0.36    0.16
  -5   3  -4    0.50    0.19
   5  -3   4    0.11    0.26
   5  -3   4    0.53    0.24
   5  -3   4    0.37    0.30
  -6   3  -4   11.15    0.74
  -6   3  -4    9.84    0.60
  -6   3  -4   10.35    0.58
  -6   3  -4   10.30    0.57
   6  -3   4   11.06    0.88
   6  -3   4   10.88    0.65
  -7   3  -4    1.00    0.39
  -7   3  -4    0.97    0.26
  -7   3  -4    1.25    0.24
  -7   3  -4    1.19    0.34
  -8   3  -4    3.45    0.76
  -8   3  -4    4.09    0.62
  -8   3  -4    3.95    0.43
  -9   3  -4    1.49    0.70
 -10   3  -4    0.61    0.74
  10  -3   4    0.14    0.68
   8   2  -4    1.67    0.92
  -8  -2   4   -0.33    0.85
  -8  -2   4    0.91    0.82
   7   2  -4   -0.13    0.56
   7   2  -4    0.52    0.54
  -7  -2   4   -0.19    0.66
  -7  -2   4    0.79    0.62
   6   2  -4    0.73    0.46
   6   2  -4    0.71    0.36
  -6  -2   4    0.37    0.43
  -6  -2   4    0.20    0.49
   5   2  -4    2.30    0.39
   5   2  -4    3.23    0.49
  -5  -2   4    3.98    0.69
   4   2  -4    0.75    0.26
   4   2  -4    1.03    0.36
   4   2  -4    0.86    0.33
  -4  -2   4    0.31    0.30
  -4  -2   4    1.05    0.40
   3   2  -4   12.20    0.76
   3   2  -4   12.38    0.84
   3   2  -4   11.50    0.80
   3   2  -4   11.32    0.47
   3   2  -4   10.32    0.73
  -3  -2   4   11.39    0.72
  -3  -2   4   11.64    0.78
  -3  -2   4   12.75    0.82
   2   2  -4    3.28    0.43
   2   2  -4    3.43    0.40
   2   2  -4    2.77    0.45
   2   2  -4    2.87    0.41
   2   2  -4    3.43    0.40
   2   2  -4    3.55    0.26
  -2  -2   4    3.25    0.42
  -2  -2   4    2.71    0.37
  -2  -2   4    2.25    0.35
  -2  -2   4    2.55    0.40
  -2  -2   4    3.60    0.39
   1   2  -4    0.02    0.20
   1   2  -4    0.38    0.19
   1   2  -4    0.23    0.14
   1   2  -4    0.56    0.20
   1   2  -4    0.60    0.21
   1   2  -4    0.32    0.20
  -1  -2   4    0.27    0.19
  -1  -2   4    0.45    0.21
  -1  -2   4    0.13    0.18
  -1  -2   4    0.36    0.19
  -1  -2   4   -0.09    0.15
   0   2  -4   62.78    2.39
   0   2  -4   60.15    2.31
   0   2  -4   60.43    2.37
   0   2  -4   61.74    2.32
   0   2  -4   60.08    2.40
   0   2  -4   62.81    2.29
   0   2  -4   64.22    2.35
   0  -2   4   61.70    2.35
   0  -2   4   64.08    2.32
   0  -2   4   63.17    2.41
   0  -2   4   59.12    2.34
   0  -2   4   58.29    2.36
   0  -2   4   61.84    2.39
  -1   2  -4    7.83    0.47
  -1   2  -4    7.49    0.55
  -1   2  -4    7.95    0.48
  -1   2  -4    8.03    0.52
  -1   2  -4    7.64    0.45
  -1   2  -4    8.35    0.56
  -1   2  -4    7.52    0.47
   1  -2   4    7.98    0.54
   1  -2   4    7.77    0.45
   1  -2   4    7.47    0.52
   1  -2   4    8.04    0.47
  -2   2  -4  101.47    3.78
  -2   2  -4  102.20    3.60
  -2   2  -4  101.90    3.67
  -2   2  -4  102.33    3.67
  -2   2  -4   95.68    3.49
  -2   2  -4  101.07    3.72
  -2   2  -4   99.78    3.62
   2  -2   4  102.41    3.47
   2  -2   4  103.72    3.50
   2  -2   4  102.38    3.56
   2  -2   4  101.86    3.70
   2  -2   4  101.05    3.58
   2  -2   4  102.82    3.70
  -3   2  -4   14.55    0.59
  -3   2  -4   15.86    0.74
  -3   2  -4   15.51    0.81
  -3   2  -4   13.74    0.78
  -3   2  -4   13.44    0.76
   3  -2   4   14.68    0.75
   3  -2   4   14.73    0.59
   3  -2   4   14.00    0.59
   3  -2   4   14.96    0.81
  -4   2  -4    0.15    0.22
  -4   2  -4   -0.42    0.24
  -4   2  -4   -0.17    0.20
  -4   2  -4    0.09    0.19
  -4   2  -4    0.00    0.15
   4  -2   4    0.23    0.18
   4  -2   4   -0.04    0.19
   4  -2   4    0.09    0.20
  -5   2  -4   14.83    0.91
  -5   2  -4   15.63    0.77
  -5   2  -4   17.53    0.78
  -5   2  -4   15.63    0.87
  -5   2  -4   17.54    0.88
   5  -2   4   16.38    0.84
   5  -2   4   16.88    0.86
   5  -2   4   17.62    0.98
  -6   2  -4    7.67    0.48
  -6   2  -4    7.27    0.45
  -6   2  -4    8.50    0.74
  -6   2  -4    9.27    0.61
   6  -2   4    9.32    0.75
  -7   2  -4    0.44    0.21
  -7   2  -4    0.94    0.26
  -7   2  -4    1.42    0.42
  -7   2  -4    0.72    0.23
  -8   2  -4    0.14    0.28
  -8   2  -4    0.25    0.28
  -8   2  -4    0.42    0.53
  -8   2  -4    0.12    0.24
  -9   2  -4   -0.32    0.58
  -9   2  -4    0.79    0.52
 -10   2  -4   -0.16    0.79
  10  -2   4    0.52    0.63
   8   1  -4    0.84    0.89
  -8  -1   4   -1.75    1.83
  -8  -1   4    1.33    0.69
   7   1  -4    1.96    0.54
   7   1  -4    2.02    0.49
  -7  -1   4    1.74    0.65
  -7  -1   4    1.31    0.58
   6   1  -4    1.08    0.39
  -6  -1   4    1.03    0.46
  -6  -1   4    0.83    0.49
   5   1  -4    8.70    0.71
   5   1  -4    8.96    0.76
   5   1  -4   10.21    0.71
  -5  -1   4   10.12    0.83
  -5  -1   4   10.30    0.87
   4   1  -4    0.05    0.27
   4   1  -4    0.52    0.25
   4   1  -4    0.32    0.22
   4   1  -4   -0.39    0.29
  -4  -1   4    0.40    0.30
  -4  -1   4   -0.01    0.27
   3   1  -4   -0.17    0.20
   3   1  -4    0.22    0.21
   3   1  -4   -0.11    0.24
   3   1  -4    0.23    0.13
   3   1  -4    0.29    0.24
   3   1  -4    0.07    0.25
  -3  -1   4   -0.41    0.24
  -3  -1   4   -0.10    0.26
  -3  -1   4    0.01    0.27
  -3  -1   4    0.08    0.20
  -3  -1   4    0.01    0.21
   2   1  -4    0.36    0.21
   2   1  -4    0.44    0.23
   2   1  -4    0.36    0.21
   2   1  -4    0.69    0.20
   2   1  -4    0.36    0.22
  -2  -1   4    0.72    0.21
  -2  -1   4    0.32    0.19
  -2  -1   4    0.34    0.21
  -2  -1   4    0.63    0.19
  -2  -1   4    0.77    0.19
   1   1  -4    7.15    0.49
   1   1  -4    7.00    0.52
   1   1  -4    6.35    0.47
   1   1  -4    7.90    0.53
   1   1  -4    7.81    0.52
  -1  -1   4    7.26    0.50
  -1  -1   4    8.39    0.55
  -1  -1   4    8.46    0.51
  -1  -1   4    7.60    0.49
  -1  -1   4    7.53    0.53
   0   1  -4    0.01    0.16
   0   1  -4    0.07    0.15
   0   1  -4   -0.12    0.15
   0   1  -4    0.12    0.14
   0   1  -4   -0.10    0.16
   0  -1   4    0.14    0.14
   0  -1   4   -0.09    0.15
   0  -1   4   -0.16    0.14
   0  -1   4   -0.08    0.13
   0  -1   4    0.16    0.14
   0  -1   4    0.10    0.16
  -1   1  -4    0.06    0.14
  -1   1  -4   -0.06    0.12
  -1   1  -4   -0.10    0.13
  -1   1  -4    0.07    0.15
  -1   1  -4   -0.14    0.12
  -1   1  -4    0.03    0.13
   1  -1   4   -0.05    0.13
   1  -1   4   -0.07    0.14
   1  -1   4   -0.11    0.10
   1  -1   4    0.39    0.14
   1  -1   4    0.11    0.12
  -2   1  -4    7.98    0.50
  -2   1  -4    7.65    0.46
  -2   1  -4    8.19    0.51
   2  -1   4    6.51    0.48
   2  -1   4    6.99    0.48
   2  -1   4    7.72    0.37
   2  -1   4    8.35    0.49
  -3   1  -4   57.14    2.07
  -3   1  -4   55.24    2.15
  -3   1  -4   54.70    2.14
  -3   1  -4   56.33    2.14
  -3   1  -4   54.53    2.03
   3  -1   4   55.87    1.96
   3  -1   4   55.50    1.96
   3  -1   4   55.90    2.04
   3  -1   4   55.66    2.11
   3  -1   4   53.67    2.17
  -4   1  -4    3.02    0.32
  -4   1  -4    2.68    0.36
  -4   1  -4    3.23    0.34
  -4   1  -4    2.68    0.30
   4  -1   4    3.27    0.37
   4  -1   4    2.66    0.30
  -5   1  -4    0.55    0.20
  -5   1  -4    0.65    0.27
  -5   1  -4    0.29    0.19
  -5   1  -4    0.25    0.23
   5  -1   4    0.42    0.26
   5  -1   4    0.83    0.27
   5  -1   4    0.67    0.19
  -6   1  -4   12.42    0.68
  -6   1  -4   13.00    0.83
  -6   1  -4   12.35    0.78
  -6   1  -4   11.53    0.60
  -6   1  -4   12.17    0.56
  -6   1  -4   11.34    0.62
  -7   1  -4   55.64    2.10
  -7   1  -4   56.35    2.09
  -7   1  -4   57.17    2.13
  -7   1  -4   55.70    2.12
  -7   1  -4   55.60    2.11
  -7   1  -4   59.36    2.46
   7  -1   4   56.91    2.13
  -8   1  -4    2.34    0.40
  -8   1  -4    1.47    0.57
  -8   1  -4    2.13    0.34
  -9   1  -4    0.22    0.39
  -9   1  -4   -0.01    0.33
  -9   1  -4   -0.76    0.62
   9  -1   4   -0.80    0.38
 -10   1  -4    0.45    0.78
  10  -1   4    0.17    0.56
   8   0  -4   -0.03    0.48
   8   0  -4    0.10    0.48
  -8   0   4   -0.19    0.66
  -8   0   4   -0.64    0.77
  -7   0   4    4.62    0.74
  -7   0   4    2.59    0.64
   6   0  -4    7.93    0.62
  -6   0   4    7.29    0.78
   5   0  -4   72.97    2.74
   5   0  -4   70.21    2.70
  -5   0   4   68.70    2.82
  -5   0   4   70.29    2.89
   4   0  -4   14.50    0.88
   4   0  -4   14.23    0.80
   4   0  -4   14.19    0.80
  -4   0   4   13.54    0.86
  -4   0   4   13.66    0.81
  -4   0   4   11.84    0.86
  -4   0   4   13.46    0.81
   3   0  -4   18.76    0.94
   3   0  -4   18.46    0.90
   3   0  -4   18.33    0.94
   3   0  -4   19.32    0.99
   3   0  -4   15.69    1.31
  -3   0   4   19.09    0.99
  -3   0   4   18.98    0.94
  -3   0   4   19.53    0.96
  -3   0   4   19.93    0.99
  -3   0   4   17.35    0.95
   2   0  -4    6.76    0.48
   2   0  -4    5.66    0.43
   2   0  -4    6.71    0.50
   2   0  -4    5.10    0.43
   2   0  -4    6.42    0.51
  -2   0   4    5.95    0.46
  -2   0   4    5.70    0.45
  -2   0   4    5.63    0.45
  -2   0   4    7.31    0.47
   1   0  -4    4.43    0.35
   1   0  -4    3.62    0.34
   1   0  -4    4.10    0.36
   1   0  -4    3.52    0.36
   1   0  -4    3.23    0.33
  -1   0   4    3.66    0.34
  -1   0   4    3.90    0.34
  -1   0   4    4.15    0.39
  -1   0   4    3.62    0.34
   0   0  -4    5.21    0.43
   0   0  -4    5.80    0.41
   0   0  -4    5.38    0.39
   0   0  -4    5.95    0.43
   0   0  -4    6.01    0.39
   0   0   4    6.28    0.41
   0   0   4    6.01    0.43
   0   0   4    6.18    0.44
  -1   0  -4   47.83    1.81
  -1   0  -4   48.76    1.78
  -1   0  -4   46.32    1.72
  -1   0  -4   44.33    1.73
  -1   0  -4   45.00    1.77
   1   0   4   44.88    1.73
   1   0   4   44.73    1.74
   1   0   4   43.08    1.72
   1   0   4   46.47    1.78
   1   0   4   45.32    1.64
  -2   0  -4   48.43    1.88
  -2   0  -4   50.07    1.92
  -2   0  -4   50.71    1.87
  -2   0  -4   51.61    1.89
   2   0   4   47.86    1.89
   2   0   4   50.43    1.90
  -3   0  -4   10.07    0.59
  -3   0  -4   10.00    0.52
  -3   0  -4   10.42    0.56
  -3   0  -4   10.31    0.58
   3   0   4   10.24    0.49
   3   0   4   10.47    0.49
   3   0   4   10.17    0.60
   3   0   4   10.54    0.55
  -4   0  -4    3.42    0.33
  -4   0  -4    3.35    0.32
  -4   0  -4    2.78    0.27
  -4   0  -4    2.71    0.34
   4   0   4    3.69    0.38
   4   0   4    3.22    0.31
   4   0   4    3.10    0.29
  -5   0  -4    0.46    0.19
  -5   0  -4    0.43    0.19
  -5   0  -4    0.06    0.16
  -5   0  -4    0.79    0.25
  -5   0  -4    0.61    0.24
  -5   0  -4    0.62    0.21
   5   0   4    0.29    0.25
   5   0   4    0.34    0.15
  -6   0  -4  100.91    3.54
  -6   0  -4  102.10    3.80
  -6   0  -4   98.16    3.66
  -6   0  -4   96.92    3.45
  -6   0  -4  102.66    3.57
   6   0   4   97.13    3.75
   6   0   4   97.82    3.46
  -7   0  -4   22.02    1.23
  -7   0  -4   21.12    0.95
  -7   0  -4   18.67    0.89
  -7   0  -4   18.04    1.03
  -8   0  -4    1.79    0.33
  -8   0  -4    2.39    0.57
  -9   0  -4    0.21    0.53
  -9   0  -4   -0.09    0.40
   9   0   4    0.55    0.38
 -10   0  -4    0.72    0.79
  10   0   4    0.93    0.59
   8  -1  -4    1.28    0.49
  -8   1   4    1.08    0.70
  -8   1   4    1.63    0.63
  -7   1   4    0.08    0.58
  -7   1   4   -0.41    0.47
   6  -1  -4   25.06    1.32
   6  -1  -4   26.97    1.13
  -6   1   4   26.63    1.44
  -6   1   4   28.40    1.42
   5  -1  -4    0.35    0.22
  -5   1   4    0.33    0.29
  -5   1   4    0.21    0.37
  -5   1   4   -0.03    0.29
   4  -1  -4    2.16    0.32
   4  -1  -4    1.12    0.29
   4  -1  -4    2.37    0.38
   4  -1  -4    1.44    0.21
  -4   1   4    2.13    0.37
  -4   1   4    1.55    0.31
  -4   1   4    1.53    0.27
   3  -1  -4    8.76    0.60
   3  -1  -4    7.59    0.53
   3  -1  -4    8.46    0.52
   3  -1  -4    9.23    0.44
   3  -1  -4    8.64    0.57
   3  -1  -4    8.72    0.65
  -3   1   4    9.61    0.60
  -3   1   4    8.17    0.56
  -3   1   4    8.74    0.60
  -3   1   4    8.01    0.57
   2  -1  -4   11.72    0.65
   2  -1  -4   12.82    0.72
   2  -1  -4   11.96    0.63
   2  -1  -4   12.49    0.71
   2  -1  -4   12.94    0.68
  -2   1   4   14.67    0.73
  -2   1   4   12.76    0.68
  -2   1   4   12.16    0.68
  -2   1   4   12.16    0.69
   1  -1  -4    3.00    0.27
   1  -1  -4    3.63    0.35
   1  -1  -4    3.33    0.30
   1  -1  -4    3.43    0.30
   1  -1  -4    3.38    0.35
  -1   1   4    3.06    0.29
  -1   1   4    3.31    0.30
  -1   1   4    2.86    0.21
  -1   1   4    3.31    0.33
  -1   1   4    3.14    0.30
   0  -1  -4    2.60    0.30
   0  -1  -4    2.90    0.29
   0  -1  -4    2.77    0.27
   0  -1  -4    2.16    0.24
   0  -1  -4    2.52    0.24
   0   1   4    2.47    0.28
   0   1   4    2.64    0.19
   0   1   4    2.78    0.28
   0   1   4    2.54    0.26
   0   1   4    2.44    0.26
  -1  -1  -4   33.04    1.32
  -1  -1  -4   33.28    1.33
  -1  -1  -4   34.48    1.32
  -1  -1  -4   33.47    1.24
   1   1   4   31.63    1.24
   1   1   4   30.23    1.29
   1   1   4   33.98    1.34
   1   1   4   31.80    1.30
  -2  -1  -4    1.27    0.22
  -2  -1  -4    1.79    0.21
  -2  -1  -4    1.43    0.25
  -2  -1  -4    1.35    0.19
   2   1   4    1.69    0.21
   2   1   4    1.06    0.19
   2   1   4    1.42    0.23
   2   1   4    1.47    0.22
  -3  -1  -4    0.88    0.17
  -3  -1  -4    0.86    0.20
  -3  -1  -4    0.60    0.16
   3   1   4    0.69    0.19
  -4  -1  -4   48.45    1.87
  -4  -1  -4   48.95    1.97
  -4  -1  -4   51.44    1.88
  -4  -1  -4   48.83    1.88
   4   1   4   49.36    1.82
   4   1   4   50.61    1.81
   4   1   4   48.16    1.81
   4   1   4   51.61    1.95
  -5  -1  -4    4.45    0.45
  -5  -1  -4    4.86    0.49
  -5  -1  -4    4.73    0.30
  -5  -1  -4    4.96    0.40
  -5  -1  -4    5.20    0.39
   5   1   4    5.41    0.49
   5   1   4    5.16    0.28
   5   1   4    4.86    0.28
   5   1   4    5.06    0.30
   5   1   4    4.88    0.41
  -6  -1  -4    7.68    0.66
  -6  -1  -4    6.72    0.44
  -6  -1  -4    7.99    0.52
  -6  -1  -4    7.41    0.50
   6   1   4    5.86    0.55
  -7  -1  -4   10.07    0.63
  -7  -1  -4    9.32    0.83
  -8  -1  -4    0.73    0.34
  -8  -1  -4    0.57    0.41
  -8  -1  -4    1.14    0.48
   8   1   4    1.13    0.32
  -9  -1  -4   -0.49    0.55
  -9  -1  -4    0.16    0.38
   9   1   4   -0.32    0.35
   9   1   4   -0.49    0.37
  10   1   4   -0.82    0.56
   8  -2  -4    0.77    0.48
  -8   2   4    0.52    0.65
  -8   2   4    0.02    0.57
  -7   2   4   -0.34    0.52
  -7   2   4    0.25    0.44
  -6   2   4    5.52    0.63
  -6   2   4    5.37    0.75
   5  -2  -4   23.87    1.23
   5  -2  -4   24.62    1.04
   5  -2  -4   24.76    1.06
  -5   2   4   26.76    1.29
  -5   2   4   26.31    1.24
   4  -2  -4   27.20    1.12
   4  -2  -4   26.67    1.08
   4  -2  -4   25.43    1.07
  -4   2   4   21.55    1.41
  -4   2   4   25.90    1.19
  -4   2   4   27.78    1.25
  -4   2   4   26.16    1.19
   3  -2  -4    8.81    0.63
   3  -2  -4    8.63    0.52
   3  -2  -4    7.96    0.48
   3  -2  -4    7.67    0.47
   3  -2  -4    8.57    0.53
  -3   2   4    8.19    0.54
  -3   2   4    7.80    0.51
  -3   2   4    8.91    0.58
   2  -2  -4   15.07    0.73
   2  -2  -4   14.10    0.77
   2  -2  -4   14.57    0.69
   2  -2  -4   13.36    0.70
  -2   2   4   14.25    0.75
  -2   2   4   14.15    0.73
  -2   2   4   14.75    0.73
  -2   2   4   15.09    0.74
   1  -2  -4  291.83    9.27
   1  -2  -4  275.61    9.23
   1  -2  -4  284.79    9.28
   1  -2  -4  281.55    9.33
   1  -2  -4  282.14    9.34
  -1   2   4  246.55    9.08
  -1   2   4  269.96    9.23
  -1   2   4  264.25    9.27
  -1   2   4  264.56    9.30
  -1   2   4  281.24    9.29
   0  -2  -4  128.95    4.41
   0  -2  -4  121.52    4.38
   0  -2  -4  113.18    4.36
   0  -2  -4  137.65    4.46
   0  -2  -4  119.55    4.21
   0   2   4  136.23    4.41
   0   2   4  128.15    4.40
   0   2   4  122.18    4.21
   0   2   4  125.67    4.41
  -1  -2  -4   49.88    1.92
  -1  -2  -4   48.69    1.89
  -1  -2  -4   49.06    1.91
  -1  -2  -4   48.85    1.80
  -1  -2  -4   52.16    1.85
   1   2   4   50.63    1.82
   1   2   4   50.81    1.91
   1   2   4   52.37    1.91
   1   2   4   51.59    1.91
  -2  -2  -4   -0.09    0.14
  -2  -2  -4    0.01    0.13
  -2  -2  -4    0.51    0.17
  -2  -2  -4    0.06    0.07
  -2  -2  -4   -0.10    0.12
   2   2   4   -0.22    0.13
   2   2   4    0.03    0.07
   2   2   4   -0.01    0.11
   2   2   4    0.01    0.11
  -3  -2  -4    0.08    0.08
  -3  -2  -4   -0.07    0.12
  -3  -2  -4    0.37    0.14
  -3  -2  -4    0.13    0.15
  -3  -2  -4   -0.15    0.11
   3   2   4    0.34    0.11
   3   2   4    0.37    0.17
   3   2   4    0.10    0.08
   3   2   4    0.32    0.14
  -4  -2  -4    6.80    0.48
  -4  -2  -4    6.44    0.44
  -4  -2  -4    7.23    0.53
  -4  -2  -4    6.81    0.45
  -4  -2  -4    6.76    0.36
  -4  -2  -4    6.42    0.37
   4   2   4    7.18    0.43
   4   2   4    6.93    0.38
   4   2   4    6.71    0.37
   4   2   4    6.79    0.45
  -5  -2  -4   -0.25    0.17
  -5  -2  -4   -0.01    0.22
  -5  -2  -4   -0.34    0.20
  -5  -2  -4    0.02    0.26
  -5  -2  -4    0.17    0.15
   5   2   4    0.02    0.16
   5   2   4    0.09    0.28
   5   2   4   -0.15    0.20
   5   2   4    0.02    0.09
  -6  -2  -4   15.41    1.07
  -6  -2  -4   19.93    0.96
  -6  -2  -4   19.81    1.13
  -6  -2  -4   20.24    0.94
  -7  -2  -4    1.87    0.44
   7   2   4    1.81    0.32
   7   2   4    1.44    0.18
  -8  -2  -4   -0.86    0.43
  -8  -2  -4    0.28    0.35
   8   2   4    0.52    0.34
  -9  -2  -4    0.35    0.55
  -9  -2  -4   -0.14    0.48
   9   2   4    0.64    0.38
   9   2   4    0.01    0.38
 -10  -2  -4    2.71    0.69
 -10  -2  -4    3.93    0.90
  10   2   4    3.52    0.77
   8  -3  -4    0.52    0.45
  -8   3   4   -0.83    0.55
  -8   3   4    0.46    0.64
   7  -3  -4    1.67    0.33
  -7   3   4    1.81    0.46
   6  -3  -4    0.54    0.26
  -6   3   4    0.68    0.40
  -6   3   4    0.55    0.41
  -6   3   4    0.17    0.33
  -6   3   4    0.45    0.35
   5  -3  -4    0.80    0.23
   5  -3  -4    0.57    0.31
  -5   3   4    0.91    0.28
  -5   3   4    0.71    0.28
   4  -3  -4    5.01    0.50
   4  -3  -4    4.77    0.32
   4  -3  -4    4.61    0.40
   4  -3  -4    4.84    0.30
   4  -3  -4    4.17    0.43
  -4   3   4    3.77    0.48
  -4   3   4    4.80    0.45
  -4   3   4    4.71    0.41
  -4   3   4    4.86    0.44
  -4   3   4    4.39    0.44
   3  -3  -4    7.08    0.53
   3  -3  -4    7.74    0.47
   3  -3  -4    6.96    0.41
   3  -3  -4    7.28    0.56
   3  -3  -4    7.12    0.48
  -3   3   4    7.15    0.50
  -3   3   4    6.65    0.51
  -3   3   4    7.95    0.51
   2  -3  -4   56.16    2.11
   2  -3  -4   60.75    2.29
   2  -3  -4   57.34    2.10
   2  -3  -4   55.04    2.10
   2  -3  -4   57.46    2.16
  -2   3   4   58.88    2.18
  -2   3   4   57.43    2.16
  -2   3   4   56.32    2.12
  -2   3   4   55.81    2.22
   1  -3  -4   97.52    3.53
   1  -3  -4   89.24    3.59
   1  -3  -4  105.54    3.55
   1  -3  -4  104.37    3.48
  -1   3   4   95.96    3.55
  -1   3   4  105.79    3.62
  -1   3   4   97.09    3.56
  -1   3   4  100.89    3.62
  -1   3   4  105.13    3.48
   0  -3  -4   41.54    1.51
   0  -3  -4   38.93    1.42
   0  -3  -4   36.40    1.30
   0  -3  -4   38.87    1.52
   0   3   4   37.12    1.50
   0   3   4   36.46    1.51
   0   3   4   36.72    1.53
   0   3   4   38.34    1.51
  -1  -3  -4    1.38    0.22
  -1  -3  -4    1.29    0.21
  -1  -3  -4    1.35    0.15
  -1  -3  -4    1.34    0.23
   1   3   4    1.51    0.26
   1   3   4    1.33    0.22
   1   3   4    1.36    0.22
   1   3   4    1.26    0.23
  -2  -3  -4   18.51    0.82
  -2  -3  -4   16.74    0.77
  -2  -3  -4   18.04    0.84
  -2  -3  -4   18.28    0.76
   2   3   4   17.71    0.84
   2   3   4   17.15    0.81
   2   3   4   17.71    0.79
   2   3   4   14.24    0.81
  -3  -3  -4    4.57    0.35
  -3  -3  -4    4.36    0.30
  -3  -3  -4    4.67    0.39
  -3  -3  -4    5.33    0.42
   3   3   4    4.42    0.37
   3   3   4    3.75    0.35
   3   3   4    4.69    0.38
  -4  -3  -4    8.90    0.59
  -4  -3  -4    9.80    0.59
  -4  -3  -4    8.92    0.49
  -4  -3  -4    7.78    0.55
   4   3   4    8.41    0.52
   4   3   4    9.50    0.60
   4   3   4    8.64    0.52
   4   3   4    8.66    0.44
  -5  -3  -4    0.84    0.19
  -5  -3  -4    0.92    0.29
  -5  -3  -4    0.75    0.23
   5   3   4    0.74    0.22
   5   3   4    0.45    0.20
   5   3   4    0.96    0.21
   5   3   4    1.02    0.16
  -6  -3  -4   -0.07    0.29
  -6  -3  -4    0.30    0.26
  -6  -3  -4    0.27    0.31
   6   3   4    0.25    0.22
   6   3   4    0.28    0.22
  -7  -3  -4    0.02    0.43
  -7  -3  -4    0.09    0.28
   7   3   4    0.29    0.32
   7   3   4    0.46    0.25
   7   3   4    0.62    0.24
  -8  -3  -4    0.47    0.41
  -8  -3  -4   -0.39    0.45
  -8  -3  -4    0.77    0.53
   8   3   4    0.67    0.35
  -9  -3  -4    0.15    0.50
  -9  -3  -4    0.65    0.58
   9   3   4   -0.42    0.39
   9   3   4    0.12    0.39
 -10  -3  -4    0.86    0.87
 -10  -3  -4    0.70    0.66
  10   3   4    0.13    0.58
   8  -4  -4   -0.37    0.49
  -8   4   4    0.66    0.61
  -8   4   4    0.98    0.61
   7  -4  -4    0.11    0.34
  -7   4   4    0.25    0.46
  -7   4   4    0.87    0.41
   6  -4  -4    2.90    0.45
   6  -4  -4    1.68    0.42
  -6   4   4    2.26    0.42
  -6   4   4    2.48    0.42
   5  -4  -4   12.01    0.84
   5  -4  -4   10.99    0.70
  -5   4   4   12.01    0.64
  -5   4   4   12.78    0.74
  -5   4   4   12.37    0.75
   4  -4  -4    7.66    0.64
   4  -4  -4    7.95    0.56
   4  -4  -4    8.28    0.51
  -4   4   4    7.76    0.54
  -4   4   4    8.00    0.44
  -4   4   4    7.75    0.54
  -4   4   4    8.45    0.58
   3  -4  -4    0.18    0.11
   3  -4  -4    0.42    0.19
   3  -4  -4   -0.17    0.14
   3  -4  -4    0.13    0.12
  -3   4   4    0.54    0.23
  -3   4   4    0.44    0.20
  -3   4   4    0.32    0.16
  -3   4   4    0.15    0.22
  -3   4   4   -0.34    0.19
   2  -4  -4   -0.03    0.12
   2  -4  -4    0.09    0.13
   2  -4  -4    0.18    0.11
   2  -4  -4   -0.12    0.18
   2  -4  -4   -0.22    0.16
  -2   4   4    0.10    0.16
  -2   4   4    0.07    0.18
  -2   4   4   -0.04    0.17
  -2   4   4   -0.28    0.19
  -2   4   4   -0.06    0.10
   1  -4  -4   78.80    2.94
   1  -4  -4   82.59    2.84
   1  -4  -4   79.54    3.05
  -1   4   4   81.78    3.08
  -1   4   4   83.96    3.00
  -1   4   4   89.19    3.01
  -1   4   4   80.01    3.05
   0  -4  -4    4.37    0.41
   0  -4  -4    4.71    0.36
   0  -4  -4    5.05    0.28
   0  -4  -4    4.74    0.40
   0  -4  -4    4.76    0.36
   0   4   4    4.96    0.39
   0   4   4    4.45    0.38
   0   4   4    4.34    0.37
  -1  -4  -4   25.82    1.04
  -1  -4  -4   21.44    1.04
  -1  -4  -4   22.98    1.03
  -1  -4  -4   22.94    1.04
   1   4   4   24.56    1.06
   1   4   4   23.33    1.05
   1   4   4   24.70    1.06
   1   4   4   24.74    1.08
  -2  -4  -4   16.79    0.83
  -2  -4  -4   18.16    0.87
  -2  -4  -4   17.28    0.85
  -2  -4  -4   17.04    0.80
   2   4   4   17.07    0.82
   2   4   4   17.03    0.83
   2   4   4   18.40    0.90
   2   4   4   17.89    0.85
  -3  -4  -4    1.17    0.24
  -3  -4  -4    0.79    0.24
  -3  -4  -4    1.13    0.20
  -3  -4  -4    0.94    0.21
   3   4   4    0.90    0.22
   3   4   4    1.45    0.25
   3   4   4    1.23    0.24
   3   4   4    1.04    0.18
  -4  -4  -4    2.53    0.33
  -4  -4  -4    1.56    0.28
  -4  -4  -4    1.68    0.29
  -4  -4  -4    2.59    0.36
   4   4   4    1.98    0.31
   4   4   4    2.20    0.36
   4   4   4    1.91    0.26
   4   4   4    1.62    0.28
  -5  -4  -4   27.37    1.38
  -5  -4  -4   29.00    1.33
  -5  -4  -4   27.39    1.30
   5   4   4   27.43    1.07
   5   4   4   29.70    1.30
   5   4   4   28.78    1.27
   5   4   4   26.82    1.34
  -6  -4  -4    2.49    0.50
  -6  -4  -4    3.56    0.47
   6   4   4    2.84    0.43
   6   4   4    2.58    0.39
  -7  -4  -4    0.61    0.39
  -7  -4  -4    0.54    0.53
   7   4   4    1.91    0.39
   7   4   4    1.03    0.31
  -8  -4  -4    0.62    0.43
  -8  -4  -4    0.39    0.47
   8   4   4   -0.23    0.32
   8   4   4    0.10    0.40
  -9  -4  -4    0.49    0.66
  -9  -4  -4    1.12    0.58
   9   4   4    0.24    0.45
 -10  -4  -4   -0.38    0.95
 -10  -4  -4   -1.02    0.68
  10   4   4    1.25    0.56
   8  -5  -4    0.65    0.52
  -8   5   4    0.16    0.68
  -8   5   4    0.42    0.75
   7  -5  -4    1.67    0.44
  -7   5   4    2.03    0.62
  -7   5   4    1.75    0.48
   6  -5  -4    0.01    0.33
  -6   5   4   -0.03    0.31
  -6   5   4    0.78    0.48
   5  -5  -4    2.72    0.40
   5  -5  -4    1.52    0.32
  -5   5   4    2.35    0.42
  -5   5   4    1.67    0.49
  -5   5   4    1.99    0.28
  -5   5   4    2.18    0.35
   4  -5  -4    0.86    0.28
   4  -5  -4    0.63    0.20
  -4   5   4    1.08    0.23
  -4   5   4    1.06    0.25
  -4   5   4    0.41    0.23
  -4   5   4    0.77    0.34
  -4   5   4    0.29    0.30
   3  -5  -4    0.80    0.13
   3  -5  -4    1.02    0.15
   3  -5  -4    0.52    0.25
   3  -5  -4    0.80    0.24
  -3   5   4    0.33    0.26
  -3   5   4    0.64    0.13
  -3   5   4    0.76    0.23
  -3   5   4    0.85    0.29
  -3   5   4    0.83    0.21
   2  -5  -4    9.55    0.41
   2  -5  -4   11.14    0.69
   2  -5  -4    9.93    0.50
   2  -5  -4   10.59    0.67
  -2   5   4    9.29    0.58
  -2   5   4    9.09    0.76
  -2   5   4    9.01    0.66
   1  -5  -4   73.59    2.68
   1  -5  -4   72.28    2.80
   1  -5  -4   72.16    2.68
   1  -5  -4   73.60    2.82
  -1   5   4   75.56    2.74
  -1   5   4   73.95    2.82
  -1   5   4   76.14    2.75
   0  -5  -4   11.49    0.68
   0  -5  -4   12.98    0.68
   0  -5  -4   12.46    0.52
   0  -5  -4   12.18    0.65
   0  -5  -4   12.74    0.72
   0   5   4   12.31    0.69
   0   5   4   11.36    0.65
   0   5   4   12.60    0.72
  -1  -5  -4    0.01    0.17
  -1  -5  -4    0.03    0.17
  -1  -5  -4    0.19    0.14
  -1  -5  -4    0.04    0.16
  -1  -5  -4    0.06    0.15
   1   5   4    0.15    0.17
   1   5   4    0.28    0.18
   1   5   4    0.25    0.16
  -2  -5  -4   13.16    0.74
  -2  -5  -4   14.64    0.79
  -2  -5  -4   15.55    0.75
  -2  -5  -4   13.98    0.72
   2   5   4   13.11    0.74
   2   5   4   15.39    0.80
   2   5   4   14.49    0.80
  -3  -5  -4    3.30    0.36
  -3  -5  -4    2.72    0.37
  -3  -5  -4    2.38    0.34
  -3  -5  -4    2.54    0.38
   3   5   4    2.40    0.37
   3   5   4    3.36    0.35
   3   5   4    2.18    0.35
  -4  -5  -4    1.12    0.26
  -4  -5  -4    0.97    0.27
  -4  -5  -4    1.49    0.32
  -4  -5  -4    0.78    0.28
   4   5   4    0.73    0.19
   4   5   4    0.84    0.27
   4   5   4    0.93    0.26
  -5  -5  -4    7.22    0.57
  -5  -5  -4    7.74    0.66
  -5  -5  -4    8.68    0.66
   5   5   4    8.29    0.72
   5   5   4    6.46    0.61
   5   5   4    7.42    0.59
   5   5   4    7.02    0.62
  -6  -5  -4    0.24    0.41
  -6  -5  -4    0.02    0.30
  -6  -5  -4    0.63    0.40
   6   5   4    0.69    0.34
   6   5   4    0.32    0.31
   6   5   4    0.28    0.43
   6   5   4    0.53    0.12
  -7  -5  -4    0.73    0.46
   7   5   4    1.16    0.42
   7   5   4    0.00    0.38
  -8  -5  -4    0.52    0.51
  -8  -5  -4    0.96    0.55
   8   5   4    0.76    0.41
  -9  -5  -4    0.24    0.59
  -9  -5  -4   -0.03    0.73
   9   5   4   -0.30    0.48
   8  -6  -4    0.16    0.51
  -8   6   4   -0.51    0.90
   7  -6  -4   -0.23    0.48
  -7   6   4   -0.52    0.45
  -7   6   4    0.20    0.45
  -7   6   4    0.45    0.66
   6  -6  -4    2.41    0.46
  -6   6   4    1.99    0.58
  -6   6   4    2.12    0.68
  -6   6   4    1.85    0.35
   5  -6  -4    3.10    0.49
  -5   6   4    3.67    0.42
  -5   6   4    3.49    0.48
   4  -6  -4    2.92    0.48
  -4   6   4    3.78    0.45
  -4   6   4    3.07    0.51
   3  -6  -4    1.13    0.29
   3  -6  -4    1.06    0.25
  -3   6   4    1.28    0.27
  -3   6   4    1.14    0.26
  -3   6   4    1.40    0.34
   2  -6  -4    6.71    0.56
   2  -6  -4    6.92    0.55
   2  -6  -4    6.38    0.34
   2  -6  -4    7.21    0.40
  -2   6   4    7.31    0.52
  -2   6   4    6.45    0.47
  -2   6   4    6.05    0.58
   1  -6  -4   22.88    1.13
   1  -6  -4   21.34    0.89
   1  -6  -4   21.66    1.13
   1  -6  -4   22.49    0.99
   1  -6  -4   21.99    1.08
   1  -6  -4   22.73    0.99
  -1   6   4   21.42    1.00
  -1   6   4   24.03    1.09
  -1   6   4   23.28    1.14
   0  -6  -4   33.50    1.46
   0  -6  -4   30.96    1.12
   0  -6  -4   32.96    1.44
   0  -6  -4   31.90    1.39
   0  -6  -4   30.46    1.34
   0   6   4   28.98    1.36
   0   6   4   32.92    1.44
   0   6   4   29.51    1.33
  -1  -6  -4   60.76    2.37
  -1  -6  -4   57.13    2.33
  -1  -6  -4   59.34    2.31
  -1  -6  -4   60.86    2.33
  -1  -6  -4   59.17    2.36
  -1  -6  -4   57.03    2.20
   1   6   4   60.65    2.37
   1   6   4   59.79    2.36
   1   6   4   60.43    2.33
  -2  -6  -4   11.07    0.69
  -2  -6  -4   12.72    0.66
  -2  -6  -4   11.68    0.73
  -2  -6  -4   11.23    0.68
   2   6   4   10.77    0.68
   2   6   4   11.99    0.74
   2   6   4   11.22    0.73
  -3  -6  -4    3.81    0.43
  -3  -6  -4    4.32    0.47
  -3  -6  -4    4.25    0.45
  -3  -6  -4    3.61    0.46
   3   6   4    3.08    0.44
   3   6   4    4.51    0.44
   3   6   4    3.82    0.47
  -4  -6  -4   11.02    0.75
  -4  -6  -4   11.90    0.76
  -4  -6  -4   11.23    0.78
   4   6   4   11.50    0.82
   4   6   4   11.84    0.77
  -5  -6  -4   28.24    1.43
  -5  -6  -4   29.91    1.45
  -5  -6  -4   24.61    1.42
   5   6   4   26.74    1.17
   5   6   4   27.12    1.40
   5   6   4   30.07    1.43
   5   6   4   26.21    1.16
  -6  -6  -4    4.13    0.65
  -6  -6  -4    3.71    0.94
   6   6   4    3.98    0.37
   6   6   4    5.18    0.69
   6   6   4    3.74    0.51
   6   6   4    4.09    0.66
  -7  -6  -4    0.69    0.44
  -7  -6  -4    0.78    0.56
   7   6   4    0.98    0.47
   7   6   4    0.21    0.48
  -8  -6  -4    0.05    0.53
  -8  -6  -4   -0.49    0.58
   8   6   4    0.51    0.52
  -9  -6  -4    2.74    0.85
  -9  -6  -4    1.66    0.81
   8  -7  -4    1.47    0.87
  -8   7   4    1.36    0.89
   7  -7  -4    1.26    0.56
   7  -7  -4    1.59    0.57
  -7   7   4    1.18    0.80
  -6   7   4    1.31    0.42
  -6   7   4    0.08    0.60
   5  -7  -4    0.90    0.45
  -5   7   4    0.96    0.32
  -5   7   4    0.82    0.54
   4  -7  -4   31.65    1.60
  -4   7   4   33.00    1.44
  -4   7   4   33.80    1.70
   3  -7  -4    8.28    0.74
  -3   7   4    7.45    0.59
  -3   7   4    7.96    0.74
   2  -7  -4   91.52    3.53
   2  -7  -4   90.20    3.19
   2  -7  -4   83.92    3.59
  -2   7   4   96.19    3.53
  -2   7   4   91.76    3.39
  -2   7   4   92.11    3.54
   1  -7  -4   28.27    1.18
   1  -7  -4   26.04    1.15
   1  -7  -4   26.35    1.43
   1  -7  -4   27.15    1.13
   1  -7  -4   27.09    1.33
  -1   7   4   28.75    1.28
  -1   7   4   24.28    1.19
  -1   7   4   26.76    1.34
   0  -7  -4   10.40    0.71
   0  -7  -4   10.20    0.64
   0  -7  -4    9.91    0.61
   0  -7  -4    9.55    0.40
   0  -7  -4    7.76    0.70
   0  -7  -4   10.47    0.68
   0   7   4    8.60    0.64
   0   7   4    9.62    0.70
   0   7   4   10.21    0.73
  -1  -7  -4    4.77    0.50
  -1  -7  -4    3.60    0.46
  -1  -7  -4    3.69    0.42
   1   7   4    2.79    0.46
   1   7   4    3.01    0.46
   1   7   4    3.53    0.43
  -2  -7  -4    3.02    0.42
  -2  -7  -4    2.18    0.34
  -2  -7  -4    2.58    0.41
  -2  -7  -4    2.19    0.38
  -2  -7  -4    2.57    0.38
   2   7   4    3.10    0.51
   2   7   4    3.44    0.45
  -3  -7  -4   20.63    1.13
  -3  -7  -4   18.86    1.18
  -3  -7  -4   19.39    1.05
  -3  -7  -4   20.47    1.03
   3   7   4   20.94    1.13
   3   7   4   20.70    1.15
  -4  -7  -4   16.02    1.06
  -4  -7  -4   17.50    0.97
  -4  -7  -4   17.41    1.03
   4   7   4   17.46    0.92
   4   7   4   18.23    1.13
   4   7   4   17.76    1.06
  -5  -7  -4   -0.15    0.30
  -5  -7  -4    0.20    0.49
  -5  -7  -4    0.60    0.39
   5   7   4    0.55    0.43
   5   7   4    0.25    0.25
   5   7   4    0.97    0.40
  -6  -7  -4   -0.63    0.46
  -6  -7  -4    0.32    0.32
  -6  -7  -4    0.01    0.50
   6   7   4    0.20    0.44
   6   7   4    0.18    0.43
   6   7   4    0.50    0.27
  -7  -7  -4   -0.03    0.37
  -7  -7  -4   -0.18    0.57
  -7  -7  -4   -0.22    0.55
   7   7   4   -0.40    0.54
   7   7   4    0.46    0.53
  -8  -7  -4   -0.15    0.58
  -8  -7  -4    0.98    0.74
   8   7   4    1.67    0.64
  -9  -7  -4   -0.22    1.02
  -9  -7  -4    1.02    0.83
   7  -8  -4    0.72    0.63
   7  -8  -4    0.33    0.45
  -7   8   4   -0.21    0.83
   6  -8  -4    5.27    0.87
  -6   8   4    5.48    0.76
  -6   8   4    4.35    0.87
   5  -8  -4    1.74    0.51
  -5   8   4    0.49    0.54
  -5   8   4    1.14    0.56
   4  -8  -4    3.09    0.43
  -4   8   4    3.07    0.55
  -4   8   4    3.77    0.56
   3  -8  -4    1.85    0.29
   3  -8  -4    1.92    0.50
  -3   8   4    1.48    0.44
  -3   8   4    1.53    0.48
   2  -8  -4    6.33    0.69
   2  -8  -4    6.33    0.42
   2  -8  -4    5.96    0.47
  -2   8   4    6.86    0.62
  -2   8   4    6.82    0.68
   1  -8  -4    2.40    0.34
   1  -8  -4    1.99    0.30
   1  -8  -4    1.89    0.43
   1  -8  -4    1.73    0.29
  -1   8   4    1.81    0.44
  -1   8   4    3.05    0.50
  -1   8   4    1.92    0.35
   0  -8  -4   10.45    0.67
   0  -8  -4   10.31    0.68
   0  -8  -4   10.26    0.80
   0   8   4    9.72    0.79
   0   8   4   11.31    0.87
  -1  -8  -4    4.77    0.55
  -1  -8  -4    4.39    0.60
  -1  -8  -4    4.18    0.54
  -1  -8  -4    4.75    0.38
   1   8   4    5.79    0.58
   1   8   4    5.59    0.62
  -2  -8  -4   -0.10    0.29
  -2  -8  -4   -0.03    0.28
  -2  -8  -4   -0.07    0.20
   2   8   4    0.37    0.34
   2   8   4    0.11    0.31
  -3  -8  -4    4.21    0.50
  -3  -8  -4    4.62    0.58
  -3  -8  -4    2.75    0.48
   3   8   4    3.28    0.54
   3   8   4    3.68    0.61
  -4  -8  -4    9.69    0.75
  -4  -8  -4    8.84    1.01
  -4  -8  -4    8.42    0.74
   4   8   4    9.76    0.87
   4   8   4    9.06    0.86
   4   8   4    8.89    0.72
  -5  -8  -4    1.65    0.47
  -5  -8  -4    2.14    0.50
  -5  -8  -4    2.69    0.44
   5   8   4    2.33    0.36
   5   8   4    1.24    0.54
  -6  -8  -4    4.77    0.69
  -6  -8  -4    4.19    0.68
  -6  -8  -4    6.22    0.91
   6   8   4    4.05    0.58
   6   8   4    4.35    0.71
   6   8   4    3.82    0.74
  -7  -8  -4    0.76    0.60
  -7  -8  -4    1.67    0.70
  -7  -8  -4    0.65    0.46
   7   8   4    0.78    0.69
   7   8   4    1.09    0.65
  -8  -8  -4    2.88    0.85
  -8  -8  -4    1.75    0.77
   8   8   4   -0.31    0.75
   8   8   4    0.79    0.57
   7  -9  -4    1.65    0.59
  -7   9   4    0.73    0.88
   6  -9  -4    1.20    0.50
   6  -9  -4    0.55    0.59
  -6   9   4    0.86    0.81
   5  -9  -4    0.63    0.50
  -5   9   4    0.46    0.62
  -5   9   4    0.60    0.44
   4  -9  -4    2.83    0.53
   4  -9  -4    1.48    0.31
  -4   9   4    1.02    0.56
  -4   9   4    1.52    0.45
   3  -9  -4   11.08    0.70
   3  -9  -4   11.19    1.03
  -3   9   4   10.70    0.85
  -3   9   4   12.04    1.00
   2  -9  -4   10.06    1.04
   2  -9  -4   10.43    0.67
  -2   9   4   11.26    1.12
  -2   9   4   11.65    0.85
   1  -9  -4    0.24    0.41
   1  -9  -4    0.02    0.25
   1  -9  -4    0.18    0.24
  -1   9   4    0.03    0.36
  -1   9   4    0.51    0.47
   0  -9  -4    0.30    0.37
   0  -9  -4    0.29    0.39
   0  -9  -4    0.90    0.30
   0  -9  -4    0.47    0.27
   0   9   4    0.73    0.43
   0   9   4    0.05    0.38
  -1  -9  -4    1.63    0.26
  -1  -9  -4    1.97    0.47
  -1  -9  -4    1.89    0.36
   1   9   4    1.92    0.44
   1   9   4    0.66    0.43
  -2  -9  -4   20.07    0.99
  -2  -9  -4   21.04    1.19
  -2  -9  -4   20.91    1.24
   2   9   4   20.83    1.44
   2   9   4   18.77    1.24
  -3  -9  -4   10.41    0.76
  -3  -9  -4   10.28    0.85
   3   9   4    9.70    1.06
   3   9   4   11.52    0.87
   3   9   4   11.11    0.93
  -4  -9  -4    0.66    0.40
  -4  -9  -4    0.59    0.40
  -4  -9  -4    0.22    0.41
   4   9   4    0.57    0.39
   4   9   4    1.99    0.53
   4   9   4    1.08    0.57
  -5  -9  -4    3.69    0.68
  -5  -9  -4    2.44    0.65
  -5  -9  -4    2.89    0.51
   5   9   4    2.57    0.64
   5   9   4    2.60    0.46
   5   9   4    2.44    0.64
  -6  -9  -4   -0.92    0.62
  -6  -9  -4   -0.01    0.57
  -6  -9  -4   -0.36    0.46
   6   9   4   -1.07    0.56
   6   9   4    0.59    0.60
  -7  -9  -4    0.43    0.64
  -7  -9  -4   -0.31    0.69
   7   9   4    0.55    0.74
   7   9   4   -0.52    1.08
   6 -10  -4    0.91    0.61
   6 -10  -4    0.48    0.83
  -6  10   4    0.03    0.91
   5 -10  -4    0.53    0.59
   5 -10  -4    1.21    0.53
  -5  10   4    1.12    0.60
  -5  10   4   -0.30    0.76
   4 -10  -4    0.45    0.55
   4 -10  -4   -0.14    0.37
  -4  10   4   -0.72    0.64
  -4  10   4   -0.40    0.47
   3 -10  -4   -0.20    0.33
   3 -10  -4   -0.16    0.49
  -3  10   4   -0.04    0.47
  -3  10   4    1.06    0.54
   2 -10  -4    2.01    0.55
   2 -10  -4    1.86    0.39
  -2  10   4    1.87    0.54
  -2  10   4    2.17    0.59
   1 -10  -4    0.79    0.36
   1 -10  -4    0.86    0.45
   1 -10  -4    0.50    0.29
  -1  10   4    0.22    0.50
  -1  10   4    0.46    0.45
   0 -10  -4    0.81    0.33
   0 -10  -4    1.08    0.35
   0 -10  -4    1.45    0.47
   0  10   4    1.35    0.48
   0  10   4    0.54    0.56
  -1 -10  -4    0.74    0.45
  -1 -10  -4    1.45    0.42
  -1 -10  -4    0.69    0.26
   1  10   4    0.61    0.47
   1  10   4    1.58    0.53
   1  10   4    1.26    0.49
  -2 -10  -4    1.02    0.43
  -2 -10  -4    0.35    0.55
  -2 -10  -4    0.48    0.30
   2  10   4    0.45    0.51
   2  10   4    1.22    0.55
  -3 -10  -4   -0.20    0.47
  -3 -10  -4    0.47    0.46
  -3 -10  -4   -0.42    0.34
   3  10   4   -0.84    0.50
   3  10   4   -0.30    0.52
   3  10   4   -0.35    0.50
  -4 -10  -4   -0.11    0.45
  -4 -10  -4    0.05    0.56
   4  10   4    0.87    0.60
   4  10   4   -0.46    0.56
   4  10   4    0.52    0.51
  -5 -10  -4    1.18    0.57
  -5 -10  -4    1.57    0.64
   5  10   4    1.44    0.70
   5  10   4    0.95    0.55
   5  10   4    2.24    0.71
  -6 -10  -4    2.68    0.73
  -6 -10  -4    1.74    0.66
  -6 -10  -4    1.42    0.77
   6  10   4    0.33    0.69
   6  10   4    2.15    0.83
   5 -11  -4    1.52    0.57
   5 -11  -4    1.12    0.75
  -5  11   4    0.72    0.84
  -5  11   4    1.83    0.93
   4 -11  -4    0.24    0.50
   4 -11  -4    0.57    0.64
  -4  11   4    0.82    0.70
  -4  11   4   -1.18    0.73
  -4  11   4    0.17    0.66
   3 -11  -4    2.71    0.70
   3 -11  -4    3.29    0.56
  -3  11   4    1.22    0.74
  -3  11   4    2.30    0.63
  -3  11   4    2.36    0.70
   2 -11  -4    6.71    0.75
   2 -11  -4    6.36    0.92
  -2  11   4    6.19    1.02
  -2  11   4    7.54    0.98
  -2  11   4    6.10    1.00
   1 -11  -4    0.80    0.45
   1 -11  -4    0.58    0.36
   1 -11  -4    1.28    0.57
  -1  11   4    0.63    0.55
  -1  11   4    0.95    0.56
  -1  11   4    1.67    0.61
   0 -11  -4    0.80    0.48
   0 -11  -4    0.90    0.53
   0 -11  -4    1.08    0.42
   0  11   4    1.47    0.61
   0  11   4    1.00    0.58
   0  11   4    0.59    0.56
  -1 -11  -4    0.33    0.44
  -1 -11  -4   -0.19    0.48
   1  11   4    0.00    0.52
   1  11   4    0.12    0.55
   1  11   4   -0.81    0.51
  -2 -11  -4    3.24    0.61
  -2 -11  -4    4.74    0.70
  -2 -11  -4    4.20    0.61
   2  11   4    2.17    0.71
   2  11   4    3.76    0.69
   2  11   4    3.17    0.70
  -3 -11  -4    1.29    0.51
  -3 -11  -4    1.38    0.49
  -3 -11  -4    1.08    0.57
   3  11   4    1.35    0.64
   3  11   4    0.33    0.64
   3  11   4    1.61    0.64
  -4 -11  -4    0.85    0.57
  -4 -11  -4   -0.30    0.55
   4  11   4   -0.04    0.74
   4  11   4   -0.76    0.64
   4  11   4    0.69    0.63
  -5 -11  -4    0.37    0.74
  -5 -11  -4    2.77    0.71
  -5 -11  -4    1.36    0.71
   5  11   4   -0.58    0.88
   5  11   4    0.81    0.70
   5  11   4    1.06    0.83
   4 -12  -4    0.42    0.81
  -4  12   4    0.59    0.92
  -4  12   4    1.86    0.97
  -4  12   4    1.14    0.78
   3 -12  -4    1.98    0.70
  -3  12   4    2.21    0.71
  -3  12   4    1.74    0.90
  -3  12   4    0.94    0.80
   2 -12  -4   -0.24    0.65
   2 -12  -4    0.26    0.59
  -2  12   4    0.17    0.70
  -2  12   4   -0.18    0.71
  -2  12   4    0.03    0.74
   1 -12  -4    1.33    0.67
   1 -12  -4   -0.48    0.63
  -1  12   4   -0.46    0.64
  -1  12   4    0.84    0.73
  -1  12   4   -0.12    0.69
   0 -12  -4   -0.93    0.51
   0 -12  -4    0.56    0.58
   0 -12  -4   -0.86    0.62
   0  12   4    0.96    0.68
   0  12   4    0.55    0.63
  -1 -12  -4    1.56    0.61
  -1 -12  -4    2.05    0.69
  -1 -12  -4    2.19    0.62
   1  12   4    2.09    0.75
   1  12   4    0.67    0.75
   1  12   4    2.79    0.70
  -2 -12  -4    2.00    1.04
  -2 -12  -4    0.41    0.71
   2  12   4    0.41    0.67
   2  12   4   -0.64    0.72
   2  12   4    1.05    0.71
  -3 -12  -4    1.15    0.67
  -3 -12  -4    0.83    0.69
   3  12   4    0.65    0.82
   3  12   4    1.26    0.90
   3  12   4    0.55    0.70
  -4 -12  -4    2.35    1.20
   4  12   4    1.33    0.93
   4  12   4    1.11    0.79
   4  12   4    2.31    1.08
  -2  13   4    4.90    1.46
  -2  13   4    2.89    0.93
   1 -13  -4    1.82    0.83
   1 -13  -4    4.20    0.86
  -1  13   4    2.79    0.92
  -1  13   4    3.85    1.05
  -1  13   4    3.32    1.03
   0 -13  -4    1.40    0.77
   0 -13  -4    2.84    0.91
   0  13   4    1.74    0.91
   0  13   4    1.54    0.89
  -1 -13  -4    2.93    0.81
  -1 -13  -4    2.40    0.81
  -1 -13  -4    2.99    0.94
   1  13   4    2.55    0.97
   1  13   4    3.66    1.16
   1  13   4    2.41    0.85
  -2 -13  -4    7.90    1.17
  -2 -13  -4    9.44    1.36
   2  13   4   10.62    1.50
   1   9  -5    1.00    0.69
   1   9  -5    1.69    0.88
   1   9  -5    2.57    0.90
   1   9  -5    1.72    0.97
  -1  -9   5    1.99    0.87
  -1  -9   5    1.00    0.70
   0   9  -5    0.50    0.82
   0   9  -5    0.43    0.74
   0  -9   5    1.23    0.76
   0  -9   5   -0.27    0.62
  -1   9  -5    1.69    0.78
  -1   9  -5    0.85    0.72
  -1   9  -5    1.79    0.75
   1  -9   5    3.00    0.77
  -2   9  -5    0.92    0.73
  -2   9  -5    0.94    0.72
  -2   9  -5    1.16    0.84
   2  -9   5    1.73    0.71
  -3   9  -5    0.56    0.70
  -3   9  -5    1.89    0.80
  -3   9  -5    0.44    0.70
   3  -9   5    0.56    0.69
  -4   9  -5    0.51    0.85
  -4   9  -5    0.54    0.69
  -4   9  -5    0.72    0.72
   4  -9   5    0.31    0.68
  -5   9  -5    1.40    0.89
  -5   9  -5    0.58    0.74
   5  -9   5   -0.86    0.76
   3   8  -5    0.71    0.97
   3   8  -5    2.53    1.25
  -3  -8   5    0.88    0.80
  -3  -8   5    0.11    0.86
  -3  -8   5    0.78    0.82
   2   8  -5   -0.67    0.66
   2   8  -5   -0.05    0.78
   2   8  -5    0.44    0.67
  -2  -8   5   -0.51    0.63
  -2  -8   5    0.30    0.75
   1   8  -5    1.10    0.73
   1   8  -5    1.21    0.72
   1   8  -5    1.11    0.70
  -1  -8   5    0.26    0.55
  -1  -8   5    1.48    0.61
  -1  -8   5    0.80    0.64
   0   8  -5    0.67    0.66
   0   8  -5    0.07    0.60
   0   8  -5    0.03    0.65
   0  -8   5   -0.69    0.60
   0  -8   5    0.98    0.53
   0  -8   5    0.56    0.54
  -1   8  -5    0.73    0.55
  -1   8  -5    0.81    0.65
  -1   8  -5    0.11    0.55
   1  -8   5   -0.23    0.59
   1  -8   5    0.52    0.46
  -2   8  -5    1.91    0.68
  -2   8  -5    0.87    0.53
  -2   8  -5    1.68    0.60
   2  -8   5    0.78    0.44
   2  -8   5    0.59    0.54
  -3   8  -5    3.26    0.76
  -3   8  -5    3.74    0.66
  -3   8  -5    2.64    0.63
   3  -8   5    2.82    0.69
  -4   8  -5    2.64    0.69
  -4   8  -5    2.79    0.63
  -4   8  -5    2.88    0.63
   4  -8   5    2.76    0.67
  -5   8  -5   -0.39    0.71
  -5   8  -5   -0.39    0.56
   5  -8   5   -0.40    0.64
   6  -8   5    5.19    0.89
  -7   8  -5    3.92    1.01
   7  -8   5    1.76    0.96
   4   7  -5    1.07    0.77
   4   7  -5    0.60    0.87
   4   7  -5    0.60    1.08
  -4  -7   5    2.52    0.89
   3   7  -5   -0.06    0.65
   3   7  -5    1.13    0.64
   3   7  -5    0.41    0.59
  -3  -7   5    0.60    0.64
  -3  -7   5    0.22    0.63
   2   7  -5   -0.40    0.56
   2   7  -5    0.02    0.63
   2   7  -5   -0.22    0.60
  -2  -7   5    0.53    0.59
  -2  -7   5    0.74    0.54
  -2  -7   5    0.57    0.51
   1   7  -5    0.80    0.56
   1   7  -5    1.75    0.56
   1   7  -5    1.10    0.56
  -1  -7   5    0.68    0.52
  -1  -7   5    0.94    0.54
  -1  -7   5    0.87    0.52
   0   7  -5    2.32    0.58
   0   7  -5    2.77    0.61
   0  -7   5    2.60    0.56
   0  -7   5    2.82    0.60
   0  -7   5    1.68    0.59
  -1   7  -5    0.59    0.50
  -1   7  -5    0.39    0.48
  -1   7  -5    0.37    0.46
   1  -7   5    0.82    0.49
   1  -7   5   -0.18    0.36
  -2   7  -5    1.13    0.46
  -2   7  -5    1.08    0.55
  -2   7  -5    1.34    0.50
   2  -7   5    1.15    0.49
   2  -7   5    1.07    0.37
  -3   7  -5    1.03    0.52
  -3   7  -5    0.11    0.40
  -3   7  -5    1.11    0.49
   3  -7   5    0.09    0.47
  -4   7  -5    2.18    0.57
  -4   7  -5    1.89    0.48
  -4   7  -5    2.55    0.48
   4  -7   5    2.16    0.54
  -5   7  -5   10.87    0.88
  -5   7  -5   11.41    1.23
  -5   7  -5   11.80    0.94
   5  -7   5   12.13    1.10
  -6   7  -5   11.41    0.94
  -6   7  -5   14.73    1.22
  -6   7  -5   10.63    1.26
   6  -7   5   11.92    1.19
  -7   7  -5    1.87    0.76
   7  -7   5    1.44    0.72
  -8   7  -5   -1.58    0.82
   8  -7   5    0.25    0.84
   5   6  -5    2.41    0.86
   5   6  -5    2.52    0.75
  -5  -6   5    1.26    0.85
  -5  -6   5    0.63    0.83
   4   6  -5    1.61    0.64
   4   6  -5    2.29    0.70
   4   6  -5    3.36    1.10
  -4  -6   5    0.11    0.66
  -4  -6   5    1.09    0.64
   3   6  -5    2.84    0.67
   3   6  -5    0.98    0.57
  -3  -6   5    1.41    0.58
  -3  -6   5    0.58    0.58
   2   6  -5    5.04    0.84
   2   6  -5    3.87    0.70
  -2  -6   5    4.99    0.76
  -2  -6   5    4.09    0.72
  -2  -6   5    3.48    0.60
   1   6  -5    4.24    0.76
   1   6  -5    4.13    0.57
   1   6  -5    5.87    0.78
   1   6  -5    4.58    0.81
  -1  -6   5    4.35    0.72
  -1  -6   5    4.38    0.69
   0   6  -5   -0.20    0.47
   0   6  -5    0.18    0.38
   0   6  -5    0.53    0.41
   0  -6   5    0.28    0.42
   0  -6   5   -0.71    0.36
   0  -6   5    0.26    0.41
  -1   6  -5    0.19    0.43
  -1   6  -5   -0.12    0.38
  -1   6  -5    1.16    0.55
   1  -6   5   -0.33    0.40
   1  -6   5    0.23    0.32
  -2   6  -5    2.08    0.46
  -2   6  -5    1.79    0.47
  -2   6  -5    1.78    0.53
   2  -6   5    2.00    0.56
   2  -6   5    2.53    0.44
   2  -6   5    0.89    0.45
  -3   6  -5    1.75    0.39
  -3   6  -5    2.02    0.45
  -3   6  -5    1.24    0.50
   3  -6   5    1.73    0.30
   3  -6   5    1.72    0.42
  -4   6  -5    0.71    0.33
  -4   6  -5    1.12    0.46
  -4   6  -5    0.89    0.37
  -4   6  -5    1.56    0.54
   4  -6   5    1.39    0.50
  -5   6  -5    2.12    0.39
  -5   6  -5    2.06    0.56
  -5   6  -5    2.13    0.41
   5  -6   5    1.65    0.84
   5  -6   5    3.08    0.40
  -6   6  -5    3.14    0.68
  -6   6  -5    2.09    0.38
  -6   6  -5    2.00    0.44
   6  -6   5    1.53    0.55
   6  -6   5    2.77    0.44
  -7   6  -5    0.73    0.63
   7  -6   5    0.52    0.60
   7  -6   5    0.51    0.42
  -8   6  -5    2.44    0.75
  -8   6  -5    0.96    0.69
   8  -6   5    0.35    0.72
  -6  -5   5   -0.66    1.03
  -6  -5   5   -1.12    1.57
   5   5  -5    0.77    0.60
   5   5  -5    2.25    0.61
  -5  -5   5    0.85    0.66
  -5  -5   5    0.67    0.71
   4   5  -5    1.93    0.57
  -4  -5   5    1.20    0.60
  -4  -5   5    0.47    0.58
   3   5  -5    4.54    0.67
   3   5  -5    5.14    0.80
  -3  -5   5    4.26    0.73
  -3  -5   5    5.02    0.77
   2   5  -5    3.59    0.60
   2   5  -5    2.81    0.58
  -2  -5   5    2.97    0.58
   1   5  -5    7.99    0.83
   1   5  -5    7.23    0.64
   1   5  -5    9.52    0.84
  -1  -5   5    8.65    0.80
  -1  -5   5    9.00    0.89
  -1  -5   5    9.12    0.75
   0   5  -5    1.91    0.39
   0   5  -5    1.35    0.40
   0   5  -5    2.21    0.41
   0   5  -5    2.26    0.51
   0   5  -5    1.71    0.48
   0  -5   5    2.65    0.47
   0  -5   5    2.21    0.43
   0  -5   5    1.89    0.43
  -1   5  -5   -0.34    0.27
  -1   5  -5   -0.43    0.35
  -1   5  -5    0.41    0.32
   1  -5   5    0.16    0.35
   1  -5   5    0.47    0.34
   1  -5   5   -0.01    0.34
   1  -5   5   -0.05    0.27
  -2   5  -5    6.10    0.61
  -2   5  -5    3.55    0.64
  -2   5  -5    4.51    0.53
   2  -5   5    4.10    0.45
   2  -5   5    5.89    0.55
   2  -5   5    4.44    0.48
   2  -5   5    4.45    0.62
  -3   5  -5    0.17    0.36
  -3   5  -5    0.37    0.26
  -3   5  -5    0.34    0.30
   3  -5   5    0.98    0.34
   3  -5   5    0.46    0.22
   3  -5   5    0.54    0.29
  -4   5  -5    0.02    0.27
  -4   5  -5    0.16    0.42
   4  -5   5    0.54    0.38
   4  -5   5    0.74    0.30
  -5   5  -5    1.62    0.33
  -5   5  -5    1.99    0.30
  -5   5  -5    1.75    0.50
   5  -5   5    1.61    0.33
   5  -5   5    0.49    0.47
  -6   5  -5    0.24    0.30
  -6   5  -5   -0.23    0.25
   6  -5   5   -0.69    0.47
   6  -5   5    0.28    0.32
  -7   5  -5    1.20    0.35
  -7   5  -5    1.52    0.49
  -7   5  -5    1.39    0.85
   7  -5   5    1.27    0.59
  -8   5  -5    0.75    0.63
   8  -5   5    0.46    0.66
  -9   5  -5   -0.29    0.74
   9  -5   5    1.28    0.50
  -6  -4   5    1.04    0.80
  -6  -4   5    0.97    0.72
   5   4  -5    0.98    0.52
   5   4  -5    1.32    0.59
   5   4  -5    0.21    0.54
  -5  -4   5   -0.29    0.50
  -5  -4   5    0.04    0.58
   4   4  -5    0.22    0.43
   4   4  -5    0.24    0.56
  -4  -4   5   -0.10    0.46
  -4  -4   5    0.07    0.50
   3   4  -5   24.65    1.40
   3   4  -5   21.69    1.29
   3   4  -5   19.07    0.98
  -3  -4   5   21.50    1.38
  -3  -4   5   21.35    1.33
   2   4  -5   33.68    1.65
   2   4  -5   29.04    1.26
   2   4  -5   28.87    1.52
  -2  -4   5   30.19    1.59
  -2  -4   5   27.80    1.52
   1   4  -5    1.11    0.26
   1   4  -5    1.36    0.31
   1   4  -5    1.09    0.39
   1   4  -5    0.99    0.39
  -1  -4   5    1.22    0.36
  -1  -4   5    1.42    0.38
  -1  -4   5    1.58    0.36
   0   4  -5    0.46    0.25
   0   4  -5   -0.30    0.29
   0   4  -5   -0.17    0.26
   0   4  -5    0.00    0.27
   0  -4   5    0.54    0.34
   0  -4   5   -0.08    0.25
   0  -4   5   -0.43    0.31
   0  -4   5   -0.17    0.26
   0  -4   5    0.44    0.31
  -1   4  -5   18.15    1.04
  -1   4  -5   19.11    1.05
  -1   4  -5   18.23    0.99
  -1   4  -5   21.43    1.01
  -1   4  -5   18.21    1.10
  -1   4  -5   17.27    1.01
   1  -4   5   20.43    1.11
   1  -4   5   19.22    0.98
   1  -4   5   20.79    1.02
   1  -4   5   19.56    1.00
  -2   4  -5    0.78    0.32
  -2   4  -5    0.32    0.31
  -2   4  -5    0.83    0.29
  -2   4  -5    0.96    0.28
  -2   4  -5    0.96    0.27
  -2   4  -5    1.56    0.36
   2  -4   5    0.89    0.28
   2  -4   5    0.91    0.32
   2  -4   5    1.23    0.26
  -3   4  -5    4.22    0.45
  -3   4  -5    4.63    0.59
  -3   4  -5    3.50    0.57
  -3   4  -5    4.39    0.42
  -3   4  -5    4.76    0.47
   3  -4   5    4.54    0.36
   3  -4   5    4.36    0.32
   3  -4   5    5.04    0.59
   3  -4   5    4.49    0.42
  -4   4  -5    1.41    0.38
  -4   4  -5    0.43    0.26
  -4   4  -5    1.12    0.23
   4  -4   5    1.69    0.26
   4  -4   5    0.44    0.35
   4  -4   5    0.76    0.22
  -5   4  -5    8.52    0.54
  -5   4  -5    7.82    0.80
  -5   4  -5    8.57    0.60
   5  -4   5    9.35    0.83
   5  -4   5    8.12    0.56
  -6   4  -5    0.70    0.37
   6  -4   5    1.00    0.31
  -7   4  -5   -0.05    0.28
  -7   4  -5   -0.04    0.43
  -7   4  -5   -0.11    0.27
   7  -4   5   -0.55    0.46
  -8   4  -5    0.01    0.47
  -8   4  -5   -0.19    0.56
   8  -4   5    0.48    0.61
  -9   4  -5    2.81    1.13
   9  -4   5    1.89    0.51
   7   3  -5   -0.15    0.86
   7   3  -5    1.26    0.89
  -7  -3   5    0.09    0.93
  -7  -3   5    0.02    0.76
   6   3  -5   -1.12    0.55
   6   3  -5    0.75    0.57
   6   3  -5   -0.15    0.64
  -6  -3   5    0.34    0.64
  -6  -3   5   -0.56    0.61
   5   3  -5    0.03    0.50
   5   3  -5    0.85    0.45
  -5  -3   5    0.05    0.52
  -5  -3   5    0.84    0.48
   4   3  -5    1.29    0.43
   4   3  -5    1.21    0.54
  -4  -3   5    1.73    0.48
  -4  -3   5    1.10    0.45
   3   3  -5   10.04    0.93
   3   3  -5   10.18    0.51
   3   3  -5   10.50    0.82
  -3  -3   5   10.65    0.88
  -3  -3   5    9.34    0.88
   2   3  -5    0.08    0.30
   2   3  -5   -0.31    0.19
   2   3  -5    0.68    0.39
  -2  -3   5    0.01    0.32
  -2  -3   5   -0.22    0.29
   1   3  -5    0.44    0.21
   1   3  -5    0.56    0.31
   1   3  -5    0.77    0.28
   1   3  -5    0.56    0.27
  -1  -3   5    0.74    0.26
  -1  -3   5    0.76    0.26
  -1  -3   5    0.65    0.32
  -1  -3   5    0.79    0.31
  -1  -3   5    0.92    0.31
   0   3  -5    5.55    0.52
   0   3  -5    6.93    0.66
   0   3  -5    6.85    0.52
   0   3  -5    7.40    0.52
   0   3  -5    6.69    0.59
   0   3  -5    6.93    0.61
   0  -3   5    6.67    0.58
   0  -3   5    7.50    0.58
   0  -3   5    7.00    0.69
   0  -3   5    7.01    0.57
   0  -3   5    7.78    0.59
  -1   3  -5   20.11    0.96
  -1   3  -5   19.08    0.97
  -1   3  -5   19.34    0.92
  -1   3  -5   18.76    1.01
  -1   3  -5   19.91    1.10
  -1   3  -5   19.20    0.98
  -1   3  -5   19.03    1.03
   1  -3   5   19.52    0.92
   1  -3   5   19.14    1.04
   1  -3   5   16.49    0.91
   1  -3   5   18.76    1.01
  -2   3  -5    2.38    0.37
  -2   3  -5    2.42    0.36
  -2   3  -5    2.55    0.32
  -2   3  -5    2.21    0.32
  -2   3  -5    2.06    0.30
  -2   3  -5    2.89    0.45
   2  -3   5    2.59    0.34
   2  -3   5    2.55    0.31
   2  -3   5    2.24    0.31
   2  -3   5    2.77    0.40
   2  -3   5    2.39    0.41
  -3   3  -5   25.28    1.24
  -3   3  -5   23.11    1.11
  -3   3  -5   22.10    1.04
  -3   3  -5   21.40    1.30
  -3   3  -5   24.71    1.20
  -3   3  -5   23.81    1.19
  -3   3  -5   22.12    0.95
  -3   3  -5   23.74    1.13
   3  -3   5   23.67    1.18
   3  -3   5   24.82    1.23
   3  -3   5   24.12    0.98
  -4   3  -5    5.41    0.45
  -4   3  -5    4.05    0.55
  -4   3  -5    4.48    0.55
  -4   3  -5    4.59    0.31
  -4   3  -5    4.72    0.42
   4  -3   5    5.16    0.32
   4  -3   5    5.29    0.59
   4  -3   5    5.37    0.55
   4  -3   5    4.90    0.38
  -5   3  -5    5.47    0.62
  -5   3  -5    5.83    0.49
   5  -3   5    6.30    0.47
   5  -3   5    4.97    0.61
   5  -3   5    5.80    0.62
  -6   3  -5    1.07    0.25
  -6   3  -5    0.49    0.34
  -6   3  -5    0.19    0.24
   6  -3   5    0.89    0.29
   6  -3   5    0.43    0.36
   6  -3   5    0.12    0.41
  -7   3  -5    1.21    0.29
  -7   3  -5    1.51    0.39
  -7   3  -5    1.15    0.47
   7  -3   5    1.13    0.51
  -8   3  -5   -0.25    0.39
  -8   3  -5    0.34    0.49
  -9   3  -5   -0.64    0.65
   9  -3   5   -0.04    0.46
 -10   3  -5    0.41    0.81
  10  -3   5    0.23    0.62
  -7  -2   5    1.43    0.84
  -7  -2   5    1.54    0.80
   6   2  -5    0.62    0.46
   6   2  -5    0.08    0.52
  -6  -2   5    0.39    0.59
  -6  -2   5   -0.66    0.51
   5   2  -5   -0.10    0.39
   5   2  -5    0.02    0.37
  -5  -2   5    0.16    0.52
  -5  -2   5    0.20    0.42
   4   2  -5    0.51    0.34
   4   2  -5    0.09    0.39
   3   2  -5    9.59    0.78
   3   2  -5   10.93    0.79
   3   2  -5   10.41    0.49
  -3  -2   5   10.93    0.81
  -3  -2   5   10.68    0.83
  -3  -2   5    9.10    0.75
   2   2  -5    2.39    0.29
   2   2  -5    3.27    0.50
   2   2  -5    2.49    0.43
  -2  -2   5    2.99    0.49
  -2  -2   5    2.52    0.41
  -2  -2   5    3.03    0.48
  -2  -2   5    2.40    0.42
   1   2  -5    4.86    0.47
   1   2  -5    4.36    0.45
   1   2  -5    5.95    0.56
   1   2  -5    4.39    0.48
   1   2  -5    3.80    0.46
   1   2  -5    4.75    0.38
  -1  -2   5    3.97    0.49
  -1  -2   5    4.42    0.48
  -1  -2   5    4.39    0.46
  -1  -2   5    5.01    0.49
  -1  -2   5    3.63    0.47
  -1  -2   5    4.32    0.45
   0   2  -5   19.07    1.01
   0   2  -5   18.92    0.92
   0   2  -5   19.06    1.02
   0   2  -5   22.94    1.04
   0   2  -5   19.01    0.96
   0   2  -5   19.54    1.07
   0  -2   5   18.07    0.99
   0  -2   5   20.05    0.98
   0  -2   5   20.54    0.96
   0  -2   5   18.44    0.96
   0  -2   5   20.98    1.02
   0  -2   5   19.52    1.03
  -1   2  -5    8.02    0.53
  -1   2  -5    7.80    0.56
  -1   2  -5    7.03    0.49
  -1   2  -5    6.17    0.69
  -1   2  -5    7.38    0.57
  -1   2  -5    8.06    0.61
   1  -2   5    8.03    0.54
   1  -2   5    8.04    0.60
   1  -2   5    8.45    0.58
   1  -2   5    6.94    0.51
   1  -2   5    7.15    0.47
  -2   2  -5    4.29    0.41
  -2   2  -5    4.72    0.47
  -2   2  -5    5.32    0.43
  -2   2  -5    4.96    0.42
  -2   2  -5    4.75    0.44
  -2   2  -5    6.08    0.51
   2  -2   5    5.77    0.38
   2  -2   5    4.45    0.47
   2  -2   5    5.61    0.45
   2  -2   5    5.08    0.33
   2  -2   5    5.48    0.43
   2  -2   5    5.06    0.39
  -3   2  -5    2.95    0.39
  -3   2  -5    3.65    0.35
  -3   2  -5    3.17    0.38
  -3   2  -5    3.30    0.36
  -3   2  -5    4.04    0.46
  -3   2  -5    3.28    0.44
   3  -2   5    3.27    0.30
   3  -2   5    3.33    0.31
   3  -2   5    3.35    0.44
   3  -2   5    3.00    0.39
  -4   2  -5   26.57    1.27
  -4   2  -5   26.36    1.27
  -4   2  -5   26.88    1.15
  -4   2  -5   26.55    1.27
  -4   2  -5   27.18    1.14
   4  -2   5   25.27    1.20
   4  -2   5   26.13    1.31
   4  -2   5   25.87    1.12
  -5   2  -5    1.75    0.32
  -5   2  -5    1.59    0.28
  -5   2  -5    1.23    0.40
   5  -2   5    1.96    0.31
   5  -2   5    1.30    0.38
   5  -2   5    1.36    0.29
  -6   2  -5    3.01    0.35
  -6   2  -5    3.80    0.50
  -6   2  -5    2.71    0.37
   6  -2   5    3.31    0.47
   6  -2   5    3.49    0.56
   6  -2   5    2.89    0.34
  -7   2  -5    1.25    0.32
  -7   2  -5    1.73    0.52
  -7   2  -5    1.55    0.27
  -8   2  -5    0.29    0.48
  -8   2  -5   -0.23    0.32
  -8   2  -5    0.03    0.27
  -9   2  -5   -0.95    0.56
 -10   2  -5    2.36    0.92
  10  -2   5    1.06    0.69
   7   1  -5    1.45    0.62
  -7  -1   5    0.62    0.71
  -7  -1   5    0.59    0.72
   6   1  -5    0.37    0.45
  -6  -1   5    0.58    0.47
  -6  -1   5    0.60    0.54
   5   1  -5    0.01    0.39
   5   1  -5   -0.03    0.39
  -5  -1   5    1.17    0.47
  -5  -1   5    0.30    0.38
  -5  -1   5   -0.14    0.40
   4   1  -5   11.37    0.80
   4   1  -5   11.62    0.82
  -4  -1   5   11.36    0.94
  -4  -1   5   10.99    0.85
   3   1  -5    1.51    0.33
   3   1  -5    1.36    0.21
   3   1  -5    1.38    0.36
  -3  -1   5    1.65    0.34
  -3  -1   5    1.25    0.36
   2   1  -5    5.30    0.49
   2   1  -5    4.98    0.52
   2   1  -5    6.29    0.52
   2   1  -5    6.12    0.54
   2   1  -5    6.15    0.54
  -2  -1   5    5.67    0.55
  -2  -1   5    5.36    0.56
  -2  -1   5    5.34    0.53
  -2  -1   5    4.77    0.51
  -2  -1   5    5.90    0.53
   1   1  -5    0.83    0.23
   1   1  -5    0.46    0.22
   1   1  -5    0.36    0.19
   1   1  -5    0.14    0.20
   1   1  -5    0.20    0.22
  -1  -1   5    0.03    0.22
  -1  -1   5    0.23    0.21
  -1  -1   5    0.34    0.22
  -1  -1   5    0.27    0.18
  -1  -1   5    0.76    0.23
  -1  -1   5   -0.12    0.18
   0   1  -5   47.60    1.96
   0   1  -5   49.51    1.94
   0   1  -5   47.79    2.00
   0   1  -5   50.30    2.01
   0   1  -5   50.37    2.04
   0  -1   5   49.36    2.00
   0  -1   5   52.90    2.00
   0  -1   5   48.37    1.92
   0  -1   5   50.42    2.02
   0  -1   5   49.02    2.12
   0  -1   5   51.41    2.04
  -1   1  -5   19.09    0.90
  -1   1  -5   17.89    0.95
  -1   1  -5   20.03    0.94
  -1   1  -5   18.35    0.92
  -1   1  -5   18.92    0.83
   1  -1   5   18.42    0.88
   1  -1   5   18.00    0.92
   1  -1   5   17.09    0.80
   1  -1   5   17.26    0.87
   1  -1   5   18.18    0.89
  -2   1  -5   26.96    1.19
  -2   1  -5   26.48    1.19
  -2   1  -5   26.42    1.24
  -2   1  -5   25.49    1.19
  -2   1  -5   27.15    1.15
   2  -1   5   25.39    1.21
   2  -1   5   27.28    1.02
   2  -1   5   27.03    1.20
   2  -1   5   27.87    1.15
   2  -1   5   26.39    1.13
  -3   1  -5   11.18    0.61
  -3   1  -5   11.48    0.64
  -3   1  -5   11.22    0.70
  -3   1  -5   10.30    0.64
   3  -1   5   10.90    0.55
   3  -1   5   12.04    0.67
   3  -1   5   12.07    0.71
   3  -1   5   10.74    0.61
   3  -1   5   10.78    0.56
  -4   1  -5    0.28    0.22
  -4   1  -5    0.21    0.17
  -4   1  -5   -0.38    0.24
  -4   1  -5   -0.01    0.16
  -4   1  -5   -0.07    0.19
   4  -1   5    0.05    0.10
   4  -1   5    0.04    0.09
   4  -1   5    0.15    0.22
   4  -1   5    0.00    0.18
   4  -1   5    0.06    0.19
  -5   1  -5   33.00    1.30
  -5   1  -5   31.27    1.37
  -5   1  -5   28.75    1.42
  -5   1  -5   31.12    1.30
  -5   1  -5   31.85    1.50
   5  -1   5   31.90    1.50
   5  -1   5   31.12    1.34
  -6   1  -5   25.57    1.17
  -6   1  -5   24.56    1.09
   6  -1   5   24.16    1.12
   6  -1   5   25.03    1.34
  -7   1  -5    3.57    0.63
  -7   1  -5    4.84    0.48
  -7   1  -5    4.82    0.56
  -7   1  -5    3.27    0.43
  -8   1  -5    0.40    0.28
  -8   1  -5   -0.29    0.25
  -9   1  -5   11.10    0.79
  -9   1  -5   12.70    1.25
 -10   1  -5    2.12    0.81
  10  -1   5    1.54    0.76
   8   0  -5    1.58    0.69
  -8   0   5    1.43    0.97
  -8   0   5   -0.06    0.78
   7   0  -5    0.96    0.44
  -7   0   5    0.58    0.61
  -7   0   5    1.10    0.56
   6   0  -5    0.15    0.37
  -6   0   5    0.30    0.46
  -6   0   5    0.14    0.49
   5   0  -5   12.14    0.92
   5   0  -5   14.90    0.95
   5   0  -5   15.65    0.92
  -5   0   5   14.77    1.00
  -5   0   5   12.92    1.08
  -5   0   5   13.59    0.90
   4   0  -5   14.24    0.89
   4   0  -5   17.22    0.95
   4   0  -5   14.50    0.91
  -4   0   5   15.40    0.99
  -4   0   5   15.80    0.99
   3   0  -5   50.15    2.06
   3   0  -5   49.70    2.11
   3   0  -5   51.28    2.13
   3   0  -5   47.86    2.11
   3   0  -5   52.13    2.20
  -3   0   5   55.04    2.16
  -3   0   5   51.69    2.17
  -3   0   5   50.44    2.08
  -3   0   5   51.56    2.15
   2   0  -5    7.98    0.58
   2   0  -5    9.25    0.66
   2   0  -5   10.38    0.68
   2   0  -5    8.63    0.58
   2   0  -5    9.27    0.63
  -2   0   5    8.48    0.63
  -2   0   5    8.84    0.62
  -2   0   5    9.36    0.62
  -2   0   5    8.85    0.60
  -2   0   5    9.23    0.65
   1   0  -5    9.81    0.63
   1   0  -5   10.97    0.68
   1   0  -5    9.44    0.61
   1   0  -5   10.17    0.66
   1   0  -5   11.53    0.65
  -1   0   5    9.53    0.62
  -1   0   5   10.88    0.63
  -1   0   5   11.19    0.61
  -1   0   5    9.98    0.64
  -1   0   5    9.59    0.66
  -1   0   5   10.41    0.58
   0   0  -5    1.00    0.20
   0   0  -5    1.13    0.20
   0   0  -5    0.86    0.21
   0   0  -5    0.78    0.27
   0   0  -5    0.78    0.21
   0   0   5    0.79    0.21
   0   0   5    1.14    0.22
   0   0   5    0.59    0.20
   0   0   5    0.69    0.18
   0   0   5    0.88    0.19
   0   0   5    0.65    0.21
  -1   0  -5   19.26    0.89
  -1   0  -5   17.50    0.82
  -1   0  -5   18.74    1.09
  -1   0  -5   18.58    0.87
  -1   0  -5   18.23    0.80
  -1   0  -5   18.57    0.93
   1   0   5   17.05    0.90
   1   0   5   17.75    0.85
   1   0   5   16.90    0.85
   1   0   5   18.91    0.88
   1   0   5   18.19    0.78
  -2   0  -5   65.26    2.39
  -2   0  -5   65.19    2.42
  -2   0  -5   63.56    2.45
  -2   0  -5   62.27    2.38
   2   0   5   61.14    2.21
   2   0   5   62.17    2.37
   2   0   5   66.60    2.41
   2   0   5   61.62    2.42
   2   0   5   66.53    2.38
  -3   0  -5   23.92    1.10
  -3   0  -5   23.10    1.07
  -3   0  -5   23.97    1.03
  -3   0  -5   24.03    1.06
   3   0   5   24.66    1.01
   3   0   5   23.52    1.01
   3   0   5   23.76    1.10
   3   0   5   23.19    1.06
  -4   0  -5    8.66    0.51
  -4   0  -5    8.35    0.53
  -4   0  -5    8.82    0.56
  -4   0  -5    8.11    0.57
   4   0   5    8.91    0.44
   4   0   5    8.45    0.53
   4   0   5    8.30    0.44
   4   0   5    8.01    0.53
   4   0   5    8.41    0.60
  -5   0  -5    2.62    0.34
  -5   0  -5    2.56    0.40
  -5   0  -5    2.64    0.34
  -5   0  -5    3.01    0.34
   5   0   5    3.26    0.43
   5   0   5    3.41    0.33
   5   0   5    3.72    0.46
  -6   0  -5    0.16    0.31
  -6   0  -5   -0.16    0.31
  -6   0  -5    0.10    0.21
  -6   0  -5    0.42    0.20
   6   0   5   -0.09    0.19
  -7   0  -5    6.77    0.50
  -7   0  -5    8.54    0.79
  -7   0  -5    8.20    0.56
  -7   0  -5    6.65    0.43
  -8   0  -5    9.34    0.99
  -8   0  -5    7.67    0.60
  -9   0  -5    3.27    0.49
   9   0   5    2.63    0.47
 -10   0  -5    2.71    0.84
  10   0   5    1.48    0.67
  -8   1   5    0.96    0.77
  -8   1   5    0.85    0.73
   7  -1  -5   -0.01    0.44
  -7   1   5   -0.01    0.57
  -7   1   5    0.97    0.66
   6  -1  -5    1.51    0.36
  -6   1   5    2.15    0.65
  -6   1   5    2.44    0.59
  -6   1   5    1.72    0.53
   5  -1  -5    2.83    0.21
  -5   1   5    3.02    0.51
  -5   1   5    3.02    0.44
  -5   1   5    3.93    0.59
   4  -1  -5   35.49    1.42
   4  -1  -5   38.12    1.63
   4  -1  -5   38.66    1.71
  -4   1   5   40.24    1.77
  -4   1   5   38.49    1.71
   3  -1  -5   11.28    0.74
   3  -1  -5   11.97    0.73
   3  -1  -5   11.19    0.73
   3  -1  -5   10.38    0.68
   3  -1  -5   11.40    0.70
  -3   1   5   11.30    0.71
  -3   1   5   10.14    0.70
  -3   1   5   11.05    0.71
  -3   1   5   10.13    0.71
   2  -1  -5    1.02    0.24
   2  -1  -5    0.54    0.20
   2  -1  -5    1.17    0.26
   2  -1  -5    1.30    0.28
   2  -1  -5    1.22    0.26
  -2   1   5    0.64    0.22
  -2   1   5    1.00    0.25
  -2   1   5    0.76    0.25
  -2   1   5    0.76    0.24
   1  -1  -5   33.53    1.48
   1  -1  -5   35.78    1.47
   1  -1  -5   36.35    1.43
   1  -1  -5   33.24    1.45
   1  -1  -5   34.66    1.43
  -1   1   5   31.26    1.43
  -1   1   5   34.25    1.46
  -1   1   5   32.19    1.43
  -1   1   5   33.18    1.33
   0  -1  -5   20.85    0.99
   0  -1  -5   23.81    1.05
   0  -1  -5   20.01    0.95
   0  -1  -5   20.87    0.97
   0  -1  -5   20.84    0.96
   0   1   5   19.94    0.86
   0   1   5   22.16    1.01
   0   1   5   19.33    0.97
   0   1   5   22.46    0.99
   0   1   5   20.84    0.99
  -1  -1  -5   14.32    0.77
  -1  -1  -5   15.11    0.75
  -1  -1  -5   14.74    0.73
  -1  -1  -5   14.09    0.66
  -1  -1  -5   12.54    0.69
   1   1   5   13.75    0.73
   1   1   5   12.38    0.72
   1   1   5   14.06    0.72
   1   1   5   14.44    0.74
  -2  -1  -5   11.02    0.65
  -2  -1  -5   12.33    0.63
  -2  -1  -5   13.21    0.66
  -2  -1  -5   11.51    0.64
   2   1   5   12.11    0.66
   2   1   5   10.76    0.62
   2   1   5   12.56    0.64
   2   1   5   11.78    0.63
   2   1   5   11.82    0.50
  -3  -1  -5   -0.30    0.17
  -3  -1  -5   -0.06    0.14
  -3  -1  -5    0.04    0.13
  -3  -1  -5    0.14    0.16
   3   1   5   -0.04    0.15
   3   1   5    0.06    0.14
   3   1   5    0.30    0.18
   3   1   5   -0.03    0.15
  -4  -1  -5    0.05    0.17
  -4  -1  -5    0.22    0.21
  -4  -1  -5    0.37    0.16
  -4  -1  -5   -0.02    0.17
   4   1   5    0.12    0.15
   4   1   5    0.48    0.15
   4   1   5    0.27    0.15
  -5  -1  -5   20.39    0.96
  -5  -1  -5   22.19    1.17
  -5  -1  -5   22.25    0.96
  -5  -1  -5   19.78    1.04
   5   1   5   20.90    0.92
   5   1   5   21.18    0.86
   5   1   5   21.65    1.04
   5   1   5   20.38    0.86
  -6  -1  -5    1.50    0.27
  -6  -1  -5    1.30    0.28
  -6  -1  -5    1.10    0.30
  -6  -1  -5    1.09    0.33
  -7  -1  -5    1.77    0.27
  -7  -1  -5    1.68    0.44
  -7  -1  -5    1.99    0.34
   7   1   5    1.64    0.25
  -8  -1  -5    0.48    0.48
  -8  -1  -5    0.38    0.33
  -8  -1  -5    0.23    0.37
  -9  -1  -5    2.16    0.44
  -9  -1  -5    2.61    0.68
   9   1   5    2.09    0.43
 -10  -1  -5    0.80    0.76
  10   1   5    0.62    0.58
   8  -2  -5    0.84    0.56
  -8   2   5    0.32    0.68
  -8   2   5   -0.16    0.76
  -7   2   5    1.37    0.61
  -7   2   5    2.49    0.59
   6  -2  -5    0.03    0.19
  -6   2   5    0.16    0.43
  -6   2   5   -0.56    0.44
   5  -2  -5    0.23    0.35
   5  -2  -5    1.13    0.24
  -5   2   5    0.83    0.32
  -5   2   5    0.66    0.40
  -5   2   5    0.62    0.37
   4  -2  -5   13.71    0.73
   4  -2  -5   13.02    0.67
   4  -2  -5   11.46    0.82
   4  -2  -5   13.68    0.72
  -4   2   5   13.30    0.85
  -4   2   5   13.17    0.84
  -4   2   5   13.90    0.84
   3  -2  -5   25.23    1.07
   3  -2  -5   25.94    1.24
   3  -2  -5   25.30    1.11
   3  -2  -5   22.91    1.24
   3  -2  -5   25.23    1.18
  -3   2   5   25.37    1.20
  -3   2   5   23.77    1.18
  -3   2   5   23.36    1.15
  -3   2   5   24.89    1.18
   2  -2  -5    0.00    0.19
   2  -2  -5   -0.29    0.18
   2  -2  -5   -0.09    0.16
   2  -2  -5   -0.07    0.21
  -2   2   5   -0.17    0.19
  -2   2   5   -0.08    0.19
  -2   2   5   -0.09    0.16
  -2   2   5    0.15    0.17
   1  -2  -5    1.33    0.23
   1  -2  -5    1.01    0.21
   1  -2  -5    1.61    0.27
   1  -2  -5    1.42    0.24
   1  -2  -5    1.27    0.21
  -1   2   5    0.68    0.19
  -1   2   5    1.67    0.28
  -1   2   5    0.93    0.20
  -1   2   5    1.06    0.24
   0  -2  -5    9.07    0.51
   0  -2  -5    8.05    0.50
   0  -2  -5    7.60    0.51
   0  -2  -5    8.26    0.54
   0  -2  -5    8.32    0.58
   0   2   5    8.82    0.40
   0   2   5    8.61    0.54
   0   2   5    9.12    0.56
   0   2   5    8.30    0.53
  -1  -2  -5   74.24    3.03
  -1  -2  -5   81.55    3.04
  -1  -2  -5   83.94    3.10
  -1  -2  -5   87.50    3.10
  -1  -2  -5   86.74    3.01
  -1  -2  -5   82.69    2.94
   1   2   5   87.24    3.08
   1   2   5   88.20    3.09
   1   2   5   86.52    3.10
   1   2   5   83.09    2.94
  -2  -2  -5   59.50    2.27
  -2  -2  -5   54.75    2.22
  -2  -2  -5   60.85    2.27
  -2  -2  -5   56.62    2.18
  -2  -2  -5   62.60    2.15
   2   2   5   61.45    2.26
   2   2   5   60.96    2.11
   2   2   5   60.43    2.26
   2   2   5   58.03    2.24
  -3  -2  -5    0.68    0.16
  -3  -2  -5    0.39    0.19
  -3  -2  -5    0.28    0.15
  -3  -2  -5    0.53    0.18
   3   2   5    0.49    0.09
   3   2   5    0.76    0.15
   3   2   5    0.36    0.15
   3   2   5    0.46    0.19
  -4  -2  -5    5.14    0.45
  -4  -2  -5    5.80    0.42
  -4  -2  -5    6.11    0.45
  -4  -2  -5    5.56    0.42
   4   2   5    6.12    0.41
   4   2   5    5.64    0.41
   4   2   5    5.48    0.64
   4   2   5    5.62    0.30
  -5  -2  -5    2.60    0.41
  -5  -2  -5    3.08    0.38
  -5  -2  -5    2.74    0.45
  -5  -2  -5    3.15    0.37
  -5  -2  -5    2.79    0.42
   5   2   5    2.37    0.32
   5   2   5    2.89    0.33
   5   2   5    3.52    0.37
  -6  -2  -5    1.30    0.28
  -6  -2  -5    1.42    0.28
  -6  -2  -5    1.98    0.44
  -6  -2  -5    1.27    0.32
   6   2   5    1.56    0.22
   6   2   5    1.67    0.22
  -7  -2  -5    0.35    0.36
  -7  -2  -5    0.07    0.39
  -7  -2  -5   -0.01    0.23
  -7  -2  -5   -0.50    0.26
   7   2   5    0.11    0.26
  -8  -2  -5    0.79    0.37
  -8  -2  -5    0.83    0.53
   8   2   5    1.56    0.33
  -9  -2  -5    1.63    0.62
  -9  -2  -5    0.97    0.48
   9   2   5    0.59    0.40
 -10  -2  -5   -0.01    0.83
 -10  -2  -5    0.22    0.66
  10   2   5    0.61    0.58
   8  -3  -5    0.21    0.54
  -8   3   5    0.57    0.70
  -8   3   5    0.03    0.69
  -7   3   5    0.30    0.53
  -7   3   5    0.61    0.53
   6  -3  -5    0.71    0.27
  -6   3   5    0.37    0.43
  -6   3   5    0.65    0.41
   5  -3  -5   12.63    0.93
   5  -3  -5   13.95    0.73
   5  -3  -5   14.30    0.85
  -5   3   5   14.26    0.93
  -5   3   5   15.39    0.91
   4  -3  -5    6.91    0.48
   4  -3  -5    6.45    0.48
   4  -3  -5    5.87    0.44
   4  -3  -5    6.54    0.57
  -4   3   5    6.55    0.59
  -4   3   5    6.27    0.56
  -4   3   5    6.11    0.59
   3  -3  -5    6.37    0.49
   3  -3  -5    6.56    0.44
   3  -3  -5    7.62    0.58
   3  -3  -5    6.87    0.48
   3  -3  -5    6.37    0.45
  -3   3   5    5.64    0.57
  -3   3   5    6.71    0.49
  -3   3   5    6.27    0.51
   2  -3  -5    8.68    0.52
   2  -3  -5    9.11    0.53
   2  -3  -5    8.72    0.55
   2  -3  -5    8.66    0.61
  -2   3   5    9.25    0.60
  -2   3   5    7.87    0.54
  -2   3   5    8.85    0.54
   1  -3  -5    5.99    0.42
   1  -3  -5    4.95    0.43
   1  -3  -5    5.87    0.39
   1  -3  -5    5.30    0.39
  -1   3   5    5.14    0.41
  -1   3   5    5.27    0.42
  -1   3   5    5.48    0.43
  -1   3   5    4.83    0.42
   0  -3  -5   44.89    1.75
   0  -3  -5   44.82    1.60
   0  -3  -5   48.99    1.91
   0  -3  -5   49.53    1.84
   0  -3  -5   46.84    1.84
   0  -3  -5   46.02    1.82
   0   3   5   44.46    1.85
   0   3   5   46.65    1.82
   0   3   5   42.74    1.83
   0   3   5   48.71    1.85
  -1  -3  -5   34.90    1.36
  -1  -3  -5   32.05    1.42
  -1  -3  -5   35.11    1.26
  -1  -3  -5   32.89    1.40
  -1  -3  -5   33.94    1.39
   1   3   5   35.06    1.36
   1   3   5   32.36    1.40
   1   3   5   33.82    1.42
   1   3   5   31.78    1.39
  -2  -3  -5    1.93    0.26
  -2  -3  -5    1.38    0.24
  -2  -3  -5    1.44    0.23
  -2  -3  -5    1.57    0.29
  -2  -3  -5    1.89    0.27
  -2  -3  -5    1.79    0.24
   2   3   5    1.92    0.27
   2   3   5    1.56    0.26
   2   3   5    1.94    0.28
  -3  -3  -5    0.21    0.11
  -3  -3  -5    0.21    0.16
  -3  -3  -5    0.17    0.17
  -3  -3  -5    0.20    0.17
  -3  -3  -5    0.11    0.16
   3   3   5    0.14    0.15
   3   3   5    0.09    0.18
   3   3   5    0.32    0.16
   3   3   5    0.13    0.14
  -4  -3  -5    4.93    0.36
  -4  -3  -5    4.65    0.44
  -4  -3  -5    4.89    0.40
  -4  -3  -5    4.14    0.40
  -4  -3  -5    3.98    0.43
   4   3   5    4.47    0.35
   4   3   5    4.56    0.35
   4   3   5    4.68    0.43
  -5  -3  -5    4.00    0.41
  -5  -3  -5    4.38    0.44
  -5  -3  -5    4.90    0.57
  -5  -3  -5    4.66    0.37
  -5  -3  -5    3.60    0.47
   5   3   5    4.76    0.40
   5   3   5    5.17    0.44
   5   3   5    4.38    0.35
   5   3   5    5.07    0.43
   5   3   5    4.64    0.41
  -6  -3  -5   10.52    0.72
  -6  -3  -5   11.69    0.87
  -6  -3  -5    9.53    0.73
   6   3   5   10.90    0.49
   6   3   5   12.15    0.64
   6   3   5   10.69    0.64
  -7  -3  -5    7.32    0.68
  -7  -3  -5    7.01    0.88
   7   3   5    6.77    0.60
   7   3   5    6.01    0.52
   7   3   5    7.69    0.72
  -8  -3  -5    0.47    0.44
  -8  -3  -5   -0.12    0.41
   8   3   5    0.04    0.23
   8   3   5    0.40    0.38
  -9  -3  -5    1.34    0.64
  -9  -3  -5    0.59    0.49
   9   3   5    0.47    0.41
   9   3   5    0.79    0.39
 -10  -3  -5   -0.28    0.66
 -10  -3  -5    1.53    0.89
  10   3   5   -0.05    0.55
   8  -4  -5    0.73    0.59
  -8   4   5   -0.64    0.66
  -8   4   5   -0.36    0.70
  -7   4   5    0.58    0.56
  -7   4   5    1.16    0.63
   6  -4  -5    5.82    0.61
  -6   4   5    7.68    0.78
  -6   4   5    7.66    0.76
   5  -4  -5    1.43    0.30
   5  -4  -5    1.95    0.36
  -5   4   5    1.82    0.40
  -5   4   5    1.46    0.35
   4  -4  -5   -0.27    0.23
  -4   4   5    0.23    0.33
  -4   4   5    0.04    0.24
  -4   4   5    0.11    0.29
   3  -4  -5    1.52    0.29
   3  -4  -5    1.70    0.30
   3  -4  -5    1.85    0.31
   3  -4  -5    2.04    0.32
   3  -4  -5    2.49    0.28
  -3   4   5    1.85    0.33
  -3   4   5    2.10    0.36
  -3   4   5    2.38    0.33
  -3   4   5    1.70    0.34
   2  -4  -5    0.63    0.17
   2  -4  -5    0.59    0.19
   2  -4  -5    0.65    0.28
   2  -4  -5    0.67    0.16
   2  -4  -5    0.77    0.24
  -2   4   5    1.22    0.21
  -2   4   5    0.73    0.24
  -2   4   5    0.66    0.19
  -2   4   5    0.90    0.24
  -2   4   5    0.72    0.27
   1  -4  -5    1.51    0.24
   1  -4  -5    1.51    0.28
   1  -4  -5    1.30    0.25
  -1   4   5    1.54    0.27
  -1   4   5    1.53    0.27
  -1   4   5    1.36    0.22
  -1   4   5    1.73    0.28
   0  -4  -5    2.59    0.30
   0  -4  -5    2.78    0.32
   0  -4  -5    2.88    0.33
   0   4   5    2.98    0.34
   0   4   5    2.87    0.34
   0   4   5    3.41    0.35
   0   4   5    3.22    0.34
  -1  -4  -5   47.99    1.86
  -1  -4  -5   44.77    1.83
  -1  -4  -5   45.57    1.78
  -1  -4  -5   43.26    1.66
  -1  -4  -5   48.93    1.84
   1   4   5   46.76    1.86
   1   4   5   43.88    1.79
   1   4   5   46.26    1.84
   1   4   5   47.05    1.85
  -2  -4  -5    5.84    0.46
  -2  -4  -5    6.25    0.43
  -2  -4  -5    6.02    0.46
  -2  -4  -5    5.40    0.38
   2   4   5    5.54    0.43
   2   4   5    5.75    0.44
   2   4   5    5.35    0.43
   2   4   5    6.32    0.50
  -3  -4  -5    2.12    0.32
  -3  -4  -5    1.91    0.31
  -3  -4  -5    2.42    0.26
  -3  -4  -5    1.88    0.32
   3   4   5    2.13    0.30
   3   4   5    1.98    0.33
   3   4   5    1.87    0.28
   3   4   5    2.62    0.36
  -4  -4  -5    0.34    0.19
  -4  -4  -5    0.15    0.22
  -4  -4  -5    0.00    0.23
  -4  -4  -5    0.04    0.17
   4   4   5   -0.10    0.21
   4   4   5    0.23    0.23
   4   4   5   -0.05    0.17
   4   4   5   -0.12    0.16
  -5  -4  -5    0.82    0.27
  -5  -4  -5    0.81    0.22
  -5  -4  -5    0.37    0.29
  -5  -4  -5    0.68    0.32
   5   4   5    0.97    0.27
   5   4   5    0.80    0.23
  -6  -4  -5   31.91    1.60
  -6  -4  -5   31.71    1.50
   6   4   5   33.18    1.41
   6   4   5   30.75    1.18
   6   4   5   31.47    1.41
  -7  -4  -5    1.73    0.43
  -7  -4  -5    0.84    0.49
   7   4   5    1.16    0.33
  -8  -4  -5    1.51    0.52
  -8  -4  -5    1.59    0.54
   8   4   5    2.29    0.34
   8   4   5    1.83    0.40
  -9  -4  -5    0.57    0.57
  -9  -4  -5    0.29    0.68
   9   4   5    1.06    0.41
   9   4   5    1.34    0.44
 -10  -4  -5    1.53    0.75
 -10  -4  -5    1.39    0.94
  10   4   5    0.81    0.59
   8  -5  -5   -0.56    0.65
  -8   5   5   -0.23    0.95
   7  -5  -5    1.44    0.48
  -7   5   5    0.93    0.53
  -7   5   5    1.17    0.67
   6  -5  -5    0.07    0.37
  -6   5   5    0.09    0.37
  -6   5   5    1.06    0.54
  -6   5   5    0.35    0.42
   5  -5  -5    4.54    0.54
  -5   5   5    3.90    0.62
  -5   5   5    5.24    0.51
  -5   5   5    4.35    0.74
  -5   5   5    2.94    0.48
   4  -5  -5    7.09    0.34
   4  -5  -5    7.87    0.53
   4  -5  -5    9.04    0.65
  -4   5   5    8.49    0.64
  -4   5   5    8.54    0.75
  -4   5   5    7.67    0.54
   3  -5  -5    6.23    0.42
   3  -5  -5    7.51    0.60
   3  -5  -5    7.27    0.44
   3  -5  -5    7.31    0.54
  -3   5   5    6.76    0.66
  -3   5   5    6.83    0.56
  -3   5   5    7.56    0.49
  -3   5   5    5.91    0.65
   2  -5  -5    0.34    0.22
   2  -5  -5    0.21    0.22
   2  -5  -5    0.02    0.17
   2  -5  -5    0.00    0.12
   2  -5  -5   -0.15    0.16
  -2   5   5   -0.12    0.21
  -2   5   5    0.15    0.26
  -2   5   5    0.04    0.23
   1  -5  -5    5.52    0.43
   1  -5  -5    6.01    0.49
   1  -5  -5    5.85    0.32
  -1   5   5    5.95    0.49
  -1   5   5    5.13    0.47
  -1   5   5    5.70    0.49
  -1   5   5    6.00    0.48
   0  -5  -5   41.21    1.50
   0  -5  -5   40.44    1.69
   0  -5  -5   41.05    1.64
   0  -5  -5   40.53    1.65
   0   5   5   40.29    1.68
   0   5   5   36.45    1.63
   0   5   5   41.64    1.72
   0   5   5   39.59    1.67
  -1  -5  -5    8.38    0.55
  -1  -5  -5    8.27    0.56
  -1  -5  -5    8.50    0.53
  -1  -5  -5    7.89    0.52
   1   5   5    8.42    0.54
   1   5   5    7.90    0.54
   1   5   5    8.26    0.56
   1   5   5    7.57    0.56
  -2  -5  -5    3.18    0.36
  -2  -5  -5    2.93    0.39
  -2  -5  -5    3.76    0.35
  -2  -5  -5    3.59    0.36
  -2  -5  -5    3.90    0.39
   2   5   5    3.23    0.40
   2   5   5    3.16    0.40
   2   5   5    3.16    0.36
   2   5   5    3.67    0.41
  -3  -5  -5    5.26    0.47
  -3  -5  -5    6.89    0.53
  -3  -5  -5    6.46    0.46
  -3  -5  -5    6.59    0.55
   3   5   5    6.05    0.48
   3   5   5    5.98    0.51
   3   5   5    5.37    0.44
   3   5   5    6.69    0.46
  -4  -5  -5   49.13    1.95
  -4  -5  -5   51.06    2.08
  -4  -5  -5   48.39    2.05
  -4  -5  -5   46.66    2.02
   4   5   5   52.41    2.08
   4   5   5   48.73    1.90
   4   5   5   49.16    1.97
  -5  -5  -5    0.91    0.33
  -5  -5  -5    0.23    0.27
   5   5   5    0.09    0.18
   5   5   5    0.03    0.27
   5   5   5    0.24    0.29
   5   5   5    0.29    0.24
  -6  -5  -5    4.27    0.72
  -6  -5  -5    4.00    0.62
   6   5   5    3.46    0.53
   6   5   5    3.77    0.53
   6   5   5    3.40    0.33
   6   5   5    4.72    0.72
  -7  -5  -5    1.98    0.54
  -7  -5  -5    1.15    0.51
   7   5   5    2.65    0.47
   7   5   5    2.17    0.44
  -8  -5  -5    0.03    0.57
  -8  -5  -5   -0.04    0.49
   8   5   5    0.40    0.41
   8   5   5    0.38    0.44
  -9  -5  -5    1.13    0.68
  -9  -5  -5    0.90    0.68
   9   5   5    0.69    0.44
  -8   6   5    1.41    0.98
   7  -6  -5   -0.30    0.49
   7  -6  -5   -0.23    0.54
  -7   6   5   -0.19    0.57
  -7   6   5    0.24    0.67
   6  -6  -5    0.46    0.41
  -6   6   5    0.03    0.45
  -6   6   5   -0.70    0.58
  -6   6   5    0.22    0.36
   5  -6  -5    4.04    0.59
  -5   6   5    3.47    0.43
  -5   6   5    3.46    0.59
  -5   6   5    2.97    0.60
  -5   6   5    3.46    0.46
   4  -6  -5    0.42    0.32
   4  -6  -5    0.25    0.20
  -4   6   5    0.33    0.26
  -4   6   5    0.05    0.32
  -4   6   5    0.20    0.40
   3  -6  -5    0.20    0.29
   3  -6  -5    0.36    0.16
   3  -6  -5    0.58    0.13
  -3   6   5    0.42    0.28
  -3   6   5    0.23    0.32
  -3   6   5    0.76    0.30
   2  -6  -5   13.24    0.68
   2  -6  -5   13.03    0.70
   2  -6  -5   14.05    0.56
   2  -6  -5   14.47    0.86
   2  -6  -5   13.26    0.91
  -2   6   5   13.65    0.80
  -2   6   5   13.27    0.88
  -2   6   5   12.29    0.85
   1  -6  -5   50.02    2.13
   1  -6  -5   49.10    1.95
   1  -6  -5   51.77    2.13
   1  -6  -5   51.71    1.98
  -1   6   5   48.51    2.01
  -1   6   5   51.69    2.05
  -1   6   5   49.91    2.11
  -1   6   5   49.36    2.11
   0  -6  -5    1.30    0.28
   0  -6  -5    1.30    0.24
   0  -6  -5    0.99    0.14
   0  -6  -5    1.25    0.30
   0  -6  -5    0.53    0.25
   0  -6  -5    1.06    0.15
   0  -6  -5    1.19    0.24
   0   6   5    0.85    0.28
   0   6   5    0.76    0.25
   0   6   5    1.27    0.29
  -1  -6  -5    7.42    0.56
  -1  -6  -5    8.55    0.59
  -1  -6  -5    7.94    0.57
  -1  -6  -5    8.17    0.57
  -1  -6  -5    7.66    0.52
   1   6   5    8.16    0.63
   1   6   5    8.99    0.64
   1   6   5    8.87    0.59
  -2  -6  -5   23.62    1.02
  -2  -6  -5   22.35    1.13
  -2  -6  -5   20.81    1.05
  -2  -6  -5   23.02    1.12
   2   6   5   21.95    1.11
   2   6   5   22.73    1.15
   2   6   5   22.30    1.11
   2   6   5   21.96    1.08
  -3  -6  -5   31.97    1.40
  -3  -6  -5   31.60    1.39
  -3  -6  -5   30.14    1.46
  -3  -6  -5   31.97    1.49
   3   6   5   32.44    1.44
   3   6   5   30.08    1.36
   3   6   5   34.39    1.52
   3   6   5   28.47    1.41
  -4  -6  -5    8.25    0.93
  -4  -6  -5    8.05    0.67
  -4  -6  -5    6.76    0.54
   4   6   5    6.58    0.52
   4   6   5    7.57    0.65
   4   6   5    7.61    0.60
  -5  -6  -5    0.55    0.35
  -5  -6  -5    0.86    0.34
   5   6   5    0.19    0.35
   5   6   5    0.41    0.33
   5   6   5    0.46    0.23
  -6  -6  -5    0.03    0.64
  -6  -6  -5   -0.78    0.45
   6   6   5    0.43    0.34
   6   6   5   -0.02    0.22
   6   6   5    0.35    0.36
   6   6   5    0.28    0.23
  -7  -6  -5    1.17    0.57
  -7  -6  -5    0.68    0.50
   7   6   5    0.90    0.45
   7   6   5    0.93    0.46
  -8  -6  -5    2.85    0.65
  -8  -6  -5    3.49    0.72
   8   6   5    3.56    0.50
   8   6   5    3.32    0.60
  -9  -6  -5    1.83    0.78
  -9  -6  -5    1.65    0.78
   9   6   5    1.45    0.65
   7  -7  -5   -0.69    0.50
   7  -7  -5    0.22    0.60
  -7   7   5    0.87    0.77
  -7   7   5    0.86    0.85
  -6   7   5   -0.72    0.48
  -6   7   5    1.46    0.64
   5  -7  -5    4.14    0.63
  -5   7   5    3.36    0.52
  -5   7   5    3.27    0.71
  -5   7   5    3.97    0.68
   4  -7  -5    2.59    0.48
  -4   7   5    2.70    0.57
  -4   7   5    2.66    0.42
  -4   7   5    2.42    0.44
   3  -7  -5    1.92    0.20
   3  -7  -5    2.12    0.47
   3  -7  -5    1.96    0.23
  -3   7   5    2.64    0.52
  -3   7   5    1.23    0.52
   2  -7  -5   57.72    2.36
   2  -7  -5   57.49    2.09
   2  -7  -5   53.97    2.06
  -2   7   5   57.93    2.40
  -2   7   5   54.63    2.23
  -2   7   5   50.34    2.17
   1  -7  -5    1.42    0.36
   1  -7  -5    1.50    0.27
   1  -7  -5    1.08    0.17
  -1   7   5    1.10    0.30
  -1   7   5    1.44    0.32
  -1   7   5    1.61    0.38
   0  -7  -5   79.49    2.82
   0  -7  -5   83.13    3.23
   0  -7  -5   78.94    3.09
   0  -7  -5   83.02    3.23
   0  -7  -5   86.10    3.14
   0  -7  -5   85.64    3.25
   0  -7  -5   74.88    2.92
   0   7   5   84.12    3.23
   0   7   5   88.46    3.22
   0   7   5   84.50    3.14
  -1  -7  -5   25.05    1.28
  -1  -7  -5   28.21    1.36
  -1  -7  -5   25.28    1.28
  -1  -7  -5   26.90    1.26
   1   7   5   24.01    1.25
   1   7   5   24.93    1.29
   1   7   5   28.53    1.34
  -2  -7  -5    1.35    0.45
  -2  -7  -5    1.27    0.34
  -2  -7  -5    0.70    0.21
  -2  -7  -5    0.89    0.37
   2   7   5    0.77    0.31
   2   7   5    1.34    0.36
  -3  -7  -5    2.05    0.41
  -3  -7  -5    2.46    0.41
  -3  -7  -5    1.65    0.38
   3   7   5    1.69    0.41
   3   7   5    2.30    0.43
  -4  -7  -5   12.84    0.85
  -4  -7  -5   12.62    0.89
   4   7   5   11.54    0.84
   4   7   5   12.27    0.90
   4   7   5   10.40    0.72
  -5  -7  -5   14.00    0.96
   5   7   5   13.30    0.98
   5   7   5   13.61    0.97
  -6  -7  -5   -0.21    0.49
  -6  -7  -5   -0.63    0.43
   6   7   5    1.00    0.49
   6   7   5    0.26    0.42
   6   7   5    0.30    0.26
  -7  -7  -5   -0.98    0.53
  -7  -7  -5    0.55    0.57
   7   7   5   -0.47    0.88
   7   7   5    0.34    0.69
  -8  -7  -5    1.84    0.78
  -8  -7  -5    1.16    0.61
   8   7   5    1.44    0.63
   8   7   5    0.37    0.62
   8   7   5    1.36    0.54
  -9  -7  -5   -0.78    0.75
  -9  -7  -5    1.71    0.86
   9   7   5   -1.10    0.55
   7  -8  -5    1.41    0.73
   7  -8  -5    0.87    0.60
   6  -8  -5    0.24    0.52
  -6   8   5    0.03    0.54
  -6   8   5    0.40    0.71
   5  -8  -5   -0.71    0.47
  -5   8   5   -0.08    0.57
  -5   8   5   -0.17    0.44
   4  -8  -5    5.94    0.93
  -4   8   5    7.72    0.93
  -4   8   5    7.85    0.73
   3  -8  -5    2.96    0.77
  -3   8   5    2.60    0.62
  -3   8   5    3.63    0.58
  -3   8   5    2.06    0.45
   2  -8  -5    2.29    0.36
   2  -8  -5    2.96    0.53
   2  -8  -5    2.62    0.35
  -2   8   5    2.21    0.43
  -2   8   5    2.74    0.47
  -2   8   5    2.14    0.56
   1  -8  -5   29.67    1.32
   1  -8  -5   30.36    1.56
   1  -8  -5   31.08    1.24
  -1   8   5   29.56    1.55
  -1   8   5   28.73    1.43
   0  -8  -5    0.40    0.30
   0  -8  -5    0.87    0.26
   0  -8  -5    0.29    0.08
   0  -8  -5    0.28    0.32
   0   8   5    0.79    0.34
   0   8   5    0.62    0.38
  -1  -8  -5    0.87    0.31
  -1  -8  -5    0.18    0.27
  -1  -8  -5    0.44    0.30
   1   8   5    0.04    0.35
   1   8   5    0.53    0.36
  -2  -8  -5   11.24    0.77
  -2  -8  -5    9.53    0.75
  -2  -8  -5    9.58    0.59
   2   8   5    9.09    0.84
   2   8   5    9.35    0.80
  -3  -8  -5    7.82    0.72
  -3  -8  -5    8.07    0.73
  -3  -8  -5    7.26    0.62
   3   8   5    9.40    0.84
   3   8   5    8.63    0.79
  -4  -8  -5    1.87    0.41
  -4  -8  -5    2.05    0.45
   4   8   5    2.20    0.53
   4   8   5    1.34    0.49
  -5  -8  -5    0.05    0.42
  -5  -8  -5    0.82    0.48
  -5  -8  -5    0.49    0.39
   5   8   5    0.22    0.32
   5   8   5    0.56    0.45
   5   8   5    0.36    0.46
  -6  -8  -5    5.28    0.79
  -6  -8  -5    3.34    0.62
  -6  -8  -5    3.70    0.55
   6   8   5    5.18    0.88
   6   8   5    3.31    0.61
   6   8   5    3.25    0.44
  -7  -8  -5    2.05    0.54
  -7  -8  -5    2.12    0.65
  -7  -8  -5    1.51    0.60
   7   8   5    1.67    0.58
   7   8   5    1.19    0.69
  -8  -8  -5    4.16    0.82
  -8  -8  -5    2.60    0.80
   8   8   5    1.63    0.76
   8   8   5    2.21    0.71
   6  -9  -5    3.15    0.64
   6  -9  -5    1.79    0.53
  -6   9   5    1.14    0.84
  -6   9   5    2.73    0.83
   5  -9  -5    4.20    0.65
  -5   9   5    4.76    0.83
  -5   9   5    4.80    0.73
   4  -9  -5    5.21    0.87
  -4   9   5    4.68    0.74
  -4   9   5    5.10    0.73
   3  -9  -5   -0.17    0.46
   3  -9  -5   -0.35    0.24
  -3   9   5   -0.53    0.41
  -3   9   5   -0.57    0.49
   2  -9  -5    0.89    0.23
   2  -9  -5    0.33    0.24
   2  -9  -5    0.73    0.25
   2  -9  -5    0.20    0.41
  -2   9   5    0.57    0.43
  -2   9   5    0.54    0.49
   1  -9  -5    6.34    0.50
   1  -9  -5    6.10    0.53
   1  -9  -5    5.58    0.74
  -1   9   5    7.27    0.74
   0  -9  -5    2.74    0.49
   0  -9  -5    2.54    0.52
   0  -9  -5    2.82    0.41
   0  -9  -5    2.53    0.41
   0   9   5    1.72    0.44
   0   9   5    2.83    0.56
  -1  -9  -5    1.45    0.45
  -1  -9  -5    1.35    0.40
  -1  -9  -5    1.52    0.36
   1   9   5    2.19    0.52
   1   9   5    2.50    0.52
  -2  -9  -5    3.45    0.59
  -2  -9  -5    2.90    0.55
  -2  -9  -5    3.31    0.42
   2   9   5    3.63    0.66
  -3  -9  -5    0.00    0.30
  -3  -9  -5   -0.09    0.37
   3   9   5   -0.19    0.42
  -4  -9  -5    4.78    0.74
  -4  -9  -5    3.69    0.65
  -4  -9  -5    5.57    0.69
   4   9   5    5.90    0.84
   4   9   5    5.05    0.78
   4   9   5    5.71    0.68
  -5  -9  -5   10.52    0.99
  -5  -9  -5   12.96    1.02
  -5  -9  -5   11.64    1.01
   5   9   5   10.40    1.04
   5   9   5   11.53    0.93
   5   9   5   11.99    1.14
  -6  -9  -5    0.09    0.50
  -6  -9  -5   -0.51    0.56
  -6  -9  -5   -0.37    0.52
   6   9   5    0.95    0.68
   6   9   5   -0.19    0.55
   6   9   5   -0.35    0.44
  -7  -9  -5    0.32    0.61
  -7  -9  -5   -0.32    0.65
  -7  -9  -5   -0.56    0.62
   7   9   5   -0.31    0.70
   7   9   5    0.33    0.74
   6 -10  -5    0.84    1.11
  -6  10   5   -0.90    0.96
   5 -10  -5    0.95    0.62
   5 -10  -5    0.32    0.52
  -5  10   5    0.45    0.72
   4 -10  -5    1.01    0.75
  -4  10   5   -0.17    0.62
  -4  10   5    0.24    0.56
   3 -10  -5    2.93    0.49
   3 -10  -5    3.16    0.65
  -3  10   5    2.73    0.61
  -3  10   5    3.75    0.78
   2 -10  -5    1.14    0.53
   2 -10  -5    1.23    0.31
   2 -10  -5    1.55    0.32
  -2  10   5    1.49    0.59
  -2  10   5    1.82    0.52
   1 -10  -5    0.75    0.33
   1 -10  -5    0.23    0.41
   1 -10  -5    0.79    0.33
  -1  10   5   -0.15    0.52
   0 -10  -5    0.74    0.32
   0 -10  -5    0.82    0.45
   0 -10  -5    0.72    0.36
   0  10   5    1.77    0.51
   0  10   5    0.74    0.49
  -1 -10  -5    0.16    0.43
  -1 -10  -5    0.00    0.38
   1  10   5    0.22    0.48
   1  10   5   -0.18    0.51
  -2 -10  -5    1.14    0.28
  -2 -10  -5    1.39    0.51
   2  10   5    1.33    0.57
   2  10   5    1.73    0.51
  -3 -10  -5    0.52    0.43
  -3 -10  -5    0.67    0.47
  -3 -10  -5   -0.28    0.35
   3  10   5    0.06    0.45
   3  10   5    0.43    0.55
   3  10   5   -0.12    0.48
  -4 -10  -5    3.89    0.66
  -4 -10  -5    3.89    0.54
  -4 -10  -5    6.01    0.87
   4  10   5    5.23    0.84
   4  10   5    2.86    0.66
   4  10   5    4.21    0.73
  -5 -10  -5    1.12    0.54
  -5 -10  -5    0.09    0.63
  -5 -10  -5    0.09    0.49
   5  10   5    0.06    0.51
   5  10   5    0.32    0.68
   5  10   5    1.26    0.66
  -6 -10  -5   -0.35    0.64
  -6 -10  -5    0.59    0.60
  -6 -10  -5   -0.11    0.73
   6  10   5   -1.01    0.76
   6  10   5   -0.13    0.65
  -7 -10  -5    1.35    0.97
   7  10   5    3.11    0.87
   5 -11  -5    1.19    0.76
   5 -11  -5    0.24    0.96
  -5  11   5   -0.14    0.86
  -5  11   5   -1.78    0.97
   4 -11  -5   -0.06    0.48
   4 -11  -5    0.15    0.66
  -4  11   5    0.79    0.67
  -4  11   5    0.41    0.83
   3 -11  -5    0.40    0.65
  -3  11   5    1.41    1.04
  -3  11   5    0.65    0.61
   2 -11  -5    0.01    0.45
   2 -11  -5   -0.27    0.36
   2 -11  -5   -0.44    0.54
  -2  11   5   -0.58    0.53
  -2  11   5   -0.10    0.64
   1 -11  -5    0.48    0.36
   1 -11  -5    0.75    0.39
   1 -11  -5    0.29    0.48
  -1  11   5    0.09    0.57
  -1  11   5    0.74    0.62
   0 -11  -5    1.64    0.49
   0 -11  -5    2.02    0.57
   0 -11  -5    2.38    0.48
   0  11   5    2.93    0.63
   0  11   5    1.49    0.56
  -1 -11  -5    0.78    0.49
  -1 -11  -5    0.72    0.49
   1  11   5    1.17    0.54
   1  11   5    0.63    0.57
  -2 -11  -5    1.59    0.57
  -2 -11  -5    0.54    0.34
  -2 -11  -5    0.91    0.49
   2  11   5   -0.61    0.52
   2  11   5    0.53    0.65
   2  11   5    0.21    0.62
  -3 -11  -5    0.52    0.43
  -3 -11  -5    0.33    0.55
  -3 -11  -5   -0.16    0.56
   3  11   5    0.74    0.62
   3  11   5    0.97    0.54
   3  11   5    0.72    0.63
  -4 -11  -5    0.13    0.58
  -4 -11  -5    1.17    0.67
  -4 -11  -5   -0.59    0.57
   4  11   5    0.51    0.61
   4  11   5   -0.49    0.71
   4  11   5    0.62    0.67
  -5 -11  -5   -0.01    0.62
  -5 -11  -5   -0.44    0.80
  -5 -11  -5    0.48    0.62
   5  11   5    0.51    0.76
   5  11   5    1.04    0.74
   5  11   5    1.04    0.71
  -6 -11  -5    1.23    0.78
  -6 -11  -5    0.94    1.23
   6  11   5    1.45    0.98
   4 -12  -5    0.12    0.86
   4 -12  -5   -0.29    0.56
  -4  12   5    0.67    1.87
  -4  12   5   -0.25    0.84
  -4  12   5   -1.45    0.98
   3 -12  -5    0.45    0.48
   3 -12  -5    0.37    0.79
  -3  12   5   -1.17    0.71
  -3  12   5    1.26    0.88
   2 -12  -5    2.93    0.77
  -2  12   5    4.58    0.86
  -2  12   5    2.59    0.93
   1 -12  -5    3.36    0.75
   1 -12  -5    2.71    0.63
  -1  12   5    2.21    0.68
  -1  12   5    3.32    0.76
  -1  12   5    2.37    0.78
   0 -12  -5    0.78    0.60
   0 -12  -5    0.46    0.59
   0 -12  -5   -0.14    0.52
   0  12   5    0.75    0.73
   0  12   5   -0.36    0.69
   0  12   5    0.59    0.73
  -1 -12  -5   -0.43    0.54
  -1 -12  -5   -0.52    0.63
  -1 -12  -5    0.30    0.64
   1  12   5   -0.91    0.63
   1  12   5    0.78    0.73
   1  12   5    0.86    0.74
  -2 -12  -5   -0.97    0.63
   2  12   5   -0.95    0.73
   2  12   5   -0.04    0.70
   2  12   5   -0.50    0.66
  -3 -12  -5    3.84    0.79
  -3 -12  -5    1.16    0.63
   3  12   5    2.67    0.91
   3  12   5    2.57    0.91
   3  12   5    2.59    0.78
  -4 -12  -5    1.51    0.69
   4  12   5    1.98    0.91
   4  12   5    1.50    1.39
   4  12   5    0.92    0.92
   1 -13  -5    0.95    0.83
  -1  13   5    1.33    0.95
  -1  13   5    0.63    0.92
  -1  13   5    0.45    0.99
   0 -13  -5    3.00    0.86
   0 -13  -5    1.97    0.83
   0  13   5    1.78    0.90
   0  13   5    4.28    0.84
   0  13   5    3.51    1.01
  -1 -13  -5    7.60    1.15
  -1 -13  -5    8.89    1.34
  -1 -13  -5    8.15    1.22
   1  13   5    4.72    1.00
   1  13   5   10.13    1.34
   1  13   5    5.87    1.13
   2  13   5    2.92    0.93
   2  13   5    3.04    1.27
   2  13   5    2.68    1.15
  -1   9  -6    4.02    1.22
  -1   9  -6    2.60    0.91
  -1   9  -6    4.01    0.93
   1  -9   6    1.94    1.14
  -2   9  -6    1.38    0.98
  -2   9  -6   -0.44    0.79
  -2   9  -6    1.55    0.95
   2  -9   6   -0.47    0.85
  -3   9  -6   -0.30    1.01
  -3   9  -6    0.83    0.77
  -3   9  -6    0.51    0.82
   3  -9   6    0.31    0.87
   4  -9   6    3.73    1.80
   1   8  -6    0.48    0.81
   1   8  -6    0.03    0.80
   1   8  -6   -0.12    0.84
  -1  -8   6    1.47    0.80
  -1  -8   6   -0.04    0.71
   0   8  -6    0.04    0.70
   0   8  -6    0.49    0.71
   0   8  -6    0.42    0.77
   0  -8   6    0.60    0.60
   0  -8   6    0.20    0.71
  -1   8  -6   -0.32    0.75
  -1   8  -6    1.09    0.69
  -1   8  -6    0.08    0.65
   1  -8   6    0.26    0.92
   1  -8   6   -0.02    0.65
  -2   8  -6    1.75    0.74
  -2   8  -6    0.30    0.74
  -2   8  -6    1.08    0.62
   2  -8   6   -0.71    0.60
  -3   8  -6    0.10    0.70
  -3   8  -6   -0.61    0.65
  -3   8  -6    0.27    0.67
   3  -8   6    0.73    0.67
  -4   8  -6    1.75    0.79
  -4   8  -6    1.98    0.66
  -4   8  -6    1.51    0.66
   4  -8   6    0.97    0.72
  -5   8  -6    1.73    0.81
  -5   8  -6    1.31    0.71
   5  -8   6    2.43    0.81
  -6   8  -6    0.79    0.89
   6  -8   6    2.88    0.96
   3   7  -6    3.78    1.06
  -3  -7   6    2.86    0.85
  -3  -7   6    2.47    0.77
  -3  -7   6    0.85    0.84
   2   7  -6    7.02    1.17
   2   7  -6    5.88    0.93
  -2  -7   6    5.21    0.95
  -2  -7   6    7.66    1.26
  -2  -7   6    5.69    0.95
   1   7  -6   -0.01    0.67
   1   7  -6    1.21    0.77
  -1  -7   6    0.78    0.63
  -1  -7   6    0.70    0.69
  -1  -7   6    0.06    0.63
   0   7  -6    1.02    0.71
   0   7  -6   -0.20    0.58
   0   7  -6    1.21    0.62
   0  -7   6    0.18    0.52
   0  -7   6    0.98    0.56
   0  -7   6    0.60    0.52
  -1   7  -6   -0.45    0.58
  -1   7  -6    0.34    0.54
  -1   7  -6    0.73    0.59
   1  -7   6    0.31    0.56
  -2   7  -6    0.10    0.50
  -2   7  -6    0.73    0.61
  -2   7  -6    0.59    0.53
   2  -7   6    1.00    0.43
   2  -7   6    0.07    0.52
  -3   7  -6    3.74    0.73
  -3   7  -6    5.70    0.75
  -3   7  -6    3.69    0.79
   3  -7   6    6.12    0.89
  -4   7  -6    4.08    0.80
  -4   7  -6    2.96    0.61
  -4   7  -6    3.34    0.55
  -5   7  -6    8.15    1.11
   5  -7   6    6.45    1.02
  -6   7  -6    4.21    0.74
  -6   7  -6    4.45    0.92
   6  -7   6    4.39    0.85
  -7   7  -6    4.02    0.92
   7  -7   6    4.28    0.93
   4   6  -6    0.69    1.02
   4   6  -6    1.83    0.77
   4   6  -6    2.06    0.80
  -4  -6   6    2.16    0.89
  -4  -6   6    2.32    0.87
   3   6  -6    0.68    0.73
   3   6  -6    1.37    0.71
   3   6  -6    1.67    0.71
  -3  -6   6    0.80    0.67
  -3  -6   6    0.33    0.72
  -3  -6   6    1.57    0.64
   2   6  -6    1.01    0.64
   2   6  -6    0.55    0.57
  -2  -6   6    1.13    0.60
  -2  -6   6    0.63    0.61
  -2  -6   6    0.16    0.49
   1   6  -6    1.55    0.61
   1   6  -6    1.08    0.62
  -1  -6   6    0.36    0.51
  -1  -6   6    1.23    0.56
  -1  -6   6    0.78    0.54
   0   6  -6    0.81    0.58
   0   6  -6    1.43    0.49
   0  -6   6    0.56    0.48
   0  -6   6    0.72    0.46
  -1   6  -6    2.39    0.62
  -1   6  -6    2.58    0.62
  -1   6  -6    2.82    0.53
   1  -6   6    4.77    0.81
  -2   6  -6    0.46    0.48
  -2   6  -6    0.40    0.38
  -2   6  -6    0.32    0.55
  -2   6  -6    1.29    0.40
   2  -6   6    1.64    0.50
   2  -6   6    1.25    0.36
   2  -6   6    0.70    0.46
  -3   6  -6    0.71    0.44
  -3   6  -6    0.45    0.55
  -3   6  -6   -0.19    0.34
   3  -6   6    0.11    0.28
   3  -6   6    0.30    0.47
   3  -6   6   -0.46    0.45
  -4   6  -6   -0.42    0.42
  -4   6  -6   -0.57    0.44
  -4   6  -6    0.45    0.59
   4  -6   6   -0.39    0.45
  -5   6  -6    3.15    0.55
  -5   6  -6    3.87    0.56
  -5   6  -6    3.70    0.70
   5  -6   6    3.63    0.69
  -6   6  -6   -0.14    0.60
   6  -6   6    0.48    0.57
  -7   6  -6    2.43    0.67
   7  -6   6    2.80    0.81
  -8   6  -6    0.27    0.77
  -8   6  -6    0.97    0.78
   8  -6   6   -0.16    0.81
   5   5  -6    0.96    0.79
   5   5  -6    0.25    0.73
   5   5  -6    0.24    0.80
  -5  -5   6   -0.42    0.84
  -5  -5   6   -0.61    0.91
   4   5  -6    2.31    0.61
   4   5  -6    1.70    0.65
   4   5  -6    2.40    0.75
  -4  -5   6    0.93    0.65
  -4  -5   6    2.02    0.76
   3   5  -6    6.71    1.03
   3   5  -6    7.33    1.10
  -3  -5   6    6.92    1.00
  -3  -5   6    8.45    0.92
   2   5  -6    6.45    0.87
   2   5  -6    6.10    0.92
  -2  -5   6    5.33    0.78
  -2  -5   6    6.34    0.94
  -2  -5   6    7.77    0.91
   1   5  -6    4.73    0.75
   1   5  -6    3.34    0.48
   1   5  -6    5.05    0.80
  -1  -5   6    4.01    0.69
  -1  -5   6    4.59    0.77
  -1  -5   6    4.06    0.69
   0   5  -6    4.72    0.73
   0   5  -6    4.68    0.73
   0   5  -6    5.30    0.81
   0  -5   6    5.49    0.74
   0  -5   6    4.98    0.86
   0  -5   6    5.39    0.84
  -1   5  -6   15.18    1.21
  -1   5  -6   16.50    1.21
  -1   5  -6   14.23    1.14
  -1   5  -6   13.90    0.94
  -2   5  -6    1.10    0.42
  -2   5  -6    0.76    0.34
  -2   5  -6    1.86    0.60
  -2   5  -6    1.01    0.34
   2  -5   6    1.55    0.40
   2  -5   6    1.56    0.39
   2  -5   6    1.00    0.32
  -3   5  -6    4.17    0.73
  -3   5  -6    3.19    0.53
  -3   5  -6    3.09    0.41
  -3   5  -6    4.44    0.61
   3  -5   6    3.25    0.43
   3  -5   6    3.77    0.63
  -4   5  -6    0.93    0.39
  -4   5  -6   -0.05    0.50
  -4   5  -6    0.78    0.28
   4  -5   6    1.10    0.46
  -5   5  -6    1.03    0.55
  -5   5  -6    1.61    0.30
  -5   5  -6    1.31    0.49
  -5   5  -6    1.66    0.41
   5  -5   6    1.28    0.37
   5  -5   6    2.13    0.58
  -6   5  -6    1.12    0.41
  -6   5  -6   -0.18    0.37
  -6   5  -6    1.04    0.61
   6  -5   6    0.06    0.56
   6  -5   6    0.30    0.53
  -7   5  -6    1.63    0.45
  -7   5  -6    2.55    0.65
   7  -5   6    1.30    0.65
   7  -5   6    1.58    0.45
  -8   5  -6    0.66    0.96
  -8   5  -6    1.17    0.68
   8  -5   6    1.49    0.73
  -9   5  -6    1.84    0.88
   9  -5   6    0.13    0.51
   5   4  -6    0.20    0.61
   5   4  -6    0.25    0.63
   5   4  -6    1.18    0.60
  -5  -4   6    0.62    0.70
  -5  -4   6    0.04    0.66
   4   4  -6    1.77    0.57
   4   4  -6    3.08    0.63
  -4  -4   6    2.77    0.69
  -4  -4   6    2.90    0.72
   3   4  -6   -0.29    0.48
   3   4  -6    0.28    0.67
  -3  -4   6    0.55    0.52
  -3  -4   6   -0.25    0.44
   2   4  -6    4.94    0.85
   2   4  -6    6.01    0.79
  -2  -4   6    5.38    0.74
  -2  -4   6    5.16    0.80
  -2  -4   6    4.70    0.68
   1   4  -6    9.43    1.01
   1   4  -6    8.50    0.67
   1   4  -6   10.05    0.98
  -1  -4   6    9.72    0.91
  -1  -4   6    8.73    0.88
   0   4  -6   32.11    1.67
   0   4  -6   32.36    1.49
   0   4  -6   33.27    1.55
   0   4  -6   32.81    1.74
   0  -4   6   34.05    1.69
   0  -4   6   31.39    1.56
   0  -4   6   33.45    1.64
  -1   4  -6   -0.24    0.38
  -1   4  -6    0.23    0.34
  -1   4  -6   -0.30    0.27
  -1   4  -6   -0.42    0.27
   1  -4   6    0.19    0.30
   1  -4   6   -0.62    0.32
  -2   4  -6    1.05    0.40
  -2   4  -6    0.95    0.28
  -2   4  -6    0.80    0.36
   2  -4   6    0.18    0.37
   2  -4   6    0.24    0.28
   2  -4   6    0.81    0.26
  -3   4  -6    5.35    0.69
  -3   4  -6    5.58    0.49
  -3   4  -6    5.20    0.59
  -3   4  -6    5.60    0.63
   3  -4   6    5.48    0.65
   3  -4   6    5.00    0.56
   3  -4   6    4.62    0.43
   3  -4   6    5.01    0.47
   3  -4   6    4.45    0.35
  -4   4  -6    0.32    0.20
  -4   4  -6    0.46    0.40
  -4   4  -6   -0.45    0.32
  -4   4  -6    0.08    0.30
   4  -4   6   -0.01    0.26
   4  -4   6    0.19    0.23
   4  -4   6   -0.03    0.15
   4  -4   6    0.25    0.34
  -5   4  -6   -0.24    0.27
  -5   4  -6   -0.03    0.41
   5  -4   6   -0.41    0.40
   5  -4   6    0.25    0.29
  -6   4  -6    1.61    0.46
  -6   4  -6    0.77    0.34
   6  -4   6    1.22    0.34
   6  -4   6    0.59    0.46
  -7   4  -6   -0.13    0.51
  -7   4  -6    0.04    0.35
   7  -4   6   -0.82    0.49
  -8   4  -6    0.01    0.59
  -8   4  -6    0.54    0.68
   8  -4   6    1.35    0.71
  -9   4  -6   -0.28    0.74
   9  -4   6    0.06    0.51
   6   3  -6   -1.41    0.68
   6   3  -6   -0.21    0.78
  -6  -3   6    0.11    0.79
   5   3  -6   -0.74    0.58
   5   3  -6    0.24    0.62
  -5  -3   6    1.16    0.57
  -5  -3   6    0.41    0.64
   4   3  -6    1.11    0.48
   4   3  -6    2.32    0.60
  -4  -3   6    2.34    0.55
  -4  -3   6    1.60    0.57
   3   3  -6    2.11    0.36
   3   3  -6    1.19    0.51
   3   3  -6    2.98    0.55
  -3  -3   6    2.67    0.59
  -3  -3   6    1.34    0.52
   2   3  -6    5.94    0.80
   2   3  -6    6.09    0.76
   2   3  -6    5.11    0.48
  -2  -3   6    6.48    0.71
  -2  -3   6    6.75    0.87
  -2  -3   6    6.38    0.69
   1   3  -6    6.75    0.74
   1   3  -6    6.42    0.70
   1   3  -6    5.22    0.57
  -1  -3   6    5.12    0.67
  -1  -3   6    6.21    0.67
  -1  -3   6    6.69    0.70
   0   3  -6   10.83    0.85
   0   3  -6    9.88    0.79
   0   3  -6   10.56    0.68
   0  -3   6    8.96    0.68
   0  -3   6   10.71    0.81
   0  -3   6   11.00    0.79
   0  -3   6   11.41    0.80
  -1   3  -6    0.49    0.34
  -1   3  -6    0.19    0.31
  -1   3  -6    0.35    0.25
  -1   3  -6    0.25    0.29
   1  -3   6   -0.25    0.24
   1  -3   6    0.28    0.40
   1  -3   6    0.37    0.28
  -2   3  -6   12.35    0.86
  -2   3  -6   11.19    0.86
  -2   3  -6   11.53    0.77
  -2   3  -6   11.48    0.77
   2  -3   6   11.10    0.58
   2  -3   6   12.01    0.67
   2  -3   6   11.26    0.68
   2  -3   6   12.99    0.85
  -3   3  -6    5.94    0.64
  -3   3  -6    5.98    0.51
  -3   3  -6    6.10    0.55
   3  -3   6    5.97    0.46
   3  -3   6    5.80    0.42
   3  -3   6    6.09    0.47
   3  -3   6    6.89    0.61
  -4   3  -6    9.13    0.74
  -4   3  -6    7.96    0.62
   4  -3   6    8.42    0.42
   4  -3   6    7.74    0.49
   4  -3   6    8.55    0.44
   4  -3   6    8.35    0.42
   4  -3   6    8.24    0.74
  -5   3  -6    9.73    0.65
  -5   3  -6    8.19    0.81
   5  -3   6    7.96    0.84
   5  -3   6    8.17    0.55
  -6   3  -6    2.75    0.49
  -6   3  -6    3.01    0.52
   6  -3   6    3.60    0.42
   6  -3   6    4.07    0.68
  -7   3  -6   -0.20    0.30
  -7   3  -6    0.74    0.41
   7  -3   6   -0.37    0.52
  -8   3  -6    0.91    0.49
  -8   3  -6    1.44    0.59
  -8   3  -6    0.78    0.38
  -9   3  -6    0.56    0.79
   9  -3   6    0.99    0.61
 -10   3  -6    0.21    0.89
   6   2  -6    0.79    0.66
   6   2  -6   -0.26    0.62
   6   2  -6    0.40    0.60
  -6  -2   6    1.74    0.72
  -6  -2   6    0.33    0.69
   5   2  -6    0.66    0.55
   5   2  -6   -0.36    0.47
  -5  -2   6    0.35    0.59
  -5  -2   6    0.31    0.57
   4   2  -6    1.39    0.46
   4   2  -6   -0.01    0.54
  -4  -2   6    0.79    0.49
  -4  -2   6    1.12    0.49
   3   2  -6    5.95    0.81
   3   2  -6    7.77    0.74
   2   2  -6    3.09    0.53
   2   2  -6    2.73    0.36
   2   2  -6    2.36    0.42
  -2  -2   6    3.12    0.54
  -2  -2   6    2.83    0.50
   1   2  -6   -0.29    0.28
   1   2  -6    0.48    0.30
   1   2  -6    0.46    0.23
   1   2  -6    0.21    0.28
  -1  -2   6   -0.10    0.33
  -1  -2   6   -0.12    0.29
  -1  -2   6   -0.21    0.27
  -1  -2   6    0.02    0.26
   0   2  -6    7.38    0.55
   0   2  -6    9.33    0.63
   0   2  -6    7.24    0.68
   0   2  -6    8.48    0.64
   0  -2   6    8.84    0.68
   0  -2   6    7.57    0.63
   0  -2   6    8.28    0.62
   0  -2   6    8.42    0.67
  -1   2  -6   18.15    1.06
  -1   2  -6   17.79    0.94
  -1   2  -6   16.99    0.86
  -1   2  -6   18.80    1.00
  -1   2  -6   16.65    0.90
  -1   2  -6   16.88    0.98
   1  -2   6   17.29    0.95
   1  -2   6   14.89    0.91
   1  -2   6   16.90    0.95
   1  -2   6   17.83    0.87
   1  -2   6   18.25    1.03
  -2   2  -6    0.19    0.30
  -2   2  -6    0.22    0.26
  -2   2  -6   -0.20    0.21
  -2   2  -6   -0.10    0.28
  -2   2  -6    0.17    0.27
  -2   2  -6    0.20    0.29
   2  -2   6   -0.11    0.21
   2  -2   6   -0.29    0.23
   2  -2   6    0.01    0.30
   2  -2   6   -0.28    0.16
   2  -2   6    0.02    0.22
  -3   2  -6    2.50    0.38
  -3   2  -6    2.34    0.40
  -3   2  -6    1.84    0.38
  -3   2  -6    3.05    0.46
  -3   2  -6    2.54    0.45
  -3   2  -6    2.29    0.41
   3  -2   6    2.19    0.33
   3  -2   6    2.69    0.44
   3  -2   6    2.51    0.34
   3  -2   6    2.45    0.24
   3  -2   6    3.11    0.43
  -4   2  -6    5.03    0.49
  -4   2  -6    6.14    0.66
  -4   2  -6    4.67    0.44
   4  -2   6    6.54    0.59
   4  -2   6    4.81    0.39
   4  -2   6    4.12    0.43
   4  -2   6    5.04    0.57
   4  -2   6    5.95    0.37
  -5   2  -6    0.34    0.26
  -5   2  -6    0.55    0.31
   5  -2   6    0.26    0.33
   5  -2   6    0.87    0.33
  -6   2  -6    3.44    0.45
  -6   2  -6    3.55    0.56
   6  -2   6    3.14    0.45
   6  -2   6    3.19    0.61
  -7   2  -6    1.27    0.35
  -7   2  -6    0.68    0.36
   7  -2   6    0.84    0.40
   7  -2   6    1.62    0.55
  -8   2  -6    0.04    0.40
  -8   2  -6    0.65    0.51
  -8   2  -6    0.26    0.33
  -9   2  -6   -1.03    0.67
   9  -2   6    0.04    0.40
 -10   2  -6   -1.43    0.85
  10  -2   6    0.51    0.59
   7   1  -6    0.17    0.76
  -7  -1   6    0.80    0.88
  -7  -1   6    0.26    0.77
   6   1  -6    1.08    0.59
   6   1  -6    1.58    0.57
   6   1  -6    0.15    0.59
  -6  -1   6    0.35    0.65
  -6  -1   6    0.37    0.60
   5   1  -6    0.06    0.46
   5   1  -6    0.17    0.43
  -5  -1   6    0.05    0.46
  -5  -1   6    0.42    0.52
   4   1  -6    1.00    0.43
  -4  -1   6    0.68    0.42
  -4  -1   6    0.34    0.39
   3   1  -6    4.01    0.58
   3   1  -6    4.04    0.58
  -3  -1   6    3.87    0.57
  -3  -1   6    4.09    0.70
   2   1  -6    6.24    0.44
   2   1  -6    5.68    0.66
   2   1  -6    6.71    0.66
  -2  -1   6    6.57    0.65
  -2  -1   6    6.91    0.62
  -2  -1   6    4.84    0.67
   1   1  -6    2.56    0.43
   1   1  -6    2.13    0.54
   1   1  -6    2.69    0.45
  -1  -1   6    2.67    0.39
  -1  -1   6    2.32    0.41
  -1  -1   6    1.97    0.34
  -1  -1   6    2.62    0.42
  -1  -1   6    2.17    0.34
   0   1  -6    1.27    0.24
   0   1  -6    1.38    0.32
   0   1  -6    1.34    0.31
   0   1  -6    0.68    0.25
   0   1  -6    0.88    0.27
   0  -1   6    1.33    0.31
   0  -1   6    0.53    0.27
   0  -1   6    1.33    0.40
   0  -1   6    1.46    0.28
   0  -1   6    1.05    0.24
  -1   1  -6    4.38    0.46
  -1   1  -6    4.10    0.48
  -1   1  -6    4.10    0.38
  -1   1  -6    4.87    0.44
  -1   1  -6    4.02    0.44
   1  -1   6    3.90    0.49
   1  -1   6    4.36    0.37
   1  -1   6    5.21    0.48
   1  -1   6    3.55    0.40
   1  -1   6    4.38    0.43
  -2   1  -6   54.82    2.22
  -2   1  -6   53.24    2.27
  -2   1  -6   56.93    2.27
  -2   1  -6   50.50    2.13
  -2   1  -6   55.91    2.21
   2  -1   6   56.19    2.20
   2  -1   6   54.76    2.13
   2  -1   6   53.86    2.00
   2  -1   6   56.21    2.24
   2  -1   6   54.42    2.14
  -3   1  -6   22.09    1.15
  -3   1  -6   21.54    1.03
  -3   1  -6   21.25    1.13
  -3   1  -6   22.71    1.09
  -3   1  -6   22.01    1.09
   3  -1   6   23.82    1.14
   3  -1   6   23.18    1.14
   3  -1   6   23.86    1.02
   3  -1   6   24.18    1.03
  -4   1  -6    6.12    0.53
  -4   1  -6    6.73    0.58
  -4   1  -6    6.76    0.62
  -4   1  -6    6.84    0.53
  -4   1  -6    6.24    0.58
   4  -1   6    6.46    0.41
   4  -1   6    6.37    0.44
   4  -1   6    6.79    0.63
   4  -1   6    6.19    0.57
  -5   1  -6   -0.22    0.25
  -5   1  -6   -0.20    0.22
  -5   1  -6    0.14    0.26
   5  -1   6   -0.30    0.25
   5  -1   6   -0.14    0.24
   5  -1   6   -0.09    0.29
  -6   1  -6    7.34    0.62
  -6   1  -6    6.92    0.54
   6  -1   6    7.95    0.75
   6  -1   6    6.64    0.60
  -7   1  -6    4.41    0.54
  -7   1  -6    5.40    0.52
  -8   1  -6    2.92    0.45
  -8   1  -6    2.46    0.65
  -8   1  -6    2.88    0.42
  -9   1  -6    6.83    1.16
  -9   1  -6    4.47    0.67
 -10   1  -6    1.37    0.91
  10  -1   6   -0.26    0.56
  -7   0   6   -0.11    0.77
  -7   0   6   -1.26    0.72
   6   0  -6    0.09    0.49
   6   0  -6    0.88    0.65
  -6   0   6    0.50    0.56
  -6   0   6    0.25    0.56
   5   0  -6    0.19    0.43
   5   0  -6    0.99    0.42
  -5   0   6    0.52    0.49
  -5   0   6    1.08    0.52
   4   0  -6    0.33    0.35
   4   0  -6    0.32    0.15
   4   0  -6    0.13    0.13
   4   0  -6    0.23    0.34
  -4   0   6    0.61    0.40
  -4   0   6    0.03    0.37
   3   0  -6  110.88    4.18
   3   0  -6  115.26    4.18
  -3   0   6  118.71    4.22
  -3   0   6  110.58    4.23
  -3   0   6   95.48    4.23
   2   0  -6    6.99    0.63
   2   0  -6    5.04    0.52
   2   0  -6    6.06    0.64
  -2   0   6    5.10    0.55
  -2   0   6    6.77    0.65
  -2   0   6    6.12    0.60
  -2   0   6    5.47    0.61
  -2   0   6    5.99    0.48
   1   0  -6   13.11    0.81
   1   0  -6   12.26    0.80
   1   0  -6   12.80    0.81
   1   0  -6   14.35    0.79
   1   0  -6   10.97    0.73
  -1   0   6   11.52    0.71
  -1   0   6   12.60    0.70
  -1   0   6   13.48    0.84
  -1   0   6   12.90    0.79
  -1   0   6   12.20    0.79
  -1   0   6   14.67    0.82
   0   0  -6   16.13    0.86
   0   0  -6   17.55    0.98
   0   0  -6   19.00    0.96
   0   0  -6   18.34    0.93
   0   0  -6   16.13    0.94
   0   0   6   18.79    0.90
   0   0   6   18.54    0.96
   0   0   6   18.57    0.97
   0   0   6   18.04    0.87
   0   0   6   19.38    0.98
   0   0   6   18.35    0.92
  -1   0  -6   85.20    3.25
  -1   0  -6   91.06    3.32
  -1   0  -6   87.50    3.22
  -1   0  -6   84.35    3.25
  -1   0  -6   82.99    3.14
  -1   0  -6   88.21    3.24
   1   0   6   89.54    3.29
   1   0   6   85.53    3.10
   1   0   6   85.07    3.17
   1   0   6   93.90    3.25
   1   0   6   80.36    3.21
  -2   0  -6    1.44    0.27
  -2   0  -6    1.18    0.23
  -2   0  -6    2.17    0.34
  -2   0  -6    1.97    0.33
   2   0   6    1.71    0.27
   2   0   6    1.64    0.21
   2   0   6    1.78    0.29
   2   0   6    1.78    0.30
   2   0   6    2.26    0.30
  -3   0  -6    9.90    0.64
  -3   0  -6    9.21    0.59
  -3   0  -6    9.16    0.59
  -3   0  -6    8.23    0.58
   3   0   6    8.95    0.55
   3   0   6    9.58    0.61
   3   0   6    9.74    0.56
   3   0   6    8.60    0.58
  -4   0  -6    2.63    0.35
  -4   0  -6    3.42    0.39
  -4   0  -6    2.92    0.45
  -4   0  -6    2.54    0.39
   4   0   6    2.77    0.44
   4   0   6    3.05    0.33
   4   0   6    2.50    0.30
   4   0   6    2.43    0.34
   4   0   6    3.12    0.40
  -5   0  -6   19.90    0.94
  -5   0  -6   19.68    0.99
  -5   0  -6   19.56    0.97
   5   0   6   19.16    0.96
   5   0   6   19.29    0.79
   5   0   6   19.06    0.78
   5   0   6   19.60    1.09
   5   0   6   19.71    0.97
  -6   0  -6    7.72    0.58
  -6   0  -6    8.02    0.58
   6   0   6    7.09    0.57
  -7   0  -6    0.90    0.58
  -7   0  -6    1.03    0.30
  -7   0  -6    1.11    0.27
   7   0   6    1.19    0.30
  -8   0  -6    1.56    0.29
  -8   0  -6    1.38    0.37
  -8   0  -6    1.45    0.57
  -9   0  -6    2.16    0.48
  -9   0  -6    2.48    0.70
   9   0   6    2.36    0.49
 -10   0  -6    2.18    0.83
  10   0   6    1.00    0.60
   7  -1  -6    0.31    0.47
  -7   1   6    0.65    0.68
  -7   1   6    1.37    0.75
   6  -1  -6    1.16    0.44
  -6   1   6    1.09    0.54
  -6   1   6    1.43    0.57
   5  -1  -6   10.21    0.78
  -5   1   6   10.87    0.94
   4  -1  -6    7.20    0.65
   4  -1  -6    6.76    0.83
   4  -1  -6    7.68    0.72
  -4   1   6    8.07    0.73
  -4   1   6    6.52    0.70
   3  -1  -6    4.01    0.54
   3  -1  -6    6.22    0.55
   3  -1  -6    5.26    0.61
  -3   1   6    5.42    0.63
  -3   1   6    3.92    0.54
  -3   1   6    5.03    0.55
   2  -1  -6   10.37    0.73
   2  -1  -6   10.93    0.74
   2  -1  -6   11.77    0.76
   2  -1  -6   10.81    0.72
  -2   1   6   10.15    0.72
  -2   1   6   10.64    0.77
  -2   1   6   10.43    0.75
  -2   1   6   10.89    0.60
  -2   1   6   11.35    0.77
   1  -1  -6    4.23    0.44
   1  -1  -6    4.24    0.41
   1  -1  -6    3.87    0.41
   1  -1  -6    3.61    0.40
   1  -1  -6    3.90    0.46
  -1   1   6    4.29    0.46
  -1   1   6    3.32    0.45
  -1   1   6    4.25    0.45
  -1   1   6    3.66    0.44
  -1   1   6    4.52    0.36
   0  -1  -6    4.32    0.46
   0  -1  -6    4.08    0.40
   0  -1  -6    4.77    0.46
   0  -1  -6    4.96    0.41
   0  -1  -6    4.10    0.38
   0   1   6    4.56    0.37
   0   1   6    3.70    0.41
   0   1   6    4.34    0.45
   0   1   6    4.52    0.41
  -1  -1  -6    8.21    0.50
  -1  -1  -6    9.49    0.57
  -1  -1  -6    8.25    0.59
  -1  -1  -6    8.36    0.51
  -1  -1  -6    7.91    0.53
  -1  -1  -6    8.06    0.58
   1   1   6    9.91    0.54
   1   1   6    8.92    0.58
   1   1   6    8.81    0.59
   1   1   6    8.50    0.56
  -2  -1  -6    4.93    0.39
  -2  -1  -6    5.15    0.36
  -2  -1  -6    5.06    0.42
  -2  -1  -6    5.11    0.45
  -2  -1  -6    4.20    0.43
  -2  -1  -6    5.55    0.45
   2   1   6    5.13    0.42
   2   1   6    5.80    0.42
   2   1   6    5.28    0.44
   2   1   6    5.23    0.43
  -3  -1  -6    6.65    0.48
  -3  -1  -6    5.46    0.46
  -3  -1  -6    5.31    0.46
  -3  -1  -6    6.56    0.48
   3   1   6    6.63    0.48
   3   1   6    6.12    0.46
   3   1   6    5.86    0.42
   3   1   6    6.18    0.49
  -4  -1  -6    0.37    0.20
  -4  -1  -6    0.11    0.22
  -4  -1  -6    0.45    0.23
  -4  -1  -6    0.75    0.21
   4   1   6    0.15    0.18
   4   1   6    0.56    0.23
   4   1   6    0.28    0.18
   4   1   6    0.28    0.22
  -5  -1  -6    4.51    0.42
  -5  -1  -6    4.03    0.52
  -5  -1  -6    5.41    0.44
   5   1   6    4.46    0.36
   5   1   6    4.39    0.43
   5   1   6    4.48    0.39
  -6  -1  -6    5.63    0.48
  -6  -1  -6    5.04    0.49
  -6  -1  -6    4.61    0.62
   6   1   6    5.10    0.31
   6   1   6    5.70    0.40
   6   1   6    5.78    0.46
  -7  -1  -6   13.19    0.82
  -7  -1  -6   13.25    0.69
  -7  -1  -6   12.24    1.12
   7   1   6   12.40    0.67
  -8  -1  -6    0.98    0.58
  -8  -1  -6    0.10    0.34
  -9  -1  -6    0.33    0.46
  -9  -1  -6    0.30    0.66
   9   1   6    0.32    0.38
 -10  -1  -6   -0.23    0.57
 -10  -1  -6    0.32    0.75
  10   1   6   -0.07    0.54
   7  -2  -6    1.58    0.48
  -7   2   6   -0.42    0.62
   6  -2  -6    5.24    0.69
  -6   2   6    5.85    0.90
  -6   2   6    6.32    0.80
   5  -2  -6    5.08    0.46
   5  -2  -6    6.82    0.61
  -5   2   6    6.92    0.80
  -5   2   6    6.01    0.71
   4  -2  -6    4.92    0.42
   4  -2  -6    3.91    0.61
  -4   2   6    5.13    0.59
  -4   2   6    5.70    0.64
   3  -2  -6    7.29    0.70
   3  -2  -6    7.85    0.61
   3  -2  -6    8.18    0.66
   3  -2  -6    8.27    0.62
  -3   2   6    7.71    0.65
  -3   2   6    7.40    0.67
  -3   2   6    7.50    0.69
   2  -2  -6    0.39    0.21
   2  -2  -6   -0.11    0.25
   2  -2  -6    0.43    0.27
   2  -2  -6    0.42    0.23
   2  -2  -6    0.04    0.20
  -2   2   6    0.53    0.27
  -2   2   6    0.59    0.28
  -2   2   6    0.32    0.23
  -2   2   6    0.33    0.13
   1  -2  -6   26.17    1.29
   1  -2  -6   29.63    1.30
   1  -2  -6   25.36    1.24
   1  -2  -6   25.64    1.20
   1  -2  -6   25.90    1.21
  -1   2   6   25.55    1.26
  -1   2   6   26.83    1.07
  -1   2   6   26.36    1.26
  -1   2   6   29.16    1.26
  -1   2   6   29.91    1.28
   0  -2  -6    8.88    0.59
   0  -2  -6    8.39    0.56
   0  -2  -6    7.58    0.56
   0  -2  -6    9.32    0.55
   0  -2  -6    9.50    0.63
   0   2   6    7.88    0.57
   0   2   6    8.95    0.57
   0   2   6    7.93    0.57
   0   2   6    7.86    0.43
  -1  -2  -6   36.27    1.46
  -1  -2  -6   35.54    1.40
  -1  -2  -6   35.55    1.51
  -1  -2  -6   33.12    1.44
  -1  -2  -6   34.26    1.47
  -1  -2  -6   30.47    1.37
   1   2   6   34.24    1.46
   1   2   6   32.81    1.40
   1   2   6   34.00    1.46
   1   2   6   32.31    1.45
  -2  -2  -6   23.08    1.10
  -2  -2  -6   22.09    1.10
  -2  -2  -6   24.68    1.14
  -2  -2  -6   23.39    1.02
  -2  -2  -6   25.16    1.00
   2   2   6   22.62    1.10
   2   2   6   24.24    0.97
   2   2   6   25.75    1.07
   2   2   6   22.58    1.10
   2   2   6   23.48    1.12
  -3  -2  -6   17.93    0.88
  -3  -2  -6   18.12    0.89
  -3  -2  -6   16.68    0.92
  -3  -2  -6   19.35    0.93
  -3  -2  -6   18.55    0.81
   3   2   6   18.24    0.71
   3   2   6   18.36    0.90
   3   2   6   16.94    0.87
   3   2   6   16.55    0.89
  -4  -2  -6    9.69    0.61
  -4  -2  -6   10.50    0.67
  -4  -2  -6   10.99    0.64
  -4  -2  -6   11.30    0.70
   4   2   6   10.75    0.62
   4   2   6   10.30    0.62
   4   2   6   10.43    0.63
  -5  -2  -6    4.16    0.48
  -5  -2  -6    4.49    0.47
  -5  -2  -6    4.14    0.46
  -5  -2  -6    4.29    0.41
   5   2   6    4.07    0.39
   5   2   6    3.44    0.39
   5   2   6    4.26    0.39
   5   2   6    3.60    0.39
  -6  -2  -6   18.31    1.16
  -6  -2  -6   18.62    0.97
  -6  -2  -6   19.22    0.88
  -6  -2  -6   19.05    1.01
   6   2   6   18.87    0.85
   6   2   6   17.69    0.81
   6   2   6   17.93    0.85
   6   2   6   17.84    0.85
  -7  -2  -6    1.48    0.35
  -7  -2  -6    0.91    0.50
   7   2   6    0.97    0.17
   7   2   6    0.80    0.33
   7   2   6    0.95    0.17
  -8  -2  -6    1.16    0.53
  -8  -2  -6    0.26    0.36
  -9  -2  -6    0.29    0.57
  -9  -2  -6    1.02    0.64
   9   2   6    0.17    0.40
 -10  -2  -6    0.44    0.95
 -10  -2  -6    1.96    0.79
  10   2   6    2.18    0.65
   7  -3  -6    1.56    0.46
  -7   3   6    0.89    0.61
  -7   3   6    1.87    0.66
  -6   3   6    0.65    0.51
  -6   3   6    0.44    0.49
   5  -3  -6    0.35    0.26
   5  -3  -6    0.58    0.25
  -5   3   6    0.06    0.38
  -5   3   6   -0.34    0.41
   4  -3  -6    2.91    0.47
   4  -3  -6    4.77    0.47
   4  -3  -6    4.21    0.46
   4  -3  -6    3.23    0.45
  -4   3   6    4.75    0.57
  -4   3   6    3.60    0.57
   3  -3  -6    5.27    0.51
   3  -3  -6    5.06    0.49
   3  -3  -6    5.95    0.51
  -3   3   6    5.30    0.57
  -3   3   6    5.58    0.61
  -3   3   6    5.16    0.52
   2  -3  -6    0.78    0.23
   2  -3  -6    1.19    0.22
   2  -3  -6    0.64    0.23
  -2   3   6    0.34    0.21
  -2   3   6    0.79    0.30
  -2   3   6    0.54    0.26
  -2   3   6    0.73    0.28
   1  -3  -6   11.72    0.69
   1  -3  -6   12.41    0.76
   1  -3  -6    9.73    0.64
   1  -3  -6    9.10    0.76
   1  -3  -6   10.77    0.62
  -1   3   6   11.15    0.67
  -1   3   6    9.66    0.67
  -1   3   6   10.19    0.68
   0  -3  -6    2.78    0.36
   0  -3  -6    3.29    0.33
   0  -3  -6    2.66    0.32
   0  -3  -6    2.60    0.36
   0  -3  -6    3.93    0.46
   0   3   6    3.21    0.36
   0   3   6    2.81    0.33
   0   3   6    2.85    0.38
   0   3   6    3.06    0.35
  -1  -3  -6   54.27    2.14
  -1  -3  -6   53.65    2.19
  -1  -3  -6   56.54    2.02
  -1  -3  -6   57.83    2.23
  -1  -3  -6   60.08    2.27
  -1  -3  -6   54.83    2.14
   1   3   6   53.39    2.11
   1   3   6   57.62    2.22
   1   3   6   52.28    2.19
   1   3   6   61.06    2.24
  -2  -3  -6    0.70    0.21
  -2  -3  -6    0.68    0.21
  -2  -3  -6    0.81    0.19
  -2  -3  -6    0.63    0.17
  -2  -3  -6    0.50    0.21
   2   3   6    0.96    0.21
   2   3   6    0.73    0.19
   2   3   6    0.68    0.23
   2   3   6    0.93    0.19
  -3  -3  -6    0.43    0.19
  -3  -3  -6   -0.05    0.23
  -3  -3  -6   -0.05    0.17
  -3  -3  -6   -0.10    0.17
   3   3   6    0.20    0.15
   3   3   6    0.14    0.21
   3   3   6    0.12    0.22
   3   3   6    0.11    0.18
  -4  -3  -6    0.38    0.13
  -4  -3  -6    0.50    0.24
  -4  -3  -6    0.53    0.24
  -4  -3  -6    0.44    0.19
  -4  -3  -6    0.48    0.22
   4   3   6    0.49    0.24
   4   3   6    0.31    0.15
   4   3   6    0.44    0.21
   4   3   6    0.60    0.26
  -5  -3  -6    2.34    0.25
  -5  -3  -6    2.06    0.33
  -5  -3  -6    2.12    0.37
  -5  -3  -6    2.04    0.36
  -5  -3  -6    1.89    0.41
   5   3   6    2.04    0.34
   5   3   6    2.30    0.36
   5   3   6    2.03    0.30
  -6  -3  -6    0.69    0.39
  -6  -3  -6    0.28    0.19
  -6  -3  -6    0.49    0.40
  -6  -3  -6    0.41    0.27
   6   3   6    0.59    0.30
   6   3   6    0.95    0.21
   6   3   6    0.75    0.25
  -7  -3  -6    0.11    0.31
  -7  -3  -6    1.00    0.54
   7   3   6    0.22    0.31
   7   3   6    0.30    0.27
   7   3   6    0.41    0.16
  -8  -3  -6    4.72    0.82
  -8  -3  -6    3.05    0.52
   8   3   6    4.66    0.56
  -9  -3  -6    1.64    0.50
  -9  -3  -6    1.85    0.67
   9   3   6    1.23    0.41
 -10  -3  -6   -1.00    0.79
 -10  -3  -6    0.54    0.64
  10   3   6    0.63    0.61
   7  -4  -6    0.87    0.46
  -7   4   6    0.41    0.64
  -7   4   6    0.21    0.57
   6  -4  -6    2.47    0.41
  -6   4   6    2.15    0.56
   5  -4  -6    3.15    0.51
  -5   4   6    3.51    0.61
   4  -4  -6   23.62    1.04
   4  -4  -6   24.81    1.15
   4  -4  -6   23.47    1.17
   4  -4  -6   23.75    1.07
  -4   4   6   23.35    1.18
   3  -4  -6    0.86    0.27
   3  -4  -6    1.23    0.28
   3  -4  -6    0.81    0.24
   3  -4  -6    0.27    0.23
  -3   4   6    0.72    0.37
  -3   4   6    0.70    0.33
  -3   4   6    0.99    0.28
   2  -4  -6    0.26    0.24
   2  -4  -6   -0.13    0.23
   2  -4  -6   -0.08    0.19
   2  -4  -6   -0.08    0.22
  -2   4   6    0.22    0.30
  -2   4   6   -0.18    0.18
  -2   4   6   -0.20    0.25
  -2   4   6    0.14    0.26
   1  -4  -6   27.97    1.34
   1  -4  -6   26.05    1.21
   1  -4  -6   27.55    1.18
   1  -4  -6   30.41    1.28
  -1   4   6   26.68    1.27
  -1   4   6   27.23    1.30
  -1   4   6   30.07    1.33
  -1   4   6   28.77    1.31
   0  -4  -6   15.26    0.81
   0  -4  -6   15.67    0.85
   0  -4  -6   15.71    0.85
   0  -4  -6   15.94    0.76
   0   4   6   15.35    0.84
   0   4   6   17.33    0.86
   0   4   6   16.05    0.87
   0   4   6   15.18    0.87
  -1  -4  -6    0.45    0.20
  -1  -4  -6    0.33    0.11
  -1  -4  -6    0.24    0.17
  -1  -4  -6   -0.01    0.21
   1   4   6    0.28    0.20
   1   4   6    0.09    0.22
   1   4   6    0.08    0.17
   1   4   6   -0.02    0.20
  -2  -4  -6    7.35    0.50
  -2  -4  -6    7.51    0.55
  -2  -4  -6    6.80    0.51
  -2  -4  -6    6.83    0.44
   2   4   6    7.21    0.49
   2   4   6    7.01    0.52
   2   4   6    6.98    0.55
   2   4   6    7.08    0.49
  -3  -4  -6    4.93    0.48
  -3  -4  -6    6.17    0.50
  -3  -4  -6    6.02    0.44
  -3  -4  -6    6.13    0.41
   3   4   6    5.78    0.45
   3   4   6    6.18    0.51
   3   4   6    5.86    0.49
   3   4   6    5.88    0.43
  -4  -4  -6    0.56    0.26
  -4  -4  -6    0.93    0.29
  -4  -4  -6    0.80    0.28
  -4  -4  -6    0.61    0.27
  -4  -4  -6    0.75    0.20
   4   4   6    0.52    0.20
   4   4   6    0.90    0.23
   4   4   6    1.32    0.29
   4   4   6    1.45    0.26
  -5  -4  -6    0.20    0.34
  -5  -4  -6   -0.02    0.25
  -5  -4  -6   -0.04    0.29
  -5  -4  -6   -0.37    0.37
   5   4   6   -0.01    0.20
   5   4   6   -0.30    0.26
   5   4   6    0.14    0.28
   5   4   6    0.23    0.21
  -6  -4  -6    3.88    0.62
  -6  -4  -6    4.12    0.57
   6   4   6    3.75    0.39
   6   4   6    3.51    0.47
   6   4   6    3.90    0.43
   6   4   6    5.13    0.59
  -7  -4  -6    6.42    0.71
  -7  -4  -6    5.65    0.76
   7   4   6    4.41    0.29
   7   4   6    5.52    0.55
  -8  -4  -6    2.91    0.58
  -8  -4  -6    2.69    0.61
   8   4   6    3.16    0.54
   8   4   6    2.40    0.45
  -9  -4  -6   -0.38    0.67
  -9  -4  -6    0.59    0.56
   9   4   6    0.42    0.47
   9   4   6    1.12    0.46
 -10  -4  -6    1.25    0.91
 -10  -4  -6    1.69    0.69
  10   4   6    1.54    0.58
   7  -5  -6    1.04    0.56
  -7   5   6    0.99    0.68
  -7   5   6    0.68    0.74
  -7   5   6    0.20    0.67
   6  -5  -6    0.20    0.41
  -6   5   6    0.54    0.63
  -6   5   6   -0.02    0.76
  -6   5   6   -0.17    0.43
   5  -5  -6    2.12    0.40
  -5   5   6    1.91    0.53
  -5   5   6    3.03    0.45
  -5   5   6    1.98    0.51
   4  -5  -6    0.05    0.29
   4  -5  -6    0.05    0.26
   4  -5  -6    0.17    0.21
  -4   5   6    0.18    0.25
  -4   5   6    0.36    0.30
   3  -5  -6    1.17    0.32
   3  -5  -6    1.02    0.23
   3  -5  -6    1.30    0.27
   3  -5  -6    1.08    0.24
  -3   5   6    1.74    0.40
  -3   5   6    1.37    0.32
  -3   5   6    1.44    0.26
  -3   5   6    0.69    0.30
   2  -5  -6    0.71    0.26
   2  -5  -6    0.54    0.23
   2  -5  -6    0.50    0.19
  -2   5   6    0.20    0.38
  -2   5   6    0.48    0.30
  -2   5   6    0.84    0.32
   1  -5  -6   11.99    0.62
   1  -5  -6   12.35    0.68
   1  -5  -6   14.02    0.74
   1  -5  -6   11.87    0.75
  -1   5   6   12.52    0.76
  -1   5   6   12.95    0.83
  -1   5   6   12.41    0.80
  -1   5   6   11.55    0.78
   0  -5  -6    0.50    0.21
   0  -5  -6    0.42    0.22
   0  -5  -6    0.43    0.16
   0  -5  -6    0.09    0.21
   0   5   6    0.46    0.27
   0   5   6    0.52    0.26
   0   5   6    0.25    0.25
   0   5   6    0.43    0.24
  -1  -5  -6   12.42    0.73
  -1  -5  -6   13.36    0.59
  -1  -5  -6   11.18    0.70
  -1  -5  -6   13.98    0.78
   1   5   6   14.02    0.82
   1   5   6   11.90    0.74
   1   5   6   13.91    0.80
   1   5   6   14.30    0.77
  -2  -5  -6    2.32    0.33
  -2  -5  -6    1.50    0.26
  -2  -5  -6    1.89    0.26
  -2  -5  -6    1.78    0.30
  -2  -5  -6    2.58    0.42
   2   5   6    2.28    0.34
   2   5   6    1.75    0.30
   2   5   6    1.80    0.30
   2   5   6    1.82    0.34
  -3  -5  -6    2.24    0.33
  -3  -5  -6    2.20    0.38
  -3  -5  -6    1.92    0.32
  -3  -5  -6    1.94    0.31
   3   5   6    2.26    0.38
   3   5   6    2.41    0.35
   3   5   6    2.59    0.39
   3   5   6    2.06    0.32
  -4  -5  -6   -0.02    0.27
  -4  -5  -6   -0.21    0.26
   4   5   6   -0.32    0.21
   4   5   6   -0.11    0.28
   4   5   6   -0.20    0.21
   4   5   6   -0.08    0.29
  -5  -5  -6   -0.08    0.27
  -5  -5  -6    0.61    0.33
   5   5   6    0.74    0.33
   5   5   6    0.35    0.27
   5   5   6    0.18    0.37
   5   5   6    0.23    0.21
  -6  -5  -6    5.65    0.77
  -6  -5  -6    3.53    0.57
   6   5   6    4.23    0.53
   6   5   6    3.49    0.56
   6   5   6    3.35    0.42
  -7  -5  -6    1.38    0.48
  -7  -5  -6    0.80    0.46
   7   5   6    1.04    0.20
   7   5   6    0.38    0.53
   7   5   6    1.40    0.38
  -8  -5  -6    0.32    0.53
  -8  -5  -6   -0.02    0.48
   8   5   6   -0.49    0.38
   8   5   6   -0.04    0.42
  -9  -5  -6    2.21    0.67
  -9  -5  -6    1.33    0.76
   9   5   6    0.93    0.51
   7  -6  -6    0.96    0.56
  -7   6   6    0.54    0.70
   6  -6  -6    1.80    0.50
  -6   6   6    3.28    0.75
  -6   6   6    1.57    0.69
  -6   6   6    2.28    0.55
   5  -6  -6    2.06    0.43
  -5   6   6    1.42    0.64
  -5   6   6    1.28    0.34
   4  -6  -6    5.27    0.32
   4  -6  -6    5.45    0.49
   4  -6  -6    6.39    0.67
   4  -6  -6    5.65    0.33
  -4   6   6    5.60    0.69
  -4   6   6    7.57    0.81
  -4   6   6    6.26    0.49
   3  -6  -6   16.30    0.97
   3  -6  -6   13.08    0.71
   3  -6  -6   15.80    0.77
   3  -6  -6   15.47    0.71
  -3   6   6   11.82    0.90
  -3   6   6   16.83    0.98
  -3   6   6   15.44    1.04
   2  -6  -6    0.03    0.22
   2  -6  -6   -0.05    0.26
   2  -6  -6    0.07    0.22
   2  -6  -6    0.25    0.15
  -2   6   6    0.17    0.27
  -2   6   6    0.55    0.33
  -2   6   6    0.43    0.34
   1  -6  -6   16.23    0.97
   1  -6  -6   16.86    0.88
   1  -6  -6   15.82    0.93
   1  -6  -6   16.38    0.70
  -1   6   6   15.57    0.97
  -1   6   6   16.85    0.91
  -1   6   6   15.92    0.95
   0  -6  -6   63.38    2.33
   0  -6  -6   55.34    2.27
   0  -6  -6   59.43    2.39
   0  -6  -6   60.35    2.06
   0   6   6   56.23    2.35
   0   6   6   55.22    2.36
   0   6   6   61.68    2.38
   0   6   6   53.23    2.30
  -1  -6  -6   69.32    2.53
  -1  -6  -6   69.28    2.57
   1   6   6   66.91    2.59
   1   6   6   56.68    2.48
   1   6   6   62.66    2.52
   1   6   6   59.54    2.52
  -2  -6  -6    0.38    0.25
  -2  -6  -6    0.34    0.23
  -2  -6  -6    0.30    0.19
  -2  -6  -6   -0.20    0.28
  -2  -6  -6    0.57    0.26
   2   6   6    0.13    0.29
   2   6   6    0.72    0.27
   2   6   6    0.13    0.25
  -3  -6  -6    3.50    0.46
  -3  -6  -6    4.46    0.49
  -3  -6  -6    3.31    0.45
   3   6   6    2.78    0.49
   3   6   6    3.58    0.46
   3   6   6    3.77    0.45
  -4  -6  -6    9.02    0.74
  -4  -6  -6    9.71    0.98
   4   6   6   10.25    0.69
   4   6   6   11.06    0.78
  -5  -6  -6   17.93    1.07
  -5  -6  -6   18.84    1.11
   5   6   6   18.07    1.11
   5   6   6   15.72    0.86
   5   6   6   17.70    1.00
  -6  -6  -6    1.29    0.47
  -6  -6  -6    0.61    0.41
  -6  -6  -6    1.43    0.53
   6   6   6    0.94    0.43
   6   6   6    0.76    0.26
   6   6   6    1.31    0.38
  -7  -6  -6    0.51    0.44
  -7  -6  -6    0.91    0.52
   7   6   6   -0.44    0.44
   7   6   6    0.38    0.32
   7   6   6    0.93    0.42
  -8  -6  -6    0.67    0.61
  -8  -6  -6    0.26    0.57
   8   6   6    0.42    0.41
  -9  -6  -6    1.48    0.85
  -9  -6  -6   -0.73    0.75
   9   6   6    0.34    0.57
  -7   7   6    3.61    1.54
  -7   7   6    2.35    0.85
   6  -7  -6    4.35    1.00
   6  -7  -6    1.93    0.48
  -6   7   6    2.94    0.83
   5  -7  -6    0.72    0.44
  -5   7   6   -0.48    0.59
  -5   7   6    0.21    0.47
   4  -7  -6    1.78    0.49
  -4   7   6    1.60    0.45
  -4   7   6    1.90    0.59
   3  -7  -6    2.59    0.37
   3  -7  -6    1.95    0.33
   3  -7  -6    2.30    0.31
   3  -7  -6    2.40    0.52
  -3   7   6    2.29    0.45
   2  -7  -6    0.30    0.23
   2  -7  -6   -0.07    0.31
  -2   7   6    0.40    0.37
  -2   7   6    0.43    0.33
   1  -7  -6   13.09    0.52
   1  -7  -6   13.45    0.78
   1  -7  -6   13.05    0.93
  -1   7   6   13.75    0.92
  -1   7   6   13.05    0.88
   0  -7  -6  141.41    5.48
   0  -7  -6  143.60    5.19
   0  -7  -6  144.22    5.21
   0  -7  -6  149.37    5.36
   0  -7  -6  135.05    4.92
   0  -7  -6  139.14    4.92
   0   7   6  146.20    5.31
   0   7   6  162.98    5.35
  -1  -7  -6    1.22    0.29
  -1  -7  -6    1.39    0.35
  -1  -7  -6    1.19    0.23
  -1  -7  -6    1.41    0.39
  -1  -7  -6    0.86    0.35
   1   7   6    1.28    0.32
   1   7   6    1.36    0.34
  -2  -7  -6   21.52    1.14
  -2  -7  -6   24.43    1.09
  -2  -7  -6   25.13    1.27
   2   7   6   22.53    1.18
   2   7   6   24.81    1.26
   2   7   6   22.62    1.25
  -3  -7  -6   22.28    1.20
  -3  -7  -6   24.04    1.14
  -3  -7  -6   24.13    1.27
   3   7   6   22.71    1.18
   3   7   6   22.25    1.22
   3   7   6   21.55    1.26
  -4  -7  -6    2.78    0.46
  -4  -7  -6    2.87    0.51
  -4  -7  -6    3.22    0.60
   4   7   6    2.68    0.54
   4   7   6    2.91    0.40
   4   7   6    3.23    0.51
  -5  -7  -6    1.16    0.42
  -5  -7  -6    1.61    0.65
   5   7   6    0.78    0.46
   5   7   6    1.22    0.42
  -6  -7  -6   -0.36    0.45
  -6  -7  -6   -0.07    0.49
   6   7   6    0.77    0.49
   6   7   6    0.23    0.42
  -7  -7  -6   -0.17    0.54
   7   7   6   -0.23    0.66
   7   7   6   -0.79    0.51
  -8  -7  -6    0.17    0.70
  -8  -7  -6    0.31    0.66
   8   7   6   -0.27    0.70
   8   7   6   -0.05    0.66
   8   7   6   -0.49    0.42
  -9  -7  -6    2.08    0.85
   9   7   6    0.18    0.57
   6  -8  -6    1.05    0.50
   6  -8  -6    1.17    0.59
  -6   8   6    1.42    0.77
  -6   8   6    0.91    0.68
   5  -8  -6    1.79    0.57
  -5   8   6    1.82    0.61
  -5   8   6    2.39    0.79
   4  -8  -6    3.10    0.56
  -4   8   6    3.53    0.66
  -4   8   6    3.13    0.59
   3  -8  -6   -0.01    0.25
  -3   8   6    0.30    0.50
  -3   8   6   -0.69    0.37
   2  -8  -6   28.26    1.53
   2  -8  -6   25.34    1.16
  -2   8   6   26.03    1.34
   1  -8  -6    0.98    0.35
   1  -8  -6    1.17    0.15
   1  -8  -6    1.07    0.38
   1  -8  -6    1.14    0.30
  -1   8   6    1.54    0.49
  -1   8   6    1.14    0.42
   0  -8  -6    4.07    0.58
   0  -8  -6    4.62    0.50
   0  -8  -6    3.38    0.24
   0  -8  -6    3.51    0.59
   0  -8  -6    3.31    0.23
   0   8   6    3.56    0.62
   0   8   6    3.53    0.59
  -1  -8  -6   16.91    1.01
  -1  -8  -6   16.56    0.80
  -1  -8  -6   18.25    1.12
   1   8   6   19.09    1.12
   1   8   6   19.42    1.12
  -2  -8  -6    0.02    0.33
  -2  -8  -6    0.39    0.33
  -2  -8  -6    0.07    0.21
   2   8   6   -0.50    0.36
   2   8   6   -0.38    0.35
  -3  -8  -6    1.04    0.40
  -3  -8  -6    0.02    0.51
   3   8   6    0.18    0.40
   3   8   6    0.61    0.39
  -4  -8  -6   11.33    0.81
  -4  -8  -6   12.44    1.07
   4   8   6   10.07    0.86
   4   8   6   11.94    0.98
  -5  -8  -6    9.01    0.78
  -5  -8  -6    7.95    0.83
   5   8   6    7.41    0.94
   5   8   6    8.06    0.90
  -6  -8  -6    0.18    0.51
  -6  -8  -6    0.75    0.53
   6   8   6    0.78    0.36
   6   8   6    1.98    0.56
  -7  -8  -6    1.37    0.65
  -7  -8  -6    2.10    0.62
   7   8   6    1.41    0.42
   7   8   6    0.09    0.60
   7   8   6    0.78    0.64
  -8  -8  -6   -0.70    0.71
  -8  -8  -6    0.07    0.69
   8   8   6    0.27    0.71
   8   8   6    1.88    0.70
   6  -9  -6    0.53    0.71
   6  -9  -6    1.74    0.96
  -6   9   6    0.81    0.98
  -6   9   6    1.69    0.81
   5  -9  -6    0.89    0.44
   5  -9  -6    1.91    0.60
  -5   9   6    1.75    0.74
  -5   9   6    0.20    0.71
   4  -9  -6    0.23    0.54
  -4   9   6    0.34    0.68
  -4   9   6    1.09    0.57
   3  -9  -6    2.67    0.56
  -3   9   6    2.59    0.59
  -3   9   6    4.79    0.79
   2  -9  -6   10.09    0.93
   2  -9  -6    9.23    0.60
   2  -9  -6    8.74    0.45
  -2   9   6    8.68    0.88
  -2   9   6    6.72    0.86
   1  -9  -6    7.34    0.67
   1  -9  -6    6.05    0.78
   1  -9  -6    8.50    0.63
   1  -9  -6    6.63    0.50
  -1   9   6    7.28    0.83
  -1   9   6    8.08    0.85
   0  -9  -6   10.80    0.65
   0  -9  -6   11.82    0.81
   0  -9  -6   10.69    1.04
   0   9   6   10.36    0.89
  -1  -9  -6    1.84    0.42
   1   9   6    1.43    0.49
   1   9   6    1.85    0.59
  -2  -9  -6    4.74    0.49
  -2  -9  -6    5.85    0.77
  -2  -9  -6    5.43    0.85
   2   9   6    5.17    1.16
   2   9   6    5.22    0.74
  -3  -9  -6    5.20    0.72
  -3  -9  -6    4.40    0.55
  -3  -9  -6    4.86    0.82
   3   9   6    5.22    0.78
   3   9   6    4.64    0.76
  -4  -9  -6   16.37    1.17
  -4  -9  -6   17.48    1.06
   4   9   6   17.34    1.21
   4   9   6   17.21    1.31
  -5  -9  -6    3.93    0.76
  -5  -9  -6    4.90    0.80
   5   9   6    3.72    0.64
   5   9   6    3.58    0.71
  -6  -9  -6   -0.44    0.58
  -6  -9  -6    0.57    0.53
  -6  -9  -6    1.73    0.58
   6   9   6    0.03    0.45
   6   9   6   -0.71    0.54
   6   9   6    0.40    0.59
  -7  -9  -6    0.79    0.73
  -7  -9  -6    1.08    0.63
   7   9   6    1.49    0.74
   7   9   6    0.46    0.72
   7   9   6    0.56    0.51
   5 -10  -6    1.45    0.65
   5 -10  -6    1.07    0.69
  -5  10   6    1.65    0.74
  -5  10   6    3.12    0.93
   4 -10  -6    0.06    0.43
   4 -10  -6   -0.80    0.55
  -4  10   6   -0.07    0.60
  -4  10   6    0.87    0.73
   3 -10  -6   -0.27    0.50
  -3  10   6    0.46    0.57
  -3  10   6    0.40    0.59
   2 -10  -6    1.82    0.39
   2 -10  -6    2.74    0.58
   2 -10  -6    1.23    0.32
  -2  10   6    1.98    0.55
  -2  10   6    1.59    0.59
   1 -10  -6    0.94    0.47
   1 -10  -6    0.93    0.49
   1 -10  -6    1.43    0.38
   1 -10  -6    1.42    0.29
  -1  10   6    1.35    0.55
  -1  10   6    1.28    0.53
   0 -10  -6    1.52    0.49
   0 -10  -6    0.63    0.30
   0 -10  -6    0.76    0.39
   0  10   6    1.25    0.48
   0  10   6    1.69    0.66
  -1 -10  -6   -0.02    0.37
  -1 -10  -6   -0.41    0.41
  -1 -10  -6    0.25    0.35
   1  10   6    0.35    0.48
   1  10   6    0.27    0.55
  -2 -10  -6    0.09    0.42
  -2 -10  -6   -0.09    0.46
  -2 -10  -6   -0.18    0.26
   2  10   6   -0.36    0.53
   2  10   6   -0.06    0.45
  -3 -10  -6   -0.35    0.43
  -3 -10  -6    0.44    0.34
  -3 -10  -6    0.29    0.46
   3  10   6    1.09    0.53
   3  10   6    0.44    0.50
  -4 -10  -6    0.12    0.50
  -4 -10  -6   -0.48    0.43
  -4 -10  -6    0.15    0.50
   4  10   6    0.58    0.58
   4  10   6    0.13    0.53
  -5 -10  -6    1.13    0.54
  -5 -10  -6    0.71    0.84
   5  10   6    2.19    0.72
   5  10   6    0.44    0.67
   5  10   6    1.02    0.56
  -6 -10  -6    2.59    0.65
  -6 -10  -6    2.55    0.65
  -6 -10  -6    2.17    0.73
   6  10   6    0.49    0.80
  -7 -10  -6    1.65    1.07
   7  10   6    0.67    0.98
   7  10   6    0.44    1.09
   4 -11  -6   -0.25    0.51
   4 -11  -6    0.42    0.75
  -4  11   6    0.71    0.88
  -4  11   6    1.08    0.75
   3 -11  -6    0.03    0.44
   3 -11  -6    0.06    0.61
  -3  11   6    1.06    0.80
  -3  11   6   -0.18    0.64
   2 -11  -6    0.16    0.38
   2 -11  -6    0.67    0.66
  -2  11   6   -0.11    0.75
  -2  11   6    0.61    0.64
   1 -11  -6    3.65    0.69
   1 -11  -6    4.69    0.68
   1 -11  -6    4.80    0.60
  -1  11   6    4.35    0.81
  -1  11   6    2.94    0.69
   0 -11  -6    1.38    0.40
   0 -11  -6    1.59    0.59
   0 -11  -6    0.93    0.47
   0  11   6    0.86    0.60
   0  11   6    1.08    0.62
  -1 -11  -6    0.43    0.53
   1  11   6    0.41    0.57
   1  11   6    1.04    0.62
  -2 -11  -6    3.45    0.65
  -2 -11  -6    3.00    0.68
   2  11   6    4.03    0.74
   2  11   6    3.94    0.71
  -3 -11  -6    3.55    0.53
  -3 -11  -6    5.66    0.96
  -3 -11  -6    3.41    0.58
   3  11   6    2.95    0.81
   3  11   6    4.94    0.92
  -4 -11  -6    4.63    0.76
  -4 -11  -6    5.91    1.05
  -4 -11  -6    4.74    0.71
   4  11   6    4.54    0.86
   4  11   6    4.11    0.84
   4  11   6    4.10    0.78
  -5 -11  -6    3.38    0.71
  -5 -11  -6    2.86    0.72
  -5 -11  -6    3.42    0.89
   5  11   6    3.30    0.79
   5  11   6    3.18    0.77
   5  11   6    3.72    0.88
  -6 -11  -6    0.10    0.75
  -6 -11  -6    1.53    0.78
  -6 -11  -6   -1.35    0.91
   6  11   6    1.06    0.98
   3 -12  -6    3.07    0.86
  -3  12   6    2.25    0.88
  -3  12   6    2.27    1.03
   2 -12  -6   -0.14    0.43
   2 -12  -6   -0.64    0.67
  -2  12   6    0.19    0.79
  -2  12   6    1.75    0.78
   1 -12  -6   -0.08    0.64
  -1  12   6   -1.11    0.80
  -1  12   6   -0.60    0.72
   0 -12  -6    1.46    0.57
   0 -12  -6   -0.41    0.63
   0 -12  -6   -0.12    0.53
   0  12   6   -0.71    0.64
   0  12   6   -0.53    0.76
  -1 -12  -6    2.29    0.65
  -1 -12  -6    1.90    0.62
  -1 -12  -6    2.02    0.70
   1  12   6    3.31    0.76
   1  12   6    2.00    0.77
  -2 -12  -6    1.63    0.69
   2  12   6   -0.33    0.63
   2  12   6    0.46    0.78
   2  12   6    0.56    0.70
  -3 -12  -6    0.89    0.67
  -3 -12  -6    0.00    0.65
   3  12   6    0.41    0.72
   3  12   6    1.90    0.81
   3  12   6   -0.58    0.81
  -4 -12  -6    0.07    0.75
   4  12   6    1.25    0.90
   4  12   6   -0.17    0.91
   4  12   6   -0.62    0.75
   1 -13  -6    2.59    1.19
  -1  13   6    3.85    1.00
  -1  13   6    3.11    1.07
  -1  13   6    3.66    1.30
   0 -13  -6    2.15    0.90
   0  13   6    3.71    0.88
   0  13   6   -0.06    0.97
   0  13   6   -0.22    0.85
  -1 -13  -6    0.37    0.80
  -1 -13  -6    1.00    0.71
   1  13   6    1.71    0.82
   1  13   6   -0.36    0.85
   1  13   6    0.31    1.00
  -2 -13  -6   -1.12    0.83
  -2 -13  -6    0.97    0.74
   2  13   6    1.60    1.11
   2  13   6    2.48    0.92
   2  13   6   -0.64    1.17
  -1   8  -7    1.10    0.92
  -1   8  -7    1.01    1.42
  -1   8  -7    1.89    1.02
   1  -8   7    1.22    1.22
   1  -8   7    1.00    0.90
  -2   8  -7    1.11    0.78
  -2   8  -7    0.17    0.89
  -2   8  -7    0.46    0.86
   2  -8   7    0.17    0.77
  -3   8  -7    1.37    0.91
  -3   8  -7    3.05    0.92
   3  -8   7    1.44    0.82
  -4   8  -7    0.56    0.79
  -4   8  -7    1.62    1.05
   4  -8   7    1.38    0.95
   1   7  -7    1.03    0.82
   1   7  -7   -0.25    0.79
  -1  -7   7    1.55    0.71
  -1  -7   7    2.08    1.16
   0   7  -7    2.42    0.84
   0   7  -7    2.49    0.77
   0  -7   7    1.74    0.78
  -1   7  -7    0.66    0.77
  -1   7  -7    0.23    0.65
  -1   7  -7    0.89    0.64
   1  -7   7   -1.16    0.58
   1  -7   7   -0.16    0.64
  -2   7  -7    2.65    0.73
  -2   7  -7    2.90    0.69
  -2   7  -7    2.66    0.77
   2  -7   7    2.60    0.79
   2  -7   7    2.80    0.62
  -3   7  -7   -0.76    0.69
  -3   7  -7   -0.12    0.57
  -3   7  -7   -0.67    0.68
   3  -7   7    0.99    0.65
  -4   7  -7    0.88    0.66
  -4   7  -7    0.48    0.75
   4  -7   7    0.81    0.72
  -5   7  -7   -0.22    0.82
  -5   7  -7    1.71    0.70
   5  -7   7    2.30    0.75
  -6   7  -7    0.27    0.95
  -6   7  -7    0.78    0.69
   6  -7   7    0.07    0.81
   3   6  -7    0.77    0.98
   3   6  -7   -1.27    0.75
  -3  -6   7    0.75    1.15
  -3  -6   7    0.38    0.75
  -3  -6   7    1.28    0.92
   2   6  -7    1.25    0.74
  -2  -6   7    2.29    0.70
  -2  -6   7    1.94    0.72
  -2  -6   7    2.76    0.78
   1   6  -7   -0.45    0.70
   1   6  -7    1.28    0.68
  -1  -6   7    1.28    0.68
  -1  -6   7    1.20    0.60
  -1  -6   7    0.83    0.64
   0   6  -7    0.82    0.70
   0   6  -7   -0.65    0.64
   0  -6   7    0.87    0.57
   0  -6   7    1.04    0.50
   0  -6   7    0.50    0.62
  -1   6  -7   -0.06    0.62
  -1   6  -7   -0.32    0.60
   1  -6   7   -0.12    0.50
   1  -6   7   -0.46    0.50
  -2   6  -7    1.25    0.63
  -2   6  -7    0.57    0.49
  -2   6  -7    0.99    0.59
   2  -6   7    1.29    0.43
   2  -6   7    0.53    0.50
  -3   6  -7    1.33    0.44
  -3   6  -7    0.79    0.53
  -3   6  -7    1.12    0.64
  -3   6  -7    0.75    0.37
   3  -6   7    1.67    0.66
   3  -6   7    0.51    0.39
  -4   6  -7    1.24    0.58
  -4   6  -7    0.72    0.43
  -4   6  -7    1.49    0.66
   4  -6   7    1.19    0.63
  -5   6  -7   -0.57    0.96
  -5   6  -7   -0.32    0.56
   5  -6   7    0.39    0.66
  -6   6  -7    0.59    0.75
   6  -6   7   -0.32    0.70
  -7   6  -7   -0.15    0.73
   7  -6   7   -0.18    0.78
   4   5  -7    1.28    0.78
  -4  -5   7    2.14    0.87
  -4  -5   7    1.14    0.98
  -4  -5   7    1.67    0.86
   3   5  -7   -0.06    0.64
   3   5  -7   -0.73    0.64
   3   5  -7   -0.08    0.60
  -3  -5   7    0.90    0.67
  -3  -5   7   -0.02    0.70
  -3  -5   7    0.84    0.66
   2   5  -7    1.40    0.63
   2   5  -7    1.06    0.65
  -2  -5   7    1.70    0.66
  -2  -5   7    1.45    0.57
  -2  -5   7    1.98    0.64
   1   5  -7    0.65    0.64
   1   5  -7    0.40    0.55
  -1  -5   7    1.48    0.52
  -1  -5   7    1.08    0.50
  -1  -5   7    0.14    0.49
   0   5  -7    1.86    0.60
   0   5  -7    2.34    0.60
   0  -5   7    1.35    0.52
   0  -5   7    2.18    0.58
   0  -5   7    1.50    0.46
  -1   5  -7    2.61    0.60
  -1   5  -7    2.69    0.59
   1  -5   7    2.21    0.56
   1  -5   7    3.16    0.53
  -2   5  -7    0.79    0.51
  -2   5  -7    0.82    0.34
  -2   5  -7    1.37    0.55
   2  -5   7    1.39    0.59
   2  -5   7    0.81    0.37
   2  -5   7    0.46    0.45
  -3   5  -7    3.76    0.50
  -3   5  -7    2.83    0.43
  -3   5  -7    2.89    0.65
  -3   5  -7    2.46    0.94
   3  -5   7    2.04    0.38
   3  -5   7    3.76    0.69
  -4   5  -7    2.74    0.59
  -4   5  -7    1.55    0.34
  -4   5  -7    1.61    0.49
   4  -5   7    1.36    0.52
  -5   5  -7    0.56    0.59
  -5   5  -7   -0.04    0.43
   5  -5   7    0.66    0.59
  -6   5  -7    0.26    0.60
  -6   5  -7   -0.32    0.48
   6  -5   7   -0.15    0.60
   6  -5   7    0.68    0.42
  -7   5  -7    1.57    0.58
  -7   5  -7    1.17    0.69
   7  -5   7    1.20    0.71
  -8   5  -7   -0.67    0.77
   8  -5   7   -0.14    0.78
   4   4  -7    1.37    0.64
   4   4  -7    1.11    0.75
   4   4  -7    0.75    0.64
  -4  -4   7    1.51    0.68
  -4  -4   7    1.82    0.72
   3   4  -7    0.96    0.61
   3   4  -7    0.53    0.56
  -3  -4   7    0.37    0.58
  -3  -4   7    0.86    0.58
  -3  -4   7    1.25    0.56
   2   4  -7    5.00    0.87
   2   4  -7    4.71    0.79
  -2  -4   7    3.55    0.68
  -2  -4   7    4.01    0.69
  -2  -4   7    3.75    0.63
   1   4  -7   -0.45    0.50
   1   4  -7    0.75    0.42
   1   4  -7    0.42    0.46
  -1  -4   7    0.98    0.46
  -1  -4   7    1.41    0.50
  -1  -4   7    0.93    0.48
   0   4  -7    2.25    0.51
   0   4  -7    2.07    0.55
   0  -4   7    1.19    0.49
  -1   4  -7    1.45    0.54
  -1   4  -7    1.88    0.51
   1  -4   7    1.92    0.51
   1  -4   7    2.19    0.47
   1  -4   7    1.87    0.53
  -2   4  -7    5.16    0.54
  -2   4  -7    6.95    0.84
  -2   4  -7    5.56    0.77
   2  -4   7    5.68    0.62
   2  -4   7    6.46    0.75
  -3   4  -7    0.79    0.42
  -3   4  -7    0.81    0.51
   3  -4   7    0.85    0.29
  -4   4  -7    0.67    0.40
  -4   4  -7    0.85    0.50
   4  -4   7    0.16    0.44
   4  -4   7    0.81    0.29
   4  -4   7    1.40    0.27
  -5   4  -7   -0.01    0.36
  -5   4  -7   -0.97    0.47
   5  -4   7    0.09    0.46
   5  -4   7   -0.25    0.32
  -6   4  -7    0.42    0.49
  -6   4  -7    0.61    0.42
   6  -4   7    0.17    0.35
   6  -4   7    0.19    0.49
  -7   4  -7    1.47    0.62
  -7   4  -7    2.58    0.51
   7  -4   7    2.12    0.44
   7  -4   7    1.87    0.65
  -8   4  -7    4.61    0.78
   8  -4   7    2.41    0.77
  -9   4  -7   -1.32    0.83
   9  -4   7    0.56    0.53
   5   3  -7    7.04    1.16
  -5  -3   7    9.06    1.31
  -5  -3   7    9.07    1.16
   4   3  -7    0.05    0.65
   4   3  -7   -0.21    0.58
   4   3  -7   -0.11    0.57
  -4  -3   7    0.80    0.66
  -4  -3   7    0.27    0.58
   3   3  -7    1.01    0.58
   3   3  -7    0.74    0.49
  -3  -3   7    1.21    0.61
  -3  -3   7    0.83    0.54
  -3  -3   7    0.72    0.49
   2   3  -7    0.16    0.45
   2   3  -7   -0.10    0.44
  -2  -3   7    0.45    0.43
  -2  -3   7   -0.31    0.43
  -2  -3   7    0.66    0.46
   1   3  -7   -0.13    0.34
   1   3  -7   -0.42    0.38
  -1  -3   7    0.40    0.37
  -1  -3   7   -0.29    0.40
   0   3  -7    0.65    0.36
   0   3  -7    0.29    0.39
   0   3  -7    1.31    0.49
   0  -3   7    0.80    0.37
   0  -3   7    1.03    0.41
  -1   3  -7    5.02    0.63
  -1   3  -7    5.34    0.52
  -1   3  -7    4.87    0.70
   1  -3   7    4.93    0.56
   1  -3   7    4.39    0.56
   1  -3   7    4.64    0.59
  -2   3  -7    3.59    0.57
  -2   3  -7    3.35    0.60
   2  -3   7    3.82    0.55
   2  -3   7    2.75    0.46
   2  -3   7    4.45    0.52
  -3   3  -7    1.43    0.44
  -3   3  -7    1.16    0.35
   3  -3   7    1.61    0.27
   3  -3   7    1.62    0.48
   3  -3   7    1.78    0.32
   3  -3   7    1.45    0.33
  -4   3  -7    0.92    0.43
  -4   3  -7    0.44    0.33
   4  -3   7   -0.15    0.18
   4  -3   7    0.25    0.24
   4  -3   7    0.10    0.37
   4  -3   7    0.09    0.23
   4  -3   7    0.52    0.26
  -5   3  -7    0.90    0.45
  -5   3  -7    0.62    0.37
   5  -3   7    0.64    0.32
   5  -3   7    0.47    0.42
  -6   3  -7    0.43    0.46
  -6   3  -7    0.36    0.35
   6  -3   7    0.49    0.32
   6  -3   7    1.09    0.54
  -7   3  -7    9.94    0.81
  -7   3  -7    9.47    1.02
   7  -3   7    9.67    1.05
  -8   3  -7   -0.32    0.57
  -8   3  -7    1.19    0.44
  -8   3  -7    1.19    0.64
   8  -3   7    0.14    0.62
  -9   3  -7   -0.59    0.85
   9  -3   7    0.80    0.84
   6   2  -7    0.34    0.81
   6   2  -7    1.05    0.78
  -6  -2   7   -0.41    0.91
  -6  -2   7   -0.46    1.59
   5   2  -7    1.97    0.63
   5   2  -7    2.20    0.69
  -5  -2   7    1.21    0.63
  -5  -2   7    2.10    0.72
   4   2  -7    0.40    0.58
   4   2  -7    0.46    0.51
  -4  -2   7   -0.08    0.51
  -4  -2   7    0.40    0.54
   3   2  -7    1.96    0.57
  -3  -2   7    3.28    0.63
  -3  -2   7    2.44    0.58
  -3  -2   7    1.74    0.51
   2   2  -7    3.68    0.64
   2   2  -7    3.12    0.63
  -2  -2   7    4.34    0.73
  -2  -2   7    4.55    0.71
  -2  -2   7    5.50    0.65
   1   2  -7    8.87    0.64
   1   2  -7    8.89    0.90
   1   2  -7    7.91    0.86
  -1  -2   7    9.20    0.83
  -1  -2   7    9.25    0.75
  -1  -2   7    8.32    0.81
   0   2  -7    1.43    0.47
   0   2  -7    1.36    0.37
   0   2  -7    1.32    0.35
   0   2  -7    1.33    0.27
   0  -2   7    1.90    0.38
   0  -2   7    1.28    0.41
   0  -2   7    1.25    0.37
  -1   2  -7    5.26    0.58
  -1   2  -7    5.69    0.67
  -1   2  -7    5.58    0.65
  -1   2  -7    5.13    0.70
   1  -2   7    6.43    0.56
   1  -2   7    5.14    0.56
  -2   2  -7   -0.28    0.33
  -2   2  -7    0.06    0.30
   2  -2   7    0.19    0.22
   2  -2   7   -0.46    0.31
   2  -2   7   -0.05    0.25
   2  -2   7   -0.18    0.26
  -3   2  -7    7.38    0.70
  -3   2  -7    5.96    0.57
  -3   2  -7    7.02    0.64
   3  -2   7    6.39    0.63
   3  -2   7    6.35    0.43
   3  -2   7    6.60    0.55
  -4   2  -7   -0.05    0.31
  -4   2  -7   -0.25    0.30
  -4   2  -7    0.02    0.29
   4  -2   7    0.50    0.38
   4  -2   7   -0.09    0.23
   4  -2   7   -0.05    0.21
   4  -2   7    0.00    0.22
  -5   2  -7    6.97    0.61
  -5   2  -7    7.33    0.71
   5  -2   7    6.18    0.75
   5  -2   7    5.79    0.51
  -6   2  -7    0.79    0.35
  -6   2  -7    0.23    0.39
   6  -2   7    0.36    0.43
  -7   2  -7    1.83    0.44
  -7   2  -7    0.81    0.35
   7  -2   7    1.59    0.57
  -8   2  -7    1.59    0.64
  -8   2  -7    1.29    0.44
  -8   2  -7    1.65    0.49
  -9   2  -7   -0.75    0.70
 -10   2  -7    0.03    1.02
   6   1  -7   -1.21    0.73
   6   1  -7   -0.95    0.90
   6   1  -7    0.75    0.75
  -6  -1   7    0.14    0.78
  -6  -1   7    1.16    0.82
   5   1  -7   -0.05    0.54
   5   1  -7    0.88    0.54
   5   1  -7    1.06    0.57
  -5  -1   7   -0.70    0.60
  -5  -1   7    0.34    0.58
   4   1  -7    5.43    0.89
   4   1  -7    4.81    0.73
  -4  -1   7    5.01    0.89
   3   1  -7    0.66    0.44
   3   1  -7    0.84    0.58
   3   1  -7    0.01    0.26
  -3  -1   7    0.30    0.49
  -3  -1   7    0.23    0.41
   2   1  -7   10.59    0.89
   2   1  -7    9.32    0.63
   2   1  -7   10.74    0.89
  -2  -1   7   11.11    0.84
  -2  -1   7   11.63    0.90
  -2  -1   7   11.69    0.94
   1   1  -7    1.96    0.37
   1   1  -7    1.92    0.43
   1   1  -7    1.67    0.47
  -1  -1   7    1.41    0.40
  -1  -1   7    2.91    0.41
  -1  -1   7    1.85    0.41
   0   1  -7   31.44    1.58
   0   1  -7   30.09    1.60
   0   1  -7   32.35    1.50
   0  -1   7   32.71    1.46
   0  -1   7   33.51    1.47
   0  -1   7   33.89    1.59
   0  -1   7   35.28    1.59
  -1   1  -7    2.04    0.42
  -1   1  -7    1.89    0.28
  -1   1  -7    2.58    0.45
   1  -1   7    2.23    0.36
   1  -1   7    1.86    0.36
   1  -1   7    2.54    0.40
   1  -1   7    2.75    0.42
  -2   1  -7    9.62    0.72
  -2   1  -7    8.61    0.66
  -2   1  -7   10.33    0.68
  -2   1  -7   10.67    0.78
   2  -1   7   11.54    0.72
   2  -1   7   10.79    0.73
   2  -1   7   10.88    0.72
   2  -1   7   10.39    0.57
  -3   1  -7    0.25    0.25
  -3   1  -7    0.23    0.27
  -3   1  -7    0.15    0.30
  -3   1  -7   -0.38    0.32
  -3   1  -7    0.47    0.20
   3  -1   7    0.27    0.13
   3  -1   7    0.96    0.26
   3  -1   7    0.33    0.27
   3  -1   7    0.60    0.23
  -4   1  -7    8.91    0.65
  -4   1  -7   10.40    0.80
   4  -1   7    9.72    0.60
   4  -1   7    9.20    0.78
   4  -1   7    9.23    0.76
   4  -1   7    8.93    0.57
   4  -1   7    9.11    0.57
  -5   1  -7    2.57    0.46
  -5   1  -7    2.65    0.45
  -5   1  -7    3.41    0.58
   5  -1   7    2.26    0.33
   5  -1   7    2.94    0.57
   5  -1   7    2.87    0.37
   5  -1   7    2.89    0.29
   5  -1   7    2.29    0.46
  -6   1  -7    0.36    0.30
  -6   1  -7    0.67    0.35
   6  -1   7    1.62    0.48
   6  -1   7    1.40    0.41
  -7   1  -7    1.34    0.37
  -7   1  -7    0.64    0.36
   7  -1   7    0.59    0.45
  -8   1  -7    1.06    0.55
  -8   1  -7    1.29    0.41
  -8   1  -7    1.32    0.42
  -9   1  -7    1.14    0.69
  -9   1  -7    0.87    0.51
   9  -1   7    0.73    0.46
 -10   1  -7    0.79    0.93
  10  -1   7    0.65    0.59
   6   0  -7   -0.82    0.47
  -6   0   7   -0.69    0.74
  -6   0   7    1.69    0.66
   5   0  -7    2.36    0.54
  -5   0   7    2.54    0.65
  -5   0   7    1.28    0.60
   4   0  -7    0.39    0.46
   4   0  -7    0.55    0.47
   4   0  -7    0.49    0.26
  -4   0   7    0.80    0.46
  -4   0   7    1.26    0.49
   3   0  -7    0.07    0.38
   3   0  -7    0.56    0.43
  -3   0   7    0.07    0.43
   2   0  -7    2.76    0.48
   2   0  -7    1.53    0.41
  -2   0   7    1.72    0.42
  -2   0   7    2.49    0.42
  -2   0   7    1.56    0.39
   1   0  -7  119.29    4.38
   1   0  -7  117.52    4.44
   1   0  -7  122.86    4.44
  -1   0   7  111.93    4.30
  -1   0   7  114.59    4.40
  -1   0   7  117.84    4.23
   0   0  -7   12.70    0.73
   0   0  -7   12.22    0.86
   0   0  -7   13.05    0.85
   0   0   7   12.00    0.70
   0   0   7   12.37    0.83
  -1   0  -7    4.48    0.50
  -1   0  -7    4.80    0.49
  -1   0  -7    4.47    0.43
  -1   0  -7    3.98    0.50
  -1   0  -7    4.87    0.52
   1   0   7    4.30    0.38
   1   0   7    4.09    0.47
   1   0   7    4.41    0.66
   1   0   7    3.46    0.50
  -2   0  -7   20.58    1.11
  -2   0  -7   19.81    1.06
  -2   0  -7   18.42    0.96
  -2   0  -7   17.79    1.01
  -2   0  -7   16.96    0.98
   2   0   7   20.18    1.00
   2   0   7   19.65    0.98
   2   0   7   18.53    0.83
   2   0   7   18.35    0.94
   2   0   7   18.03    1.02
  -3   0  -7   23.09    1.10
  -3   0  -7   24.40    1.20
  -3   0  -7   23.16    1.16
  -3   0  -7   23.38    1.27
   3   0   7   22.85    1.13
   3   0   7   21.39    1.12
   3   0   7   23.34    1.09
   3   0   7   22.55    0.86
   3   0   7   21.15    1.12
  -4   0  -7    4.77    0.45
  -4   0  -7    4.62    0.56
  -4   0  -7    4.57    0.53
  -4   0  -7    4.70    0.52
   4   0   7    4.89    0.43
   4   0   7    4.71    0.55
   4   0   7    5.10    0.58
   4   0   7    4.24    0.43
  -5   0  -7    0.28    0.27
  -5   0  -7   -0.24    0.25
  -5   0  -7   -0.23    0.29
   5   0   7   -0.20    0.30
   5   0   7    0.13    0.27
   5   0   7    0.04    0.20
   5   0   7    0.01    0.20
   5   0   7    0.01    0.32
  -6   0  -7    6.52    0.61
  -6   0  -7    6.68    0.60
   6   0   7    5.93    0.62
  -7   0  -7    0.91    0.49
  -7   0  -7    0.40    0.30
  -7   0  -7    0.57    0.35
  -8   0  -7    0.31    0.32
  -8   0  -7    0.34    0.39
  -8   0  -7   -0.32    0.53
  -9   0  -7    0.83    0.71
  -9   0  -7    0.28    0.50
   9   0   7   -0.31    0.44
 -10   0  -7   -0.93    0.93
  10   0   7   -0.20    0.64
  -7   1   7    1.10    0.84
  -7   1   7   -1.34    0.83
   6  -1  -7    0.38    0.94
   6  -1  -7   -0.39    0.43
  -6   1   7   -0.67    0.70
  -6   1   7    1.21    0.69
   5  -1  -7    1.26    0.47
  -5   1   7    0.87    0.50
  -5   1   7    0.16    0.47
   4  -1  -7    1.87    0.52
   4  -1  -7    2.38    0.39
   4  -1  -7    2.29    0.50
  -4   1   7    2.38    0.49
   3  -1  -7   11.91    0.90
   3  -1  -7   10.57    0.88
  -3   1   7   11.51    0.93
  -3   1   7   11.68    0.68
  -3   1   7   11.75    0.92
   2  -1  -7   18.20    1.12
   2  -1  -7   19.90    1.15
  -2   1   7   18.51    1.12
  -2   1   7   19.34    0.92
   1  -1  -7   16.92    1.01
   1  -1  -7   20.00    1.13
   1  -1  -7   19.89    1.12
   1  -1  -7   18.34    1.01
  -1   1   7   20.06    1.07
  -1   1   7   20.00    0.91
  -1   1   7   19.17    1.07
   0  -1  -7   43.85    1.87
   0  -1  -7   41.33    1.86
   0  -1  -7   43.25    1.96
   0  -1  -7   44.71    1.95
   0  -1  -7   45.91    1.88
   0   1   7   43.79    1.89
   0   1   7   46.00    1.93
   0   1   7   47.88    1.76
   0   1   7   42.81    1.93
  -1  -1  -7   24.01    1.20
  -1  -1  -7   22.55    1.16
  -1  -1  -7   22.25    1.09
  -1  -1  -7   22.48    1.13
  -1  -1  -7   22.53    1.04
   1   1   7   21.41    1.15
   1   1   7   22.67    1.03
   1   1   7   22.18    1.10
   1   1   7   21.03    1.10
  -2  -1  -7   19.31    1.04
  -2  -1  -7   21.78    1.09
  -2  -1  -7   20.04    0.98
  -2  -1  -7   20.40    1.08
   2   1   7   20.63    1.04
   2   1   7   20.50    1.07
   2   1   7   21.57    1.00
   2   1   7   20.01    1.03
  -3  -1  -7    1.41    0.30
  -3  -1  -7    1.26    0.29
  -3  -1  -7    1.11    0.30
  -3  -1  -7    0.89    0.20
  -3  -1  -7    1.11    0.28
   3   1   7    0.96    0.26
   3   1   7    1.02    0.25
   3   1   7    0.84    0.12
   3   1   7    0.79    0.25
   3   1   7    0.97    0.13
  -4  -1  -7    3.36    0.45
  -4  -1  -7    3.25    0.42
  -4  -1  -7    3.60    0.42
  -4  -1  -7    4.02    0.40
   4   1   7    2.47    0.38
   4   1   7    3.12    0.44
   4   1   7    3.61    0.45
   4   1   7    2.54    0.37
  -5  -1  -7    6.54    0.55
  -5  -1  -7    5.94    0.54
  -5  -1  -7    5.96    0.57
   5   1   7    5.75    0.47
   5   1   7    6.31    0.49
  -6  -1  -7    1.83    0.31
  -6  -1  -7    2.33    0.39
   6   1   7    1.65    0.34
  -7  -1  -7    0.24    0.27
  -7  -1  -7   -0.15    0.42
  -7  -1  -7   -0.36    0.32
  -8  -1  -7   -0.03    0.28
  -8  -1  -7    0.98    0.54
  -8  -1  -7    0.55    0.40
  -9  -1  -7    1.64    0.55
  -9  -1  -7    2.77    0.71
   9   1   7    1.61    0.46
 -10  -1  -7    0.69    0.65
 -10  -1  -7    1.95    0.88
  10   1   7    0.22    0.60
   7  -2  -7    1.06    0.60
  -7   2   7    0.91    0.81
  -7   2   7   -0.98    0.76
   6  -2  -7   -0.35    0.41
  -6   2   7    1.26    0.62
  -6   2   7    0.25    0.62
   5  -2  -7    0.97    0.43
  -5   2   7    0.11    0.51
  -5   2   7   -0.14    0.54
   4  -2  -7    9.60    0.64
   4  -2  -7   10.51    0.80
  -4   2   7    9.50    0.90
   3  -2  -7   12.31    0.97
   3  -2  -7   11.90    0.84
  -3   2   7   10.94    0.61
  -3   2   7   11.01    0.85
   2  -2  -7    2.33    0.41
   2  -2  -7    1.82    0.39
   2  -2  -7    2.52    0.48
  -2   2   7    2.50    0.43
  -2   2   7    2.45    0.42
  -2   2   7    3.25    0.36
   1  -2  -7    5.64    0.61
   1  -2  -7    6.66    0.59
   1  -2  -7    6.17    0.56
   1  -2  -7    5.94    0.55
   1  -2  -7    5.97    0.54
  -1   2   7    5.59    0.97
  -1   2   7    5.68    0.55
  -1   2   7    6.23    0.53
   0  -2  -7    1.18    0.27
   0  -2  -7    1.32    0.29
   0  -2  -7    1.47    0.27
   0  -2  -7    1.36    0.31
   0  -2  -7    1.44    0.26
   0   2   7    0.72    0.29
   0   2   7    1.45    0.32
   0   2   7    1.24    0.23
  -1  -2  -7   -0.16    0.20
  -1  -2  -7    0.27    0.16
  -1  -2  -7    0.45    0.23
  -1  -2  -7    0.39    0.23
  -1  -2  -7   -0.26    0.23
  -1  -2  -7   -0.02    0.22
   1   2   7    0.08    0.25
   1   2   7    0.03    0.16
   1   2   7    0.25    0.20
   1   2   7    0.17    0.27
  -2  -2  -7    4.15    0.45
  -2  -2  -7    4.60    0.43
  -2  -2  -7    4.05    0.42
  -2  -2  -7    4.25    0.48
  -2  -2  -7    3.52    0.34
   2   2   7    4.26    0.41
   2   2   7    3.28    0.41
   2   2   7    3.10    0.48
   2   2   7    3.81    0.43
   2   2   7    4.17    0.36
  -3  -2  -7   23.72    1.13
  -3  -2  -7   26.29    1.26
  -3  -2  -7   26.56    1.26
  -3  -2  -7   26.47    1.22
   3   2   7   24.06    1.20
   3   2   7   25.94    1.00
   3   2   7   25.11    1.24
   3   2   7   25.87    1.18
   3   2   7   28.21    1.25
  -4  -2  -7   23.20    1.15
  -4  -2  -7   23.89    1.18
  -4  -2  -7   23.76    1.13
  -4  -2  -7   21.67    1.11
   4   2   7   23.81    1.12
  -5  -2  -7    0.45    0.29
  -5  -2  -7   -0.12    0.23
  -5  -2  -7   -0.10    0.32
   5   2   7    0.23    0.25
   5   2   7    0.10    0.23
  -6  -2  -7   13.26    0.96
  -6  -2  -7   12.67    0.75
  -6  -2  -7   12.99    0.88
  -6  -2  -7   13.50    0.87
   6   2   7   12.64    0.69
   6   2   7   12.79    0.68
   6   2   7   12.42    0.73
  -7  -2  -7    0.08    0.48
  -7  -2  -7    0.82    0.36
  -7  -2  -7    0.68    0.25
   7   2   7    0.79    0.30
  -8  -2  -7    0.05    0.41
  -8  -2  -7   -0.13    0.50
  -9  -2  -7    0.38    0.67
  -9  -2  -7    0.00    0.52
   9   2   7    0.10    0.41
 -10  -2  -7    0.52    0.64
 -10  -2  -7    0.66    0.88
  10   2   7    0.55    0.54
   7  -3  -7    0.31    0.64
  -7   3   7    0.05    0.74
  -7   3   7   -0.03    1.25
  -6   3   7    6.73    1.02
  -6   3   7    6.57    0.96
   5  -3  -7    4.77    0.59
   5  -3  -7    6.12    0.57
  -5   3   7    5.91    0.84
   4  -3  -7    0.36    0.38
   4  -3  -7   -0.37    0.32
   4  -3  -7   -0.35    0.26
  -4   3   7   -0.54    0.35
   3  -3  -7    6.25    0.60
   3  -3  -7    6.58    0.63
   3  -3  -7    5.23    0.69
  -3   3   7    5.97    0.62
  -3   3   7    5.98    0.71
   2  -3  -7    1.86    0.53
   2  -3  -7    1.20    0.28
   2  -3  -7    1.74    0.34
   2  -3  -7    1.42    0.32
   2  -3  -7    1.81    0.42
  -2   3   7    1.15    0.29
  -2   3   7    1.63    0.36
   1  -3  -7    4.77    0.55
   1  -3  -7    4.45    0.53
   1  -3  -7    3.97    0.48
   1  -3  -7    3.96    0.53
  -1   3   7    4.86    0.53
  -1   3   7    5.62    0.58
   0  -3  -7    4.95    0.57
   0  -3  -7    3.99    0.45
   0  -3  -7    3.44    0.43
   0  -3  -7    4.54    0.42
   0  -3  -7    4.45    0.44
   0   3   7    4.87    0.49
   0   3   7    3.63    0.53
   0   3   7    4.21    0.47
  -1  -3  -7    6.63    0.50
  -1  -3  -7    6.15    0.47
  -1  -3  -7    6.72    0.61
  -1  -3  -7    5.27    0.50
  -1  -3  -7    5.78    0.50
  -1  -3  -7    6.40    0.56
   1   3   7    7.01    0.56
   1   3   7    5.91    0.51
   1   3   7    6.52    0.53
   1   3   7    6.59    0.49
  -2  -3  -7    0.39    0.24
  -2  -3  -7    0.62    0.22
  -2  -3  -7    0.52    0.26
  -2  -3  -7    0.63    0.20
  -2  -3  -7    0.54    0.18
   2   3   7    0.06    0.27
   2   3   7    0.48    0.22
   2   3   7    0.63    0.26
   2   3   7    0.41    0.20
  -3  -3  -7   32.16    1.45
  -3  -3  -7   32.44    1.37
  -3  -3  -7   32.90    1.49
  -3  -3  -7   32.74    1.47
   3   3   7   32.81    1.47
   3   3   7   32.67    1.46
   3   3   7   31.97    1.45
  -4  -3  -7    0.02    0.31
  -4  -3  -7    0.20    0.26
  -4  -3  -7    0.59    0.28
  -4  -3  -7    0.21    0.24
   4   3   7    0.63    0.24
   4   3   7    0.20    0.14
   4   3   7   -0.05    0.24
   4   3   7    0.22    0.24
  -5  -3  -7    7.89    0.58
  -5  -3  -7    8.80    0.67
  -5  -3  -7    5.98    0.87
   5   3   7    7.28    0.58
   5   3   7    6.36    0.58
   5   3   7    7.98    0.40
   5   3   7    6.60    0.80
  -6  -3  -7    6.06    0.73
  -6  -3  -7    6.82    0.66
   6   3   7    7.15    0.56
   6   3   7    6.38    0.57
   6   3   7    5.34    0.53
  -7  -3  -7    7.15    0.73
  -7  -3  -7    7.30    0.86
   7   3   7    6.88    0.55
   7   3   7    6.57    0.55
  -8  -3  -7    0.25    0.55
  -9  -3  -7    0.81    0.72
   9   3   7   -0.65    0.46
 -10  -3  -7    1.25    0.93
 -10  -3  -7    0.33    0.71
  10   3   7    1.36    0.57
   7  -4  -7   -0.12    0.69
  -7   4   7    0.01    0.75
   6  -4  -7    2.11    0.48
  -6   4   7    2.55    0.90
  -6   4   7    1.26    0.63
   5  -4  -7    1.49    0.35
   5  -4  -7    1.23    0.47
  -5   4   7    0.67    0.45
  -5   4   7    0.73    0.49
   4  -4  -7    0.15    0.31
   4  -4  -7    0.03    0.29
  -4   4   7   -0.10    0.33
  -4   4   7    0.29    0.46
   3  -4  -7    3.65    0.49
   3  -4  -7    4.90    0.53
   3  -4  -7    4.61    0.56
   3  -4  -7    3.27    0.44
  -3   4   7    4.63    0.59
  -3   4   7    4.28    0.52
   2  -4  -7    8.50    0.64
   2  -4  -7   10.01    0.69
  -2   4   7    9.51    0.73
  -2   4   7    9.17    0.64
   1  -4  -7    9.81    0.60
   1  -4  -7    7.70    0.57
   1  -4  -7    9.21    0.83
   1  -4  -7    8.72    0.65
  -1   4   7    9.57    0.94
  -1   4   7    9.65    0.70
  -1   4   7    9.14    0.69
   0  -4  -7    0.25    0.21
   0  -4  -7    0.15    0.25
   0  -4  -7   -0.25    0.22
   0   4   7   -0.08    0.28
   0   4   7    0.06    0.22
   0   4   7   -0.06    0.25
   0   4   7    0.01    0.30
  -1  -4  -7    1.65    0.20
  -1  -4  -7    1.17    0.22
  -1  -4  -7    1.57    0.32
  -1  -4  -7    0.96    0.27
  -1  -4  -7    1.51    0.25
  -1  -4  -7    1.16    0.30
   1   4   7    2.35    0.35
   1   4   7    1.32    0.31
   1   4   7    1.63    0.30
   1   4   7    1.35    0.29
  -2  -4  -7    1.24    0.24
  -2  -4  -7    1.17    0.27
  -2  -4  -7    1.06    0.20
  -2  -4  -7    0.93    0.26
  -2  -4  -7    1.45    0.32
   2   4   7    1.05    0.25
   2   4   7    1.25    0.30
   2   4   7    0.79    0.22
   2   4   7    1.04    0.29
  -3  -4  -7    3.47    0.36
  -3  -4  -7    2.72    0.39
  -3  -4  -7    3.69    0.43
  -3  -4  -7    4.15    0.44
   3   4   7    3.51    0.45
   3   4   7    2.60    0.35
   3   4   7    3.04    0.45
  -4  -4  -7    6.02    0.57
  -4  -4  -7    6.02    0.55
  -4  -4  -7    6.94    0.43
   4   4   7    6.27    0.60
   4   4   7    5.59    0.52
   4   4   7    6.35    0.62
   4   4   7    7.01    0.47
  -5  -4  -7    0.44    0.19
  -5  -4  -7    0.76    0.31
  -5  -4  -7    0.35    0.34
   5   4   7    0.31    0.22
   5   4   7    0.25    0.30
   5   4   7    0.43    0.34
   5   4   7    0.62    0.26
  -6  -4  -7    2.55    0.47
  -6  -4  -7    3.54    0.59
  -6  -4  -7    3.56    0.60
   6   4   7    2.84    0.43
   6   4   7    3.87    0.53
   6   4   7    3.16    0.56
   6   4   7    3.48    0.47
  -7  -4  -7    0.63    0.37
  -7  -4  -7    1.03    0.50
   7   4   7    0.14    0.40
   7   4   7    0.47    0.26
   7   4   7    0.26    0.31
  -8  -4  -7    0.35    0.55
  -8  -4  -7    0.20    0.49
   8   4   7    0.51    0.35
   8   4   7    0.46    0.42
  -9  -4  -7    0.34    0.61
  -9  -4  -7    0.04    0.63
   9   4   7    0.40    0.53
 -10  -4  -7    0.49    0.72
 -10  -4  -7    1.22    0.97
  10   4   7    2.19    0.62
   7  -5  -7   -0.47    0.65
  -7   5   7    1.05    0.82
  -7   5   7    0.29    0.97
   6  -5  -7    1.28    0.50
  -6   5   7    1.86    0.59
  -6   5   7    3.09    0.67
   5  -5  -7    3.96    0.62
  -5   5   7    5.30    0.85
  -5   5   7    3.10    0.54
  -5   5   7    1.63    0.66
   4  -5  -7    1.10    0.29
   4  -5  -7    1.10    0.37
  -4   5   7    1.00    0.47
  -4   5   7    1.51    0.35
  -4   5   7    0.97    0.54
   3  -5  -7    2.78    0.45
   3  -5  -7    2.92    0.45
   3  -5  -7    3.02    0.47
  -3   5   7    3.89    0.67
  -3   5   7    3.40    0.56
  -3   5   7    3.40    0.48
   2  -5  -7   -0.02    0.24
   2  -5  -7   -0.43    0.28
   2  -5  -7   -0.09    0.23
  -2   5   7    0.24    0.29
  -2   5   7    0.46    0.34
   1  -5  -7   12.16    0.77
   1  -5  -7   11.16    0.65
   1  -5  -7   11.02    0.77
   1  -5  -7   11.37    0.77
  -1   5   7   11.80    0.82
  -1   5   7   14.05    0.89
   0  -5  -7    6.17    0.59
   0  -5  -7    6.33    0.46
   0  -5  -7    5.53    0.47
   0   5   7    6.15    0.57
   0   5   7    6.49    0.59
   0   5   7    5.95    0.63
  -1  -5  -7   10.81    0.72
  -1  -5  -7   11.35    0.72
  -1  -5  -7   11.78    0.78
  -1  -5  -7   11.17    0.51
  -1  -5  -7    9.79    0.61
   1   5   7   10.10    0.72
   1   5   7   11.32    0.76
   1   5   7   10.52    0.74
   1   5   7   10.73    0.71
  -2  -5  -7    1.69    0.24
  -2  -5  -7    1.65    0.35
  -2  -5  -7    2.10    0.35
  -2  -5  -7    2.02    0.40
   2   5   7    1.98    0.34
   2   5   7    0.69    0.45
   2   5   7    1.30    0.34
   2   5   7    1.58    0.37
  -3  -5  -7    0.71    0.23
  -3  -5  -7    0.36    0.27
  -3  -5  -7    0.46    0.26
   3   5   7    0.16    0.52
   3   5   7    0.45    0.28
   3   5   7    0.41    0.23
   3   5   7    0.57    0.27
  -4  -5  -7    1.23    0.34
  -4  -5  -7    0.60    0.33
  -4  -5  -7    1.04    0.31
   4   5   7    0.40    0.31
   4   5   7    1.01    0.28
   4   5   7    0.63    0.25
  -5  -5  -7    3.57    0.58
  -5  -5  -7    2.47    0.47
   5   5   7    2.80    0.43
   5   5   7    3.05    0.46
   5   5   7    1.82    0.41
  -6  -5  -7   11.16    0.94
  -6  -5  -7   12.74    1.09
   6   5   7   12.04    0.82
   6   5   7   10.22    0.73
   6   5   7   11.90    0.74
  -7  -5  -7    1.81    0.56
  -7  -5  -7    0.40    0.45
   7   5   7    1.66    0.37
   7   5   7    0.94    0.41
  -8  -5  -7    0.69    0.53
  -8  -5  -7    0.47    0.65
   8   5   7    0.62    0.39
   8   5   7    0.37    0.46
  -9  -5  -7    1.12    0.71
  -9  -5  -7    1.34    0.70
   9   5   7    0.31    0.64
   6  -6  -7    4.32    0.70
   6  -6  -7    4.20    0.69
  -6   6   7    6.17    0.96
  -6   6   7    4.30    0.75
   5  -6  -7   -0.08    0.44
  -5   6   7    0.88    0.67
  -5   6   7   -0.51    0.51
  -5   6   7    0.16    0.38
   4  -6  -7    2.60    0.51
   4  -6  -7    2.53    0.44
  -4   6   7    2.99    0.40
  -4   6   7    2.80    0.60
  -4   6   7    3.19    0.71
   3  -6  -7   -0.27    0.25
   3  -6  -7   -0.38    0.32
   3  -6  -7    0.45    0.26
  -3   6   7   -0.04    0.38
  -3   6   7    0.66    0.53
   2  -6  -7    8.02    0.56
   2  -6  -7   10.17    0.67
   2  -6  -7    9.92    0.72
   2  -6  -7    8.88    0.78
  -2   6   7    9.78    0.84
  -2   6   7    8.72    0.75
   1  -6  -7    8.04    0.61
   1  -6  -7    7.92    0.58
   1  -6  -7    7.43    0.49
  -1   6   7    8.46    0.69
  -1   6   7    7.14    0.70
   0  -6  -7    1.97    0.30
   0  -6  -7    0.82    0.36
   0  -6  -7    1.80    0.39
   0   6   7    1.87    0.35
   0   6   7    1.28    0.35
  -1  -6  -7    0.63    0.20
  -1  -6  -7    0.31    0.26
  -1  -6  -7    0.33    0.14
  -1  -6  -7    0.91    0.24
   1   6   7    1.10    0.32
   1   6   7    0.06    0.31
  -2  -6  -7   17.60    0.98
  -2  -6  -7   19.74    0.90
  -2  -6  -7   21.36    1.11
  -2  -6  -7   18.62    1.02
   2   6   7   18.57    1.09
   2   6   7   20.00    1.04
   2   6   7   20.24    1.12
  -3  -6  -7   39.74    1.87
  -3  -6  -7   41.21    1.71
  -3  -6  -7   44.49    1.82
   3   6   7   39.93    1.79
   3   6   7   44.79    1.81
   3   6   7   44.14    1.95
  -4  -6  -7    5.64    0.61
  -4  -6  -7    5.12    0.57
  -4  -6  -7    5.97    0.66
   4   6   7    5.06    0.62
   4   6   7    4.13    0.52
   4   6   7    4.82    0.53
  -5  -6  -7   -0.08    0.35
  -5  -6  -7   -0.55    0.39
   5   6   7   -0.18    0.33
   5   6   7    0.25    0.32
   5   6   7    0.78    0.45
  -6  -6  -7    0.94    0.46
   6   6   7    0.48    0.36
   6   6   7    0.86    0.44
  -7  -6  -7    0.11    0.54
   7   6   7    1.63    0.50
   7   6   7    1.20    0.44
  -8  -6  -7    0.95    0.61
  -8  -6  -7    0.84    0.57
   8   6   7   -0.38    0.43
   8   6   7   -0.57    0.51
  -9  -6  -7    0.55    0.77
  -9  -6  -7    0.36    0.68
   9   6   7    1.30    0.59
   6  -7  -7    0.21    0.61
   6  -7  -7    0.06    0.53
  -6   7   7   -0.21    0.81
  -6   7   7    0.13    0.71
   5  -7  -7    2.03    0.68
   5  -7  -7    1.31    0.46
  -5   7   7    1.02    0.70
  -5   7   7    2.51    0.63
   4  -7  -7    6.03    0.80
  -4   7   7    5.60    0.88
  -4   7   7    6.77    0.85
   3  -7  -7    2.09    0.49
   3  -7  -7    2.49    0.35
  -3   7   7    2.42    0.54
  -3   7   7    3.04    0.61
   2  -7  -7    2.20    0.48
   2  -7  -7    1.93    0.32
   2  -7  -7    1.79    0.34
   2  -7  -7    2.21    0.29
  -2   7   7    3.17    0.51
  -2   7   7    2.43    0.53
   1  -7  -7   13.76    0.84
   1  -7  -7   14.33    0.68
   1  -7  -7   16.13    0.87
   1  -7  -7   14.11    0.99
  -1   7   7   14.21    0.93
  -1   7   7   11.35    0.94
   0  -7  -7    1.36    0.34
   0  -7  -7    1.09    0.13
   0   7   7    1.28    0.37
   0   7   7    1.20    0.40
  -1  -7  -7    0.48    0.22
  -1  -7  -7    0.80    0.30
  -1  -7  -7    0.03    0.17
   1   7   7    0.02    0.31
   1   7   7    0.22    0.33
  -2  -7  -7   56.50    2.20
  -2  -7  -7   54.58    2.32
  -2  -7  -7   52.38    2.35
   2   7   7   57.58    2.35
   2   7   7   60.92    2.47
  -3  -7  -7   -0.13    0.34
  -3  -7  -7   -0.03    0.26
  -3  -7  -7    0.29    0.37
   3   7   7   -0.38    0.31
   3   7   7   -0.34    0.34
  -4  -7  -7   17.44    1.05
  -4  -7  -7   16.66    1.01
  -4  -7  -7   17.82    1.18
   4   7   7   18.46    1.21
   4   7   7   19.33    1.06
   4   7   7   16.28    1.00
  -5  -7  -7    5.49    0.78
  -5  -7  -7    5.29    0.76
   5   7   7    4.80    0.74
   5   7   7    5.01    0.60
   5   7   7    4.48    0.64
  -6  -7  -7    2.79    0.63
  -6  -7  -7    2.04    0.53
   6   7   7    3.19    0.91
   6   7   7    2.93    0.52
  -7  -7  -7    1.06    0.51
   7   7   7    0.54    0.56
   7   7   7    0.39    0.42
   7   7   7   -0.01    0.49
  -8  -7  -7    1.48    0.70
   8   7   7   -0.08    0.65
   8   7   7    0.15    0.69
   8   7   7    0.73    0.52
  -9  -7  -7   -0.02    0.82
  -9  -7  -7   -0.15    0.82
   9   7   7   -0.68    0.58
   6  -8  -7    0.63    0.67
  -6   8   7    0.69    0.87
  -6   8   7    1.33    0.79
   5  -8  -7    0.97    0.57
   5  -8  -7    2.42    0.53
  -5   8   7    3.78    0.84
  -5   8   7    1.93    0.67
   4  -8  -7    0.69    0.53
  -4   8   7    1.35    0.59
  -4   8   7    0.91    0.62
   3  -8  -7    1.28    0.31
   3  -8  -7    0.76    0.48
  -3   8   7    1.82    0.48
  -3   8   7    1.82    0.59
   2  -8  -7    8.40    0.62
  -2   8   7    7.29    0.87
  -2   8   7    8.38    0.87
   1  -8  -7    6.71    0.77
   1  -8  -7    6.37    0.63
   1  -8  -7    4.94    0.59
  -1   8   7    6.12    0.76
  -1   8   7    6.03    0.78
   0  -8  -7   22.65    1.32
   0  -8  -7   20.81    0.87
   0  -8  -7   21.10    0.86
   0  -8  -7   20.02    0.86
   0  -8  -7   21.96    1.17
   0   8   7   20.86    1.27
   0   8   7   23.95    1.34
  -1  -8  -7    0.39    0.34
   1   8   7    0.67    0.44
   1   8   7    0.26    0.38
  -2  -8  -7    5.54    0.65
  -2  -8  -7    4.72    0.49
   2   8   7    4.65    0.72
   2   8   7    5.10    0.71
  -3  -8  -7   19.64    1.05
  -3  -8  -7   20.83    1.24
   3   8   7   19.54    1.21
  -4  -8  -7    1.24    0.48
  -4  -8  -7    0.30    0.33
   4   8   7    0.45    0.45
   4   8   7    0.82    0.42
  -5  -8  -7   -0.01    0.45
  -5  -8  -7    0.24    0.44
   5   8   7    0.51    0.45
   5   8   7    0.29    0.49
   5   8   7    0.15    0.46
  -6  -8  -7    2.92    0.61
  -6  -8  -7    1.70    0.60
   6   8   7    2.52    0.59
   6   8   7    1.88    0.58
  -7  -8  -7    0.68    0.62
  -7  -8  -7    0.50    0.59
   7   8   7    2.16    0.68
   7   8   7    0.76    0.52
   7   8   7    1.35    0.59
  -8  -8  -7   -0.14    0.78
  -8  -8  -7    1.23    0.78
   8   8   7    1.17    0.74
   8   8   7    1.75    0.74
   8   8   7    2.22    0.70
   5  -9  -7    5.35    0.79
   5  -9  -7    3.39    0.69
  -5   9   7    5.10    0.84
  -5   9   7    5.14    0.98
   4  -9  -7    4.76    0.71
   4  -9  -7    4.09    0.64
  -4   9   7    4.02    0.77
  -4   9   7    4.33    0.75
   3  -9  -7   -0.78    0.47
  -3   9   7    0.13    0.54
  -3   9   7    0.72    0.55
   2  -9  -7    0.16    0.47
   2  -9  -7   -0.48    0.32
  -2   9   7   -0.33    0.52
   1  -9  -7    3.69    0.53
   1  -9  -7    3.37    0.60
  -1   9   7    2.56    0.72
  -1   9   7    4.26    0.71
   0  -9  -7    8.70    0.76
   0  -9  -7    9.26    0.57
   0  -9  -7    8.92    0.96
   0   9   7    9.38    0.87
   0   9   7    9.48    0.99
  -1  -9  -7    4.54    0.69
  -1  -9  -7    3.31    0.39
  -1  -9  -7    3.99    0.69
   1   9   7    5.67    0.74
  -2  -9  -7    2.48    0.56
  -2  -9  -7    2.03    0.32
  -2  -9  -7    2.37    0.53
   2   9   7    2.77    0.56
   2   9   7    2.66    0.55
  -3  -9  -7    0.34    0.31
  -3  -9  -7    1.34    0.46
  -3  -9  -7    0.51    0.45
   3   9   7    0.71    0.47
   3   9   7    1.11    0.53
  -4  -9  -7    3.45    0.53
  -4  -9  -7    4.06    0.67
   4   9   7    2.74    0.60
  -5  -9  -7    2.33    0.58
  -5  -9  -7    3.48    0.65
   5   9   7    3.35    0.65
   5   9   7    2.08    0.69
  -6  -9  -7    2.51    0.62
  -6  -9  -7    2.04    0.69
   6   9   7    2.38    0.68
   6   9   7    3.26    0.69
  -7  -9  -7    3.26    0.81
  -7  -9  -7    1.25    0.63
   7   9   7    3.96    0.80
   7   9   7    2.49    0.59
   7   9   7    2.25    0.71
   5 -10  -7    2.62    0.82
  -5  10   7    2.99    1.13
  -5  10   7    4.19    1.42
   4 -10  -7   -0.65    0.64
   4 -10  -7    0.67    0.55
  -4  10   7    1.27    0.76
  -4  10   7   -0.99    0.64
   3 -10  -7    3.29    0.56
   3 -10  -7    2.73    0.70
  -3  10   7    2.77    0.66
  -3  10   7    2.95    0.72
   2 -10  -7    0.46    0.54
   2 -10  -7    0.10    0.36
  -2  10   7    0.60    0.64
  -2  10   7    0.20    0.57
   1 -10  -7    2.18    0.56
   1 -10  -7    0.67    0.39
  -1  10   7    0.94    0.60
  -1  10   7   -0.12    0.56
   0 -10  -7    1.37    0.30
   0 -10  -7    0.87    0.47
   0 -10  -7    1.85    0.44
   0  10   7    1.67    0.59
   0  10   7    0.26    0.51
  -1 -10  -7    0.24    0.49
  -1 -10  -7   -0.17    0.39
  -1 -10  -7    0.22    0.25
   1  10   7    1.05    0.56
   1  10   7    1.56    0.55
  -2 -10  -7    0.86    0.52
  -2 -10  -7    0.97    0.29
  -2 -10  -7    0.28    0.45
   2  10   7    0.76    0.51
   2  10   7    0.58    0.56
  -3 -10  -7    2.89    0.59
  -3 -10  -7    3.36    0.69
  -3 -10  -7    3.55    0.56
   3  10   7    2.70    0.63
   3  10   7    5.17    0.84
  -4 -10  -7    0.27    0.58
  -4 -10  -7    0.83    0.56
  -4 -10  -7    0.38    0.44
   4  10   7   -0.07    0.58
   4  10   7    0.61    0.60
  -5 -10  -7    1.02    0.62
  -5 -10  -7   -0.68    0.53
  -5 -10  -7   -0.78    0.59
   5  10   7   -0.25    0.64
   5  10   7    0.10    0.63
  -6 -10  -7    0.14    0.69
  -6 -10  -7    1.11    0.64
  -6 -10  -7    0.92    0.64
   6  10   7    0.66    0.76
  -7 -10  -7    1.69    0.82
  -7 -10  -7    0.13    1.13
   7  10   7    2.13    1.02
   7  10   7    1.28    0.72
   4 -11  -7    0.59    0.75
   4 -11  -7    0.24    0.58
  -4  11   7   -0.82    0.86
  -4  11   7   -0.61    0.94
   3 -11  -7   -1.03    0.70
   3 -11  -7    1.01    0.49
  -3  11   7    0.37    0.81
  -3  11   7    1.13    0.87
   2 -11  -7   -0.24    0.38
   2 -11  -7   -0.25    0.63
  -2  11   7    0.14    0.67
  -2  11   7   -0.92    0.71
   1 -11  -7    0.90    0.58
   1 -11  -7    0.47    0.45
   1 -11  -7    0.07    0.34
  -1  11   7   -0.53    0.65
  -1  11   7    0.77    0.61
   0 -11  -7   -0.56    0.47
   0 -11  -7   -0.20    0.55
   0  11   7   -0.40    0.59
   0  11   7    0.58    0.65
  -1 -11  -7    2.70    0.55
  -1 -11  -7    2.17    0.61
   1  11   7    1.54    0.62
   1  11   7    1.35    0.65
  -2 -11  -7    1.47    0.56
  -2 -11  -7    0.79    0.57
   2  11   7   -0.11    0.96
   2  11   7    2.14    0.63
  -3 -11  -7    1.10    0.60
  -3 -11  -7    1.58    0.68
  -3 -11  -7    0.30    0.46
   3  11   7   -0.02    0.60
   3  11   7    1.15    0.70
  -4 -11  -7    1.56    0.57
  -4 -11  -7   -0.82    0.67
  -4 -11  -7    0.43    0.70
   4  11   7    0.19    0.72
   4  11   7    0.42    0.69
  -5 -11  -7    1.81    0.81
  -5 -11  -7    1.88    0.70
  -5 -11  -7    3.16    0.82
   5  11   7    2.27    0.75
   5  11   7    2.77    0.84
   5  11   7    2.55    0.79
  -6 -11  -7    0.81    1.05
  -6 -11  -7    2.53    0.78
  -6 -11  -7    2.11    0.77
   6  11   7    1.56    0.88
   3 -12  -7    3.32    1.07
   3 -12  -7    2.17    0.72
  -3  12   7    3.84    0.90
   2 -12  -7    0.76    0.74
  -2  12   7    1.41    0.83
  -2  12   7    1.75    0.86
   1 -12  -7    2.29    0.78
  -1  12   7    0.22    0.83
  -1  12   7    1.63    0.75
   0 -12  -7    0.50    0.72
   0 -12  -7    2.18    0.67
   0  12   7    1.94    0.80
   0  12   7    2.69    0.78
  -1 -12  -7    0.16    0.61
  -1 -12  -7    1.49    0.73
   1  12   7    0.36    0.71
   1  12   7   -0.17    0.77
  -2 -12  -7    0.22    0.95
  -2 -12  -7    0.49    0.64
   2  12   7    0.45    0.80
   2  12   7    0.05    0.80
  -3 -12  -7    1.89    0.73
  -3 -12  -7    1.15    0.75
   3  12   7    0.16    0.80
   3  12   7    0.94    0.73
  -4 -12  -7    3.06    1.26
   4  12   7    2.98    0.93
   4  12   7    2.89    0.94
   4  12   7    1.64    0.77
   0 -13  -7    0.53    1.01
   0  13   7   -0.01    0.96
   0  13   7    0.89    1.07
  -1 -13  -7    2.49    0.95
  -1 -13  -7    1.61    0.77
   1  13   7    1.74    1.08
   1  13   7    3.15    1.07
  -2 -13  -7    2.97    0.97
   2  13   7    1.84    1.14
   2  13   7    0.70    1.13
  -1   7  -8    1.18    0.98
  -1   7  -8    0.49    0.91
   1  -7   8    0.14    0.87
   1  -7   8   -1.33    0.76
  -2   7  -8    3.23    0.89
  -2   7  -8    3.68    0.95
   2  -7   8    3.33    0.84
  -3   7  -8   -0.15    0.77
  -3   7  -8   -0.13    0.89
   3  -7   8    0.02    0.82
  -4   7  -8    1.03    0.94
  -4   7  -8   -0.43    0.77
   4  -7   8    1.02    0.87
  -5   7  -8   -0.72    0.79
  -5   7  -8    0.58    0.96
   5  -7   8   -1.36    1.63
   1   6  -8   -0.22    0.80
   1   6  -8   -1.26    0.79
  -1  -6   8   -1.14    0.80
  -1  -6   8    0.71    0.83
  -1  -6   8    0.03    0.64
   0   6  -8    0.38    0.73
   0   6  -8   -0.29    0.75
   0  -6   8   -0.39    0.92
   0  -6   8    0.32    0.76
  -1   6  -8    1.35    0.74
  -1   6  -8    2.98    0.72
   1  -6   8    2.98    0.74
   1  -6   8    3.23    0.79
  -2   6  -8   -0.65    0.69
  -2   6  -8    0.35    0.69
   2  -6   8    0.53    0.62
   2  -6   8   -0.50    0.58
  -3   6  -8    0.74    0.68
  -3   6  -8   -0.22    0.70
   3  -6   8    1.83    0.68
  -4   6  -8   -0.69    0.56
  -4   6  -8   -0.10    0.76
   4  -6   8    0.15    0.68
  -5   6  -8   -0.02    0.65
  -5   6  -8    0.55    0.81
   5  -6   8    0.40    0.80
  -6   6  -8    0.84    0.82
  -6   6  -8   -0.65    0.69
   6  -6   8    0.76    0.83
   3   5  -8    1.69    0.89
   2   5  -8    2.84    0.87
   2   5  -8    2.61    0.74
  -2  -5   8    2.10    0.76
  -2  -5   8    2.55    0.81
  -2  -5   8    2.43    0.76
   1   5  -8    3.55    0.79
   1   5  -8    3.52    0.86
  -1  -5   8    3.57    0.76
  -1  -5   8    2.67    0.70
  -1  -5   8    2.66    0.70
   0   5  -8   -0.02    0.57
   0   5  -8    0.76    0.67
   0  -5   8   -0.34    0.57
   0  -5   8    0.31    0.58
  -1   5  -8    0.25    0.61
  -1   5  -8    0.18    0.59
   1  -5   8    0.68    0.53
   1  -5   8    0.12    0.54
  -2   5  -8    2.34    0.65
  -2   5  -8    1.24    0.63
   2  -5   8    1.90    0.61
   2  -5   8    1.35    0.50
  -3   5  -8    8.58    1.01
  -3   5  -8    9.33    1.14
   3  -5   8    7.98    0.95
   3  -5   8    8.69    0.77
  -4   5  -8   -0.43    0.55
  -4   5  -8    2.20    0.63
   4  -5   8    0.87    0.56
  -5   5  -8   -0.38    0.54
  -5   5  -8   -0.79    0.65
   5  -5   8    0.31    0.61
  -6   5  -8   -0.50    0.60
  -6   5  -8    0.46    0.76
   6  -5   8    0.07    0.67
  -7   5  -8   -0.05    0.83
  -7   5  -8    1.13    0.73
   7  -5   8    1.75    0.88
   3   4  -8   -0.94    0.62
   3   4  -8   -0.11    0.70
   3   4  -8    0.28    0.65
  -3  -4   8    0.76    0.68
  -3  -4   8   -0.65    0.73
  -3  -4   8   -0.66    0.72
   2   4  -8   -0.03    0.68
   2   4  -8   -0.22    0.61
  -2  -4   8    0.29    0.64
  -2  -4   8    0.47    0.59
  -2  -4   8    0.07    0.57
   1   4  -8    1.38    0.63
   1   4  -8    0.34    0.57
  -1  -4   8    0.98    0.56
  -1  -4   8    0.49    0.49
  -1  -4   8    0.52    0.59
   0   4  -8    0.34    0.53
   0   4  -8   -0.59    0.54
   0  -4   8    0.22    0.48
   0  -4   8   -0.17    0.53
  -1   4  -8    0.53    0.56
  -1   4  -8   -0.62    0.44
   1  -4   8    0.29    0.41
   1  -4   8    0.07    0.49
  -2   4  -8   11.72    0.82
  -2   4  -8   13.24    1.11
  -2   4  -8   14.14    1.20
   2  -4   8   15.53    0.99
   2  -4   8   12.47    0.95
   2  -4   8   14.06    1.11
  -3   4  -8    0.69    0.51
  -3   4  -8    0.12    0.48
   3  -4   8    0.05    0.49
   3  -4   8   -0.36    0.37
   3  -4   8    0.17    0.47
  -4   4  -8   -0.18    0.47
  -4   4  -8    0.11    0.51
   4  -4   8    0.34    0.31
   4  -4   8    0.70    0.49
  -5   4  -8   -0.64    0.58
   5  -4   8   -0.21    0.51
  -6   4  -8    1.13    0.54
  -6   4  -8    0.37    0.60
   6  -4   8    0.56    0.41
   6  -4   8    1.24    0.66
  -7   4  -8    1.10    0.67
  -7   4  -8    1.49    0.62
   7  -4   8    0.31    0.71
  -8   4  -8    0.07    0.77
   8  -4   8    1.43    0.85
   4   3  -8   -1.45    0.78
   4   3  -8   -0.49    0.82
  -4  -3   8    0.32    0.72
  -4  -3   8    0.98    0.65
  -4  -3   8   -0.67    0.82
   3   3  -8    9.50    1.13
   3   3  -8   11.23    1.27
  -3  -3   8   11.40    1.25
  -3  -3   8   11.14    1.11
  -3  -3   8   12.55    1.27
   2   3  -8    2.88    0.62
   2   3  -8    2.68    0.70
  -2  -3   8    2.31    0.67
  -2  -3   8    2.48    0.61
  -2  -3   8    2.56    0.62
   1   3  -8    0.68    0.55
   1   3  -8    0.70    0.52
  -1  -3   8    1.89    0.63
  -1  -3   8    1.80    0.57
   0   3  -8    0.45    0.44
   0  -3   8    0.18    0.44
   0  -3   8   -0.12    0.47
  -1   3  -8    1.04    0.50
  -1   3  -8   -0.09    0.40
   1  -3   8    0.26    0.40
   1  -3   8    0.54    0.40
   1  -3   8    0.49    0.49
  -2   3  -8    2.23    0.52
  -2   3  -8    1.57    0.34
  -2   3  -8    1.10    0.45
   2  -3   8    1.66    0.47
   2  -3   8    1.59    0.44
  -3   3  -8    4.57    0.76
  -3   3  -8    3.02    0.60
  -3   3  -8    3.76    0.52
   3  -3   8    3.20    0.47
   3  -3   8    3.21    0.49
  -4   3  -8    0.15    0.37
  -4   3  -8    0.16    0.47
   4  -3   8    0.60    0.29
   4  -3   8    0.03    0.42
   4  -3   8    0.37    0.29
  -5   3  -8    2.12    0.55
  -5   3  -8    2.58    0.64
   5  -3   8    3.31    0.63
  -6   3  -8    0.78    0.52
  -6   3  -8    1.15    0.47
   6  -3   8    0.70    0.36
   6  -3   8   -0.18    0.51
  -7   3  -8    0.32    0.55
  -7   3  -8   -0.05    0.53
   7  -3   8    0.44    0.63
   7  -3   8   -0.32    0.38
  -8   3  -8    1.22    0.61
  -8   3  -8    1.95    0.75
   8  -3   8    1.52    0.77
  -9   3  -8    0.66    0.90
   9  -3   8    2.03    0.57
   5   2  -8    1.25    0.80
   5   2  -8    1.04    0.78
  -5  -2   8    0.12    0.85
  -5  -2   8    1.62    0.73
  -5  -2   8    2.59    1.01
   4   2  -8    2.03    0.70
   4   2  -8    1.99    0.63
   4   2  -8    2.89    0.63
  -4  -2   8    2.67    0.82
  -4  -2   8    2.37    0.82
  -4  -2   8    3.30    0.66
   3   2  -8    0.17    0.55
   3   2  -8   -0.19    0.54
  -3  -2   8    0.07    0.52
  -3  -2   8    0.64    0.56
   2   2  -8    0.46    0.49
   2   2  -8    0.09    0.50
  -2  -2   8    0.23    0.45
  -2  -2   8   -0.55    0.44
  -2  -2   8    0.32    0.52
   1   2  -8   -0.04    0.50
   1   2  -8   -0.02    0.45
   1   2  -8    0.00    0.41
  -1  -2   8    0.83    0.39
  -1  -2   8    0.29    0.42
   0   2  -8    1.52    0.53
   0   2  -8    1.48    0.51
   0  -2   8    2.12    0.45
   0  -2   8    1.95    0.70
  -1   2  -8    1.40    0.56
   1  -2   8    1.47    0.39
   1  -2   8    1.52    0.38
   1  -2   8    1.91    0.38
  -2   2  -8    4.84    0.78
  -2   2  -8    4.31    0.49
  -2   2  -8    4.04    0.73
   2  -2   8    5.57    0.64
   2  -2   8    4.52    0.62
  -3   2  -8    0.14    0.48
  -3   2  -8    0.38    0.36
   3  -2   8    0.19    0.32
   3  -2   8    0.09    0.23
   3  -2   8    0.96    0.37
   3  -2   8   -0.09    0.37
   3  -2   8    0.03    0.27
  -4   2  -8   -0.07    0.42
  -4   2  -8   -0.34    0.36
   4  -2   8   -0.04    0.14
   4  -2   8    0.04    0.28
   4  -2   8   -0.65    0.43
  -5   2  -8    1.46    0.73
  -5   2  -8    0.21    0.38
   5  -2   8    0.17    0.29
   5  -2   8    0.12    0.44
  -6   2  -8   -0.22    0.39
  -6   2  -8    0.32    0.49
   6  -2   8   -0.32    0.51
   6  -2   8    0.06    0.33
  -7   2  -8   -0.22    0.41
  -7   2  -8    0.49    0.54
   7  -2   8    0.60    0.60
  -8   2  -8    0.42    0.61
  -8   2  -8    2.18    0.57
  -9   2  -8   -1.43    1.15
   9  -2   8    0.31    0.45
   5   1  -8    0.82    0.64
  -5  -1   8   -0.50    0.78
  -5  -1   8    0.29    0.73
   4   1  -8    0.93    0.61
   4   1  -8   -0.44    0.53
   4   1  -8   -0.21    0.57
  -4  -1   8    0.32    0.52
  -4  -1   8   -0.02    0.55
  -4  -1   8   -0.82    0.57
   3   1  -8    1.63    0.58
   3   1  -8    1.35    0.55
  -3  -1   8    0.81    0.51
  -3  -1   8    1.31    0.51
  -3  -1   8    1.16    0.46
   2   1  -8   15.97    1.23
   2   1  -8   15.64    1.21
  -2  -1   8   15.06    1.20
  -2  -1   8   13.40    0.94
  -2  -1   8   15.52    1.15
   1   1  -8    3.10    0.45
   1   1  -8    2.63    0.67
   1   1  -8    2.54    0.56
  -1  -1   8    4.59    0.78
  -1  -1   8    2.72    0.96
  -1  -1   8    2.25    0.66
   0   1  -8    0.49    0.42
   0   1  -8    0.24    0.39
   0   1  -8    0.36    0.30
   0  -1   8    0.55    0.33
   0  -1   8    1.44    0.47
   0  -1   8    0.89    0.41
  -1   1  -8   15.61    0.89
  -1   1  -8   15.34    1.08
  -1   1  -8   15.17    1.09
   1  -1   8   15.60    0.88
   1  -1   8   16.62    0.94
   1  -1   8   16.61    1.05
  -2   1  -8   38.67    1.81
  -2   1  -8   39.63    1.87
   2  -1   8   37.51    1.72
   2  -1   8   36.16    1.52
   2  -1   8   37.79    1.74
  -3   1  -8    2.89    0.51
  -3   1  -8    1.98    0.45
   3  -1   8    2.48    0.37
   3  -1   8    2.95    0.45
   3  -1   8    1.95    0.39
   3  -1   8    2.92    0.49
  -4   1  -8    9.18    0.78
  -4   1  -8    8.09    0.83
   4  -1   8    6.57    0.60
   4  -1   8    8.07    0.60
   4  -1   8    7.89    0.73
   4  -1   8    7.37    0.57
  -5   1  -8   -0.26    0.36
  -5   1  -8    0.49    0.38
   5  -1   8    0.15    0.29
   5  -1   8    0.23    0.25
   5  -1   8   -0.13    0.28
   5  -1   8    0.56    0.45
  -6   1  -8    1.96    0.44
  -6   1  -8    3.16    0.57
   6  -1   8    3.97    0.68
  -7   1  -8   -0.05    0.45
  -7   1  -8    0.18    0.41
   7  -1   8    0.05    0.54
  -8   1  -8    2.02    0.71
  -8   1  -8    1.39    0.50
  -8   1  -8    1.48    0.50
  -9   1  -8   -0.60    0.81
  -9   1  -8    0.79    0.62
   9  -1   8    0.44    0.50
   5   0  -8    2.14    0.70
   5   0  -8    1.16    0.49
   5   0  -8   -0.53    0.63
  -5   0   8    2.16    0.68
  -5   0   8    2.56    0.74
   4   0  -8   -0.40    0.56
   4   0  -8   -0.14    0.52
   4   0  -8    1.51    0.58
  -4   0   8    0.29    0.56
  -4   0   8    0.12    0.56
  -4   0   8    0.85    0.42
   3   0  -8    7.27    0.89
   3   0  -8   10.89    1.05
  -3   0   8    9.71    0.77
  -3   0   8   11.64    0.99
  -3   0   8    9.85    0.93
   2   0  -8   -0.29    0.52
  -2   0   8    0.16    0.30
   1   0  -8    9.72    0.91
   1   0  -8    8.68    0.92
  -1   0   8   10.13    0.91
  -1   0   8    9.82    0.69
  -1   0   8   10.11    0.91
   0   0  -8    0.10    0.37
   0   0  -8   -0.08    0.26
   0   0  -8    0.47    0.36
   0   0   8    0.09    0.32
   0   0   8   -0.02    0.31
   0   0   8   -0.06    0.25
  -1   0  -8  139.83    5.15
  -1   0  -8  132.79    5.09
  -1   0  -8  134.30    4.93
   1   0   8  138.72    4.94
   1   0   8  140.07    5.06
  -2   0  -8   13.77    0.79
  -2   0  -8   14.04    0.96
  -2   0  -8   13.96    0.91
   2   0   8   13.58    0.81
   2   0   8   12.28    0.87
   2   0   8   13.35    0.70
  -3   0  -8    1.18    0.36
  -3   0  -8    1.00    0.34
  -3   0  -8    0.58    0.32
   3   0   8    0.57    0.33
   3   0   8    1.00    0.17
   3   0   8    0.56    0.34
   3   0   8    1.27    0.28
  -4   0  -8    6.13    0.66
  -4   0  -8    4.84    0.66
   4   0   8    6.97    0.82
   4   0   8    6.38    0.67
  -5   0  -8    7.09    0.65
  -5   0  -8    8.12    0.74
   5   0   8    8.30    0.77
   5   0   8    6.35    0.53
   5   0   8    8.13    0.55
  -6   0  -8   -0.15    0.36
   6   0   8    0.09    0.20
  -7   0  -8    2.43    0.43
  -7   0  -8    2.01    0.48
  -8   0  -8    0.03    0.40
  -8   0  -8   -0.60    0.46
  -8   0  -8   -0.37    0.57
  -9   0  -8    1.67    0.79
   9   0   8   -0.01    0.46
 -10   0  -8    1.24    1.09
  10   0   8    0.60    0.64
   6  -1  -8   -0.33    0.57
  -6   1   8    0.48    0.74
  -6   1   8   -1.18    0.78
   5  -1  -8   -0.31    0.44
  -5   1   8   -0.33    0.64
  -5   1   8    0.00    0.63
   4  -1  -8   -1.03    0.51
  -4   1   8   -0.65    0.48
  -4   1   8    0.16    0.52
  -4   1   8   -0.35    0.34
   3  -1  -8    6.97    0.78
  -3   1   8    5.77    0.90
  -3   1   8    5.47    0.54
   2  -1  -8    2.28    0.54
   2  -1  -8    3.63    0.63
  -2   1   8    2.92    0.79
  -2   1   8    3.12    0.42
   1  -1  -8   18.75    1.13
   1  -1  -8   16.45    1.11
  -1   1   8   17.78    0.95
  -1   1   8   18.19    1.12
  -1   1   8   15.93    1.05
   0  -1  -8    2.87    0.39
   0  -1  -8    3.07    0.54
   0  -1  -8    2.91    0.50
   0   1   8    2.03    0.42
   0   1   8    2.70    0.38
   0   1   8    2.70    0.47
  -1  -1  -8    1.39    0.31
  -1  -1  -8    1.00    0.33
  -1  -1  -8    0.39    0.32
   1   1   8    1.81    0.39
   1   1   8    0.97    0.26
  -2  -1  -8   22.28    1.20
  -2  -1  -8   22.06    1.20
  -2  -1  -8   21.12    1.18
   2   1   8   21.03    0.94
   2   1   8   20.02    1.05
   2   1   8   23.13    1.17
   2   1   8   19.00    1.16
  -3  -1  -8    8.18    0.66
  -3  -1  -8    9.08    0.78
  -3  -1  -8   10.66    0.79
   3   1   8    9.25    0.47
   3   1   8   10.83    0.72
   3   1   8   10.06    0.67
   3   1   8    9.07    0.46
   3   1   8    8.49    0.68
  -4  -1  -8    7.36    0.68
  -4  -1  -8    7.23    0.69
   4   1   8    6.76    0.59
   4   1   8    8.29    0.60
   4   1   8    6.34    0.63
   4   1   8    6.63    0.69
  -5  -1  -8    3.32    0.49
  -5  -1  -8    3.74    0.57
   5   1   8    2.73    0.47
   5   1   8    2.84    0.45
   5   1   8    3.84    0.57
   5   1   8    4.03    0.47
  -6  -1  -8    7.53    0.69
  -6  -1  -8    8.58    0.75
   6   1   8    6.12    0.52
   6   1   8    6.98    0.71
   6   1   8    6.91    0.54
  -7  -1  -8    4.78    0.68
  -7  -1  -8    3.84    0.61
  -8  -1  -8    0.31    0.46
  -8  -1  -8    0.10    0.59
  -8  -1  -8    0.12    0.35
  -9  -1  -8   -0.91    0.51
  -9  -1  -8    0.94    0.70
   9   1   8    0.72    0.47
 -10  -1  -8    0.94    0.69
 -10  -1  -8    1.05    1.03
  10   1   8    0.38    0.69
   6  -2  -8    0.94    0.65
  -6   2   8   -0.22    0.75
  -6   2   8    0.52    0.83
   5  -2  -8    4.38    0.67
   5  -2  -8    3.19    0.56
  -5   2   8    5.45    0.86
   4  -2  -8    1.12    0.50
   4  -2  -8    1.20    0.33
   4  -2  -8    0.77    0.49
  -4   2   8    0.44    0.44
  -4   2   8    1.65    0.50
   3  -2  -8    0.54    0.43
   3  -2  -8    0.77    0.53
  -3   2   8    0.97    0.25
  -3   2   8    0.73    0.45
  -3   2   8    0.93    0.45
   2  -2  -8    0.01    0.39
   2  -2  -8    0.13    0.37
  -2   2   8    0.41    0.20
  -2   2   8    0.19    0.40
  -2   2   8    0.24    0.34
   1  -2  -8    0.41    0.28
   1  -2  -8    0.83    0.36
   1  -2  -8    0.23    0.35
  -1   2   8    0.62    0.28
  -1   2   8    0.74    0.35
   0  -2  -8    4.53    0.62
   0  -2  -8    4.65    0.49
   0  -2  -8    5.03    0.62
   0   2   8    4.07    0.40
   0   2   8    4.32    0.56
  -1  -2  -8   53.61    2.29
  -1  -2  -8   50.90    2.24
  -1  -2  -8   56.37    2.16
  -1  -2  -8   50.40    2.21
   1   2   8   52.34    2.04
   1   2   8   53.45    2.23
  -2  -2  -8    7.45    0.67
  -2  -2  -8    5.66    0.65
  -2  -2  -8    6.99    0.51
  -2  -2  -8    6.42    0.66
   2   2   8    6.96    0.62
   2   2   8    6.71    0.49
   2   2   8    5.99    0.62
   2   2   8    7.26    0.53
  -3  -2  -8    0.57    0.31
   3   2   8   -0.33    0.35
   3   2   8    0.10    0.16
   3   2   8    0.27    0.34
   3   2   8    0.04    0.26
   3   2   8    0.22    0.25
  -4  -2  -8    0.54    0.32
  -4  -2  -8    0.24    0.27
  -4  -2  -8    0.33    0.29
   4   2   8    0.15    0.34
   4   2   8    0.36    0.29
   4   2   8   -0.37    0.30
  -5  -2  -8   24.16    1.27
  -5  -2  -8   25.22    1.27
   5   2   8   24.87    1.19
   5   2   8   24.58    1.25
  -6  -2  -8   16.94    0.98
  -6  -2  -8   16.79    1.06
   6   2   8   16.79    0.97
   6   2   8   17.35    0.90
  -7  -2  -8    0.53    0.49
  -7  -2  -8    0.85    0.34
  -7  -2  -8    1.72    0.41
   7   2   8    1.23    0.30
  -8  -2  -8    0.19    0.41
  -8  -2  -8   -0.08    0.57
  -9  -2  -8    0.77    0.56
  -9  -2  -8   -0.49    0.71
   9   2   8   -0.47    0.50
 -10  -2  -8   -0.64    1.04
 -10  -2  -8   -0.55    1.07
  10   2   8    0.45    0.57
  -6   3   8    1.62    0.74
   5  -3  -8    0.01    0.48
   5  -3  -8   -0.26    0.40
  -5   3   8    0.16    0.61
  -5   3   8    0.14    0.55
   4  -3  -8    2.47    0.47
   4  -3  -8    1.74    0.37
  -4   3   8    2.34    0.56
  -4   3   8    2.05    0.54
   3  -3  -8    2.52    0.50
  -3   3   8    2.90    0.50
  -3   3   8    3.18    0.60
   2  -3  -8    0.18    0.38
   2  -3  -8    0.39    0.38
  -2   3   8   -0.26    0.32
  -2   3   8    0.28    0.38
   1  -3  -8   -0.19    0.33
   1  -3  -8    0.52    0.38
   1  -3  -8   -0.01    0.33
  -1   3   8    0.16    0.35
   0  -3  -8    0.51    0.32
   0  -3  -8    0.84    0.29
   0  -3  -8    1.05    0.38
   0  -3  -8    1.07    0.37
   0   3   8    0.78    0.31
   0   3   8    1.01    0.28
  -1  -3  -8    1.85    0.29
  -1  -3  -8    1.38    0.29
  -1  -3  -8    1.33    0.35
  -1  -3  -8    1.49    0.33
  -1  -3  -8    1.39    0.40
   1   3   8    1.75    0.25
   1   3   8    1.42    0.30
   1   3   8    1.41    0.36
  -2  -3  -8    0.71    0.30
  -2  -3  -8    0.03    0.19
  -2  -3  -8    0.13    0.29
  -2  -3  -8    0.04    0.21
  -2  -3  -8    0.23    0.27
   2   3   8   -0.11    0.26
   2   3   8    0.32    0.19
  -3  -3  -8    0.30    0.28
  -3  -3  -8    0.37    0.26
   3   3   8    0.84    0.33
   3   3   8    0.74    0.34
   3   3   8   -0.10    0.30
   3   3   8    0.36    0.19
  -4  -3  -8    0.75    0.34
  -4  -3  -8    0.63    0.28
  -4  -3  -8    0.96    0.32
   4   3   8    0.96    0.64
   4   3   8    0.21    0.34
   4   3   8    0.65    0.17
   4   3   8   -0.12    0.33
  -5  -3  -8    7.23    0.60
  -5  -3  -8    5.92    0.61
   5   3   8    5.09    0.58
   5   3   8    5.34    0.58
   5   3   8    5.51    0.60
  -6  -3  -8    1.00    0.37
  -6  -3  -8    0.54    0.29
   6   3   8    0.32    0.34
   6   3   8    0.82    0.35
   6   3   8    0.46    0.31
  -7  -3  -8    3.27    0.62
  -7  -3  -8    3.66    0.63
   7   3   8    2.70    0.39
  -8  -3  -8    2.08    0.64
  -8  -3  -8    1.33    0.50
   8   3   8    0.49    0.38
  -9  -3  -8    1.56    0.57
  -9  -3  -8    0.46    0.73
   9   3   8    0.50    0.45
 -10  -3  -8    0.03    0.73
 -10  -3  -8   -0.05    1.76
  10   3   8   -0.60    0.54
  -6   4   8    1.93    0.81
  -6   4   8    3.02    0.77
   5  -4  -8    1.26    0.48
   5  -4  -8    0.50    0.42
  -5   4   8   -0.13    0.62
   4  -4  -8    6.23    0.68
   4  -4  -8    6.07    0.67
  -4   4   8    7.15    0.82
  -4   4   8    5.32    0.74
   3  -4  -8    0.24    0.35
   3  -4  -8    0.35    0.37
  -3   4   8    0.61    0.36
  -3   4   8    0.83    0.54
   2  -4  -8    4.01    0.58
   2  -4  -8    3.19    0.55
  -2   4   8    3.11    0.55
   1  -4  -8   -0.33    0.29
   1  -4  -8    0.43    0.34
  -1   4   8    0.30    0.33
  -1   4   8    0.81    0.34
   0  -4  -8   10.60    0.85
   0  -4  -8   13.57    0.90
   0  -4  -8   12.34    0.81
   0  -4  -8   12.76    0.75
   0   4   8   12.32    0.89
   0   4   8   13.05    0.92
  -1  -4  -8    1.08    0.34
  -1  -4  -8    1.74    0.39
  -1  -4  -8    1.03    0.25
  -1  -4  -8    1.05    0.27
   1   4   8    1.32    0.37
   1   4   8    1.33    0.29
  -2  -4  -8   17.36    1.01
  -2  -4  -8   16.38    0.89
  -2  -4  -8   16.17    0.79
  -2  -4  -8   16.82    0.99
  -2  -4  -8   15.77    0.92
   2   4   8   17.20    1.02
   2   4   8   16.42    0.85
  -3  -4  -8   -0.11    0.29
  -3  -4  -8    0.63    0.24
  -3  -4  -8   -0.17    0.28
  -3  -4  -8    0.01    0.22
   3   4   8    0.30    0.33
   3   4   8    0.05    0.21
   3   4   8    0.37    0.30
  -4  -4  -8    0.17    0.28
  -4  -4  -8    0.14    0.31
  -4  -4  -8    0.12    0.28
   4   4   8   -0.06    0.30
   4   4   8    0.53    0.21
   4   4   8    0.05    0.32
  -5  -4  -8    5.54    0.65
   5   4   8    4.61    0.60
   5   4   8    6.71    0.66
   5   4   8    5.64    0.45
  -6  -4  -8   20.13    1.20
   6   4   8   20.60    1.11
  -7  -4  -8    0.73    0.42
  -7  -4  -8    1.87    0.54
   7   4   8    1.43    0.49
   7   4   8    0.21    0.40
  -8  -4  -8   -0.29    0.47
  -8  -4  -8    0.90    0.64
   8   4   8    0.70    0.54
   8   4   8    0.58    0.39
  -9  -4  -8   -0.55    0.73
  -9  -4  -8   -0.33    0.61
   6  -5  -8   -0.10    0.75
  -6   5   8    1.44    0.79
  -6   5   8   -0.74    0.81
   5  -5  -8    0.56    0.41
   5  -5  -8    0.26    0.48
  -5   5   8    0.17    0.66
  -5   5   8   -0.11    0.60
  -5   5   8    0.05    0.51
   4  -5  -8    2.64    0.49
   4  -5  -8    2.26    0.40
  -4   5   8    2.60    0.57
  -4   5   8    1.81    0.45
  -4   5   8    2.71    0.58
   3  -5  -8    1.47    0.49
   3  -5  -8    1.88    0.42
   3  -5  -8    1.86    0.41
  -3   5   8    1.27    0.55
   2  -5  -8    3.35    0.52
   2  -5  -8    3.94    0.52
  -2   5   8    2.45    0.56
  -2   5   8    2.97    0.56
   1  -5  -8   -0.28    0.30
  -1   5   8    0.88    0.37
  -1   5   8    0.21    0.33
   0  -5  -8    0.29    0.29
   0   5   8    0.02    0.29
   0   5   8    0.10    0.35
  -1  -5  -8    2.23    0.25
  -1  -5  -8    1.98    0.34
  -1  -5  -8    2.76    0.49
   1   5   8    2.04    0.38
   1   5   8    2.39    0.44
  -2  -5  -8    0.78    0.35
  -2  -5  -8    0.56    0.20
  -2  -5  -8    0.17    0.25
   2   5   8    0.48    0.30
   2   5   8   -0.04    0.24
  -3  -5  -8    0.14    0.25
  -3  -5  -8    0.17    0.30
  -3  -5  -8   -0.07    0.25
   3   5   8    0.08    0.32
   3   5   8    0.12    0.35
   3   5   8    0.38    0.24
  -4  -5  -8    1.27    0.39
  -4  -5  -8    0.54    0.34
   4   5   8    0.54    0.26
   4   5   8    0.55    0.34
   4   5   8    0.22    0.33
  -5  -5  -8    4.95    0.75
  -5  -5  -8    4.44    0.72
  -5  -5  -8    3.40    0.53
   5   5   8    4.83    0.46
   5   5   8    2.83    0.55
   5   5   8    3.82    0.61
  -6  -5  -8    2.20    0.68
  -6  -5  -8    1.17    0.46
   6   5   8    1.32    0.43
   6   5   8    1.53    0.35
  -7  -5  -8    1.15    0.55
  -7  -5  -8    0.95    0.45
   7   5   8    1.60    0.41
   7   5   8    1.31    0.35
  -8  -5  -8    3.86    0.77
  -8  -5  -8    3.08    0.67
   8   5   8    3.14    0.54
   8   5   8    3.00    0.56
  -9  -5  -8   -0.09    0.64
  -9  -5  -8    0.41    0.79
   9   5   8    0.41    0.60
   6  -6  -8    0.90    0.60
  -6   6   8    1.46    0.90
  -6   6   8    0.29    0.77
   5  -6  -8    5.26    0.78
   5  -6  -8    3.99    0.79
  -5   6   8    5.80    1.02
  -5   6   8    4.71    0.82
   4  -6  -8   11.24    0.97
   4  -6  -8    9.68    0.72
  -4   6   8    9.80    0.96
  -4   6   8   10.88    1.06
   3  -6  -8    1.51    0.45
   3  -6  -8    1.24    0.36
   3  -6  -8    1.28    0.41
  -3   6   8    1.06    0.53
  -3   6   8    2.13    0.56
   2  -6  -8    1.31    0.46
   2  -6  -8    1.84    0.39
  -2   6   8    2.03    0.52
   1  -6  -8    0.11    0.32
  -1   6   8    0.13    0.37
  -1   6   8    0.44    0.38
   0  -6  -8   13.20    0.74
   0  -6  -8   13.25    0.89
   0   6   8   14.00    0.99
   0   6   8   13.95    0.92
  -1  -6  -8   18.94    1.15
  -1  -6  -8   19.68    1.09
  -1  -6  -8   20.02    0.79
   1   6   8   19.53    1.06
   1   6   8   17.53    1.11
  -2  -6  -8    6.24    0.47
  -2  -6  -8    6.91    0.67
  -2  -6  -8    6.11    0.57
   2   6   8    6.51    0.59
   2   6   8    6.70    0.68
  -3  -6  -8    4.20    0.46
  -3  -6  -8    4.75    0.62
  -3  -6  -8    4.57    0.46
   3   6   8    3.89    0.51
   3   6   8    4.54    0.63
  -4  -6  -8    6.91    0.73
  -4  -6  -8    6.78    0.64
  -4  -6  -8    8.13    0.76
   4   6   8    6.44    0.76
   4   6   8    8.09    0.62
  -5  -6  -8   22.67    1.30
  -5  -6  -8   22.72    1.29
   5   6   8   20.05    1.24
   5   6   8   19.60    1.12
   5   6   8   21.82    1.10
  -6  -6  -8    6.50    0.86
  -6  -6  -8    6.03    0.78
   6   6   8    7.76    0.69
   6   6   8    8.54    0.80
  -7  -6  -8    3.45    0.67
  -7  -6  -8    3.72    0.62
   7   6   8    3.19    0.50
   7   6   8    3.64    0.63
   7   6   8    5.00    0.68
  -8  -6  -8   -0.95    0.69
  -8  -6  -8   -0.26    0.57
   8   6   8   -0.20    0.58
   8   6   8   -0.08    0.45
  -9  -6  -8    1.44    0.85
  -9  -6  -8    0.07    0.72
   9   6   8    1.22    0.65
   6  -7  -8    1.94    0.68
  -6   7   8    1.33    0.85
   5  -7  -8    0.62    0.45
   5  -7  -8    1.58    0.60
  -5   7   8    0.92    0.79
  -5   7   8    1.17    0.70
   4  -7  -8   -0.10    0.52
  -4   7   8    1.04    0.61
  -4   7   8    1.20    0.64
   3  -7  -8    2.37    0.42
  -3   7   8    1.99    0.60
  -3   7   8    2.15    0.55
   2  -7  -8    6.42    0.68
   2  -7  -8    6.85    0.65
   2  -7  -8    5.87    0.83
  -2   7   8    5.36    0.82
   1  -7  -8    2.67    0.39
   1  -7  -8    2.89    0.44
   1  -7  -8    3.23    0.61
  -1   7   8    2.97    0.63
  -1   7   8    2.51    0.59
   0  -7  -8    1.49    0.29
   0  -7  -8    2.09    0.43
   0   7   8    1.66    0.48
   0   7   8    1.96    0.46
  -1  -7  -8    1.23    0.19
  -1  -7  -8    0.96    0.30
  -1  -7  -8    0.65    0.34
   1   7   8    1.16    0.41
  -2  -7  -8   13.38    0.98
  -2  -7  -8   13.49    0.82
  -2  -7  -8   13.08    0.73
   2   7   8   14.61    1.04
   2   7   8   16.05    0.93
  -3  -7  -8    3.84    0.60
  -3  -7  -8    3.31    0.52
  -3  -7  -8    1.78    0.44
   3   7   8    2.23    0.45
   3   7   8    2.49    0.53
  -4  -7  -8   11.99    0.99
  -4  -7  -8   14.05    0.91
  -4  -7  -8   13.87    1.07
  -4  -7  -8   12.43    0.89
   4   7   8   13.29    0.89
   4   7   8   13.10    1.13
  -5  -7  -8    1.11    0.46
  -5  -7  -8    2.19    0.58
  -5  -7  -8    2.04    0.53
   5   7   8    1.68    0.79
   5   7   8    0.55    0.53
   5   7   8    1.96    0.67
  -6  -7  -8   -0.48    0.45
  -6  -7  -8    0.03    0.48
   6   7   8   -0.06    0.41
   6   7   8    0.37    0.49
  -7  -7  -8    0.12    0.52
  -7  -7  -8    1.96    0.57
   7   7   8    1.49    0.52
   7   7   8    0.02    0.58
   7   7   8    1.28    0.43
  -8  -7  -8   -0.87    0.59
  -8  -7  -8   -0.38    0.65
   8   7   8    1.40    1.08
   8   7   8    1.28    0.71
   8   7   8    0.33    0.82
  -9  -7  -8    1.32    0.89
  -9  -7  -8   -0.17    0.89
   5  -8  -8    2.72    0.71
  -5   8   8    1.93    0.80
  -5   8   8    3.31    1.05
   4  -8  -8   -0.21    0.54
   4  -8  -8    1.17    0.44
  -4   8   8    2.14    0.72
  -4   8   8    1.88    0.67
   3  -8  -8    3.17    0.57
   3  -8  -8    3.61    0.65
  -3   8   8    3.42    0.69
  -3   8   8    5.13    0.87
   2  -8  -8    0.43    0.36
   2  -8  -8    1.38    0.50
   2  -8  -8    0.95    0.49
  -2   8   8    0.47    0.51
  -2   8   8    0.57    0.53
   1  -8  -8   11.25    0.97
   1  -8  -8   10.07    0.62
   1  -8  -8    9.91    0.79
  -1   8   8   11.28    1.05
  -1   8   8   11.01    0.94
   0  -8  -8   34.04    1.68
   0  -8  -8   34.33    1.42
   0  -8  -8   37.03    1.72
   0  -8  -8   36.92    1.89
   0   8   8   37.10    1.84
   0   8   8   37.67    1.90
  -1  -8  -8   10.43    0.68
  -1  -8  -8   13.72    0.99
  -1  -8  -8   12.49    0.71
  -1  -8  -8   10.91    0.83
   1   8   8   13.88    1.05
   1   8   8   14.28    1.13
  -2  -8  -8   14.71    1.32
  -2  -8  -8   12.26    0.78
  -2  -8  -8   13.32    0.81
   2   8   8   13.92    1.11
   2   8   8   13.35    1.03
  -3  -8  -8    1.40    0.37
  -3  -8  -8    2.44    0.39
  -3  -8  -8    1.40    0.48
   3   8   8    1.41    0.51
   3   8   8    0.99    0.41
  -4  -8  -8    3.35    0.55
  -4  -8  -8    4.35    0.71
   4   8   8    3.68    0.55
   4   8   8    3.90    0.69
  -5  -8  -8    7.39    0.84
  -5  -8  -8    6.47    0.79
   5   8   8    4.81    0.80
   5   8   8    5.81    0.85
  -6  -8  -8    0.11    0.50
  -6  -8  -8    0.76    0.57
   6   8   8    0.15    0.57
   6   8   8    0.08    0.52
  -7  -8  -8    0.57    0.62
  -7  -8  -8    0.24    0.66
   7   8   8    0.71    0.49
   7   8   8    0.21    0.62
  -8  -8  -8    0.80    0.72
  -8  -8  -8    1.15    0.79
   8   8   8   -0.45    0.94
   8   8   8    0.96    0.77
   8   8   8    0.07    0.59
   5  -9  -8    0.66    0.69
   5  -9  -8    0.38    0.73
  -5   9   8    2.46    1.09
  -5   9   8    1.50    0.82
   4  -9  -8   -0.56    0.69
   4  -9  -8   -0.47    0.44
  -4   9   8    0.29    0.95
  -4   9   8   -0.33    0.78
   3  -9  -8    6.34    0.93
   3  -9  -8    7.98    0.82
  -3   9   8    8.94    1.11
  -3   9   8    7.63    1.02
   2  -9  -8   14.48    0.91
   2  -9  -8   17.13    1.25
  -2   9   8   10.72    1.14
  -2   9   8   13.33    1.16
   1  -9  -8    1.43    0.41
   1  -9  -8    1.39    0.54
  -1   9   8    2.11    0.60
  -1   9   8    1.93    0.59
   0  -9  -8    6.02    0.86
   0  -9  -8    3.52    0.61
   0  -9  -8    4.32    0.33
   0   9   8    3.76    0.64
   0   9   8    4.15    0.71
  -1  -9  -8    0.02    0.24
  -1  -9  -8    0.33    0.40
  -1  -9  -8   -0.04    0.43
   1   9   8    0.17    0.50
   1   9   8    0.01    0.47
  -2  -9  -8    0.44    0.29
  -2  -9  -8    0.36    0.47
   2   9   8    1.06    0.56
  -3  -9  -8    2.22    0.57
  -3  -9  -8    2.18    0.40
   3   9   8    3.00    0.56
  -4  -9  -8    5.28    0.93
  -4  -9  -8    5.66    0.72
   4   9   8    4.84    0.86
  -5  -9  -8   -0.08    0.82
  -5  -9  -8   -0.47    0.53
   5   9   8    0.13    0.56
   5   9   8    0.53    0.58
  -6  -9  -8    1.14    0.61
  -6  -9  -8    0.44    0.58
   6   9   8    0.83    0.71
   6   9   8    0.44    0.57
  -7  -9  -8   -0.16    0.69
   7   9   8   -0.60    0.60
   7   9   8   -0.18    0.69
   4 -10  -8    1.68    0.84
  -4  10   8    1.34    0.91
  -4  10   8    2.87    0.81
   3 -10  -8    1.40    0.47
   3 -10  -8    1.73    0.69
  -3  10   8    2.46    0.82
  -3  10   8    0.58    0.71
   2 -10  -8   -0.45    0.43
   2 -10  -8   -0.02    0.54
  -2  10   8   -1.04    0.61
  -2  10   8    0.30    0.64
   1 -10  -8    4.24    0.69
   1 -10  -8    3.31    0.53
  -1  10   8    3.04    0.66
  -1  10   8    4.01    0.76
   0 -10  -8    4.04    0.71
   0 -10  -8    5.16    0.80
   0  10   8    6.65    0.83
   0  10   8    4.36    0.76
  -1 -10  -8    1.16    0.52
  -1 -10  -8    1.14    0.55
   1  10   8    0.80    0.59
   1  10   8    1.38    0.61
  -2 -10  -8    0.83    0.30
  -2 -10  -8    0.07    0.45
  -2 -10  -8   -0.53    0.50
   2  10   8    0.59    0.57
   2  10   8    1.15    0.58
  -3 -10  -8   -0.09    0.38
  -3 -10  -8   -0.30    0.54
  -3 -10  -8    1.10    0.56
   3  10   8    0.42    0.54
   3  10   8   -0.30    0.62
  -4 -10  -8    2.23    0.60
  -4 -10  -8    2.00    0.57
  -4 -10  -8    1.22    0.48
   4  10   8    1.41    0.64
   4  10   8    3.08    0.62
  -5 -10  -8    0.62    0.67
  -5 -10  -8    2.01    1.02
  -5 -10  -8    0.40    0.65
   5  10   8    2.34    0.69
   5  10   8    0.55    0.77
  -6 -10  -8    0.07    0.71
  -6 -10  -8    0.38    0.77
  -6 -10  -8   -0.73    0.66
   6  10   8    0.05    0.70
   6  10   8    0.00    0.67
   3 -11  -8    1.24    0.75
   3 -11  -8    0.24    0.57
  -3  11   8   -0.39    0.79
  -3  11   8   -0.35    0.90
   2 -11  -8    1.32    0.69
   2 -11  -8   -0.30    0.42
  -2  11   8    0.73    0.77
  -2  11   8    0.13    0.75
   1 -11  -8    2.46    0.59
  -1  11   8    2.76    0.75
  -1  11   8    2.22    0.74
   0 -11  -8    0.04    0.36
   0 -11  -8    0.79    0.65
   0 -11  -8    0.32    0.58
   0  11   8    0.17    0.67
   0  11   8   -0.23    0.68
  -1 -11  -8    2.52    0.62
  -1 -11  -8    4.45    0.79
   1  11   8    4.86    0.80
   1  11   8    3.66    0.73
  -2 -11  -8   -0.03    0.60
  -2 -11  -8   -0.73    0.50
   2  11   8   -1.16    0.60
   2  11   8   -0.72    0.61
  -3 -11  -8    2.37    0.64
  -3 -11  -8    3.97    0.71
   3  11   8    1.90    0.68
   3  11   8    3.77    0.87
  -4 -11  -8    6.49    1.05
  -4 -11  -8    4.59    0.87
  -4 -11  -8    5.11    0.89
   4  11   8    4.93    0.93
  -5 -11  -8    2.35    0.79
  -5 -11  -8    1.81    0.81
  -5 -11  -8    2.69    0.77
   5  11   8    2.26    0.92
   2 -12  -8   -0.09    0.50
   2 -12  -8    0.65    0.94
  -2  12   8    1.62    0.89
  -2  12   8    2.07    1.09
   1 -12  -8    3.13    0.92
   1 -12  -8    4.49    0.88
  -1  12   8    4.29    0.97
  -1  12   8    3.63    0.89
   0 -12  -8    3.33    0.71
   0 -12  -8    3.25    0.79
   0  12   8    3.98    0.86
   0  12   8    5.01    0.97
  -1 -12  -8   -0.91    0.75
  -1 -12  -8   -0.62    0.63
   1  12   8    0.54    0.85
   1  12   8   -1.29    0.73
  -2 -12  -8   -0.06    0.75
   2  12   8    0.60    0.81
   2  12   8    0.86    0.91
  -3 -12  -8    1.03    0.66
  -3 -12  -8    0.42    0.72
   3  12   8    1.33    0.77
   3  12   8    0.02    0.92
  -4 -12  -8   -0.24    0.99
  -4 -12  -8   -0.85    1.32
   4  12   8    1.00    1.04
  -1   6  -9   -1.54    1.53
  -1   6  -9    1.06    1.06
   1  -6   9    1.80    0.78
   1  -6   9   -0.30    0.77
  -2   6  -9    1.30    0.97
  -2   6  -9    2.63    0.93
   2  -6   9    0.30    1.04
  -3   6  -9    3.70    0.87
  -3   6  -9    2.70    1.00
   3  -6   9    2.97    0.87
  -4   6  -9    1.38    0.98
  -4   6  -9   -0.89    0.81
   4  -6   9   -0.80    0.79
  -5   6  -9    0.35    0.84
   5  -6   9   -1.22    1.57
   1   5  -9    0.38    0.94
   1   5  -9    0.86    0.87
  -1  -5   9    1.11    0.85
  -1  -5   9    0.03    0.95
  -1  -5   9   -0.09    1.07
   0   5  -9    2.51    0.81
   0   5  -9    0.19    0.79
   0  -5   9    1.67    0.82
  -1   5  -9    1.70    0.75
  -1   5  -9    2.69    0.79
   1  -5   9    1.69    0.63
   1  -5   9    0.63    0.68
  -2   5  -9    0.65    0.76
  -2   5  -9   -0.09    0.68
   2  -5   9    1.22    0.72
   2  -5   9    1.36    0.64
  -3   5  -9    0.58    0.68
  -3   5  -9    1.23    0.76
   3  -5   9   -0.19    0.61
   3  -5   9    0.21    0.79
  -4   5  -9   -0.72    0.77
  -4   5  -9    2.80    0.67
   4  -5   9    1.28    0.69
  -5   5  -9    5.12    0.97
  -5   5  -9    6.97    1.13
   5  -5   9    5.91    1.00
  -6   5  -9    1.84    0.89
  -6   5  -9    1.23    0.78
   6  -5   9    1.65    0.82
   2   4  -9    2.03    0.86
   2   4  -9    2.02    0.81
   2   4  -9    1.49    0.69
  -2  -4   9    1.13    0.82
  -2  -4   9    2.68    0.82
   1   4  -9   -0.18    0.71
   1   4  -9    0.39    0.75
  -1  -4   9    0.08    0.72
  -1  -4   9   -0.39    0.70
  -1  -4   9    0.25    0.71
   0   4  -9    0.66    0.70
   0   4  -9   -0.35    0.60
   0  -4   9   -0.77    0.60
   0  -4   9    0.13    0.59
  -1   4  -9   -0.41    0.63
  -1   4  -9   -0.23    0.63
   1  -4   9   -0.79    0.74
   1  -4   9    0.40    0.59
  -2   4  -9    1.16    0.69
  -2   4  -9    0.39    0.54
   2  -4   9    1.06    0.61
   2  -4   9    0.62    0.60
  -3   4  -9    0.30    0.58
  -3   4  -9   -0.07    0.63
   3  -4   9    0.49    0.55
   3  -4   9    0.27    0.46
  -4   4  -9    6.80    1.16
  -4   4  -9    7.39    0.93
   4  -4   9    6.31    0.95
  -5   4  -9   -0.45    0.62
  -5   4  -9    1.49    0.61
   5  -4   9    0.85    0.71
  -6   4  -9    0.16    0.63
  -6   4  -9    0.13    0.72
   6  -4   9    0.82    0.67
  -7   4  -9    0.59    0.76
  -7   4  -9    2.04    0.81
   7  -4   9    0.35    0.82
   3   3  -9    1.02    0.72
   3   3  -9    3.72    0.92
   3   3  -9    4.24    1.02
  -3  -3   9    2.35    0.83
  -3  -3   9    1.16    0.76
  -3  -3   9    2.79    0.85
   2   3  -9    0.38    0.77
   2   3  -9    1.35    0.64
  -2  -3   9    0.09    0.67
  -2  -3   9    0.67    0.68
   1   3  -9    3.49    0.78
   1   3  -9    2.29    0.69
  -1  -3   9    4.23    0.70
  -1  -3   9    2.96    0.69
  -1  -3   9    4.49    0.75
   0   3  -9   -1.16    0.61
   0   3  -9   -0.60    0.53
   0  -3   9   -0.39    0.57
   0  -3   9   -0.65    0.55
  -1   3  -9   -0.32    0.56
  -1   3  -9    0.27    0.55
   1  -3   9   -0.57    0.48
   1  -3   9    0.47    0.47
  -2   3  -9   -0.10    0.53
  -2   3  -9    0.61    0.35
  -2   3  -9   -0.14    0.51
   2  -3   9   -0.14    0.50
  -3   3  -9    2.74    0.66
  -3   3  -9    2.57    0.67
   3  -3   9    1.05    0.91
   3  -3   9    2.02    0.46
  -4   3  -9   -0.20    0.52
  -4   3  -9   -0.90    0.53
   4  -3   9   -0.25    0.36
   4  -3   9    0.76    0.53
  -5   3  -9    1.69    0.57
  -5   3  -9    1.62    0.66
   5  -3   9    1.83    0.57
  -6   3  -9    0.11    0.59
  -6   3  -9    0.04    0.54
   6  -3   9   -0.92    0.59
   6  -3   9    0.43    0.41
  -7   3  -9    0.71    0.67
  -7   3  -9    0.33    0.66
   7  -3   9    0.27    0.71
  -8   3  -9    0.17    0.68
  -8   3  -9   -0.13    0.77
   8  -3   9   -1.11    0.81
   4   2  -9   -0.38    0.95
   4   2  -9    0.20    0.86
  -4  -2   9    0.10    1.02
  -4  -2   9    1.30    1.11
  -4  -2   9   -0.09    0.75
   3   2  -9    2.00    0.64
   3   2  -9    0.55    0.62
   3   2  -9    0.83    0.67
  -3  -2   9    0.94    0.62
  -3  -2   9    1.60    0.76
  -3  -2   9    0.34    0.67
   2   2  -9    1.75    0.65
   2   2  -9    2.77    0.69
  -2  -2   9    0.94    0.55
  -2  -2   9    1.36    0.67
   1   2  -9    1.58    0.56
   1   2  -9    0.37    0.53
  -1  -2   9    1.27    0.54
  -1  -2   9    1.68    0.65
   0   2  -9    0.77    0.52
   0   2  -9    1.37    0.52
   0  -2   9    0.59    0.43
   0  -2   9   -0.14    0.51
  -1   2  -9   -0.38    0.47
  -1   2  -9   -0.86    0.53
   1  -2   9    0.29    0.60
   1  -2   9    0.28    0.43
  -2   2  -9    0.19    0.47
  -2   2  -9   -0.26    0.33
  -2   2  -9   -0.46    0.43
   2  -2   9   -0.50    0.44
   2  -2   9   -0.05    0.42
  -3   2  -9    2.17    0.58
  -3   2  -9    1.38    0.57
   3  -2   9    1.13    0.40
   3  -2   9    0.64    0.55
   3  -2   9    1.78    0.33
  -4   2  -9   -0.53    0.52
   4  -2   9    0.12    0.31
   4  -2   9    0.21    0.73
   4  -2   9    0.10    0.45
  -5   2  -9    0.23    0.54
  -5   2  -9    0.27    0.49
   5  -2   9    0.45    0.34
   5  -2   9   -0.55    0.49
   5  -2   9    0.03    0.30
  -6   2  -9    0.36    0.59
  -6   2  -9   -0.53    0.72
   6  -2   9    0.47    0.54
   6  -2   9    0.07    0.43
  -7   2  -9    2.92    0.67
  -7   2  -9    2.62    0.67
   7  -2   9    3.70    0.75
  -8   2  -9    0.46    0.67
  -8   2  -9   -0.56    0.62
   8  -2   9    1.56    0.80
  -9   2  -9    2.01    1.08
   4   1  -9    1.35    0.70
   4   1  -9    0.09    0.84
  -4  -1   9    0.55    0.72
  -4  -1   9    0.06    0.83
  -4  -1   9    0.10    0.70
   3   1  -9    0.81    0.62
   3   1  -9   -0.68    0.58
  -3  -1   9    1.01    0.54
   2   1  -9    1.70    0.60
   2   1  -9    1.77    0.68
  -2  -1   9    0.32    0.56
  -2  -1   9    1.21    0.47
  -2  -1   9    1.05    0.58
   1   1  -9    1.11    0.51
   1   1  -9    0.94    0.52
  -1  -1   9    1.28    0.55
  -1  -1   9    1.58    0.51
   0   1  -9    0.98    0.58
   0   1  -9    1.58    0.57
   0  -1   9    2.15    0.60
   0  -1   9    1.92    0.44
  -1   1  -9    0.97    0.34
  -1   1  -9    1.71    0.49
  -1   1  -9    1.88    0.54
   1  -1   9    2.08    0.43
   1  -1   9    2.16    0.43
   1  -1   9    1.16    0.51
  -2   1  -9   11.03    0.98
  -2   1  -9    9.09    0.68
  -2   1  -9   10.47    0.91
   2  -1   9   10.49    0.85
   2  -1   9   10.14    0.88
  -3   1  -9    0.31    0.29
  -3   1  -9    1.75    0.53
   3  -1   9    0.61    0.26
   3  -1   9    1.19    0.37
   3  -1   9    0.58    0.41
  -4   1  -9   11.46    0.96
   4  -1   9    8.99    0.64
   4  -1   9    8.96    0.88
   4  -1   9    9.69    0.74
   4  -1   9    9.56    0.76
  -5   1  -9    0.65    0.50
   5  -1   9    0.88    0.52
   5  -1   9    1.32    0.33
   5  -1   9    0.86    0.34
  -6   1  -9    2.55    0.56
   6  -1   9    2.36    0.57
   7  -1   9    2.16    0.68
  -8   1  -9    0.81    0.60
  -8   1  -9    0.05    0.65
  -9   1  -9    2.10    0.87
  -9   1  -9   -0.51    0.70
   9  -1   9   -0.68    0.51
   5   0  -9    0.78    0.83
   5   0  -9   -1.90    1.34
  -5   0   9    0.21    0.90
  -5   0   9   -0.79    1.05
   4   0  -9    0.04    0.63
   4   0  -9    0.50    0.47
   4   0  -9    0.06    0.74
  -4   0   9   -1.23    0.70
   3   0  -9    1.12    0.63
   3   0  -9    0.95    0.63
  -3   0   9    1.16    0.46
   2   0  -9    1.33    0.56
   2   0  -9    0.82    0.56
  -2   0   9    1.80    0.55
  -2   0   9    2.61    0.58
  -2   0   9    2.22    0.46
   1   0  -9   14.60    1.14
   1   0  -9   14.04    1.10
  -1   0   9   12.87    1.08
  -1   0   9   12.24    0.88
  -1   0   9   13.49    1.07
   0   0  -9   -0.48    0.42
   0   0  -9    0.17    0.43
   0   0   9    1.09    0.34
   0   0   9   -0.19    0.45
  -1   0  -9    2.29    0.78
  -1   0  -9    2.47    0.40
   1   0   9    3.10    0.52
   1   0   9    3.53    0.63
   1   0   9    2.97    0.41
  -2   0  -9    3.47    0.56
  -2   0  -9    3.99    0.47
  -2   0  -9    3.74    0.65
   2   0   9    5.01    0.58
   2   0   9    4.69    0.60
  -3   0  -9   31.46    1.68
  -3   0  -9   32.02    1.73
   3   0   9   33.98    1.60
   3   0   9   33.06    1.52
   3   0   9   30.70    1.33
  -4   0  -9    3.10    0.60
  -4   0  -9    3.15    0.59
   4   0   9    2.34    0.47
   4   0   9    2.14    0.47
   4   0   9    2.62    0.41
  -5   0  -9   -0.65    0.37
  -5   0  -9    0.26    0.41
   5   0   9    0.71    0.32
   5   0   9    0.11    0.50
  -6   0  -9    0.04    0.46
  -6   0  -9   -0.68    0.44
   6   0   9    0.07    0.30
   6   0   9   -0.35    0.50
  -7   0  -9    3.25    0.56
  -8   0  -9    0.70    0.53
  -8   0  -9   -0.04    0.54
  -8   0  -9   -0.53    0.61
  -9   0  -9    0.82    0.65
  -9   0  -9   -0.97    0.75
   9   0   9    0.42    0.50
   5  -1  -9    0.16    0.63
   5  -1  -9   -0.13    0.75
  -5   1   9    0.16    0.79
   4  -1  -9    3.23    0.61
   4  -1  -9    2.63    0.69
   3  -1  -9    0.99    0.50
   3  -1  -9    0.90    0.55
  -3   1   9    0.09    0.53
  -3   1   9    0.73    0.61
  -3   1   9    0.81    0.37
   2  -1  -9    2.39    0.57
   2  -1  -9    1.71    0.53
  -2   1   9    2.75    0.63
  -2   1   9    2.39    0.58
  -2   1   9    1.35    0.40
   1  -1  -9    4.37    0.72
   1  -1  -9    4.56    0.76
  -1   1   9    4.80    0.73
  -1   1   9    4.68    0.50
   0  -1  -9   10.22    1.50
   0   1   9    9.83    0.68
   0   1   9   10.27    0.88
  -1  -1  -9    8.81    0.94
  -1  -1  -9    6.97    0.73
  -1  -1  -9    9.90    0.85
   1   1   9    8.79    0.65
   1   1   9   10.58    0.90
  -2  -1  -9   11.45    0.76
  -2  -1  -9   12.45    0.97
  -2  -1  -9   10.53    0.77
  -2  -1  -9   13.20    1.03
   2   1   9   11.66    0.70
   2   1   9   12.58    0.92
   2   1   9   11.39    0.78
  -3  -1  -9    0.24    0.50
  -3  -1  -9   -0.08    0.35
  -3  -1  -9    0.17    0.40
   3   1   9    0.00    0.32
   3   1   9    0.06    0.35
  -4  -1  -9    8.78    0.83
  -4  -1  -9    8.15    0.79
   4   1   9   11.24    1.30
   4   1   9    7.84    0.70
   4   1   9    7.57    0.72
  -5  -1  -9    2.71    0.52
  -5  -1  -9    4.26    0.70
   5   1   9    2.71    0.55
   5   1   9    2.25    0.40
   5   1   9    3.12    0.54
  -6  -1  -9    1.26    0.44
  -6  -1  -9    2.04    0.54
   6   1   9    1.41    0.34
  -7  -1  -9    0.76    0.45
  -8  -1  -9    0.32    0.49
  -8  -1  -9   -0.82    0.71
  -8  -1  -9    0.04    0.46
  -9  -1  -9    0.44    0.64
  -9  -1  -9   -0.17    0.80
   9   1   9    0.03    0.56
   5  -2  -9   -0.55    0.72
  -5   2   9   -0.44    0.65
  -5   2   9    0.01    0.80
   4  -2  -9    1.51    0.61
   4  -2  -9    1.81    0.43
   4  -2  -9    1.81    0.61
  -4   2   9    1.64    0.63
  -4   2   9    3.11    0.68
   3  -2  -9    3.95    0.62
   3  -2  -9    5.70    0.96
  -3   2   9    3.26    0.55
  -3   2   9    3.19    0.66
  -3   2   9    4.78    0.81
   2  -2  -9    6.86    1.03
   2  -2  -9    7.72    0.93
  -2   2   9    8.12    0.88
  -2   2   9    7.53    0.54
  -2   2   9    8.10    0.89
   1  -2  -9    9.83    0.93
   1  -2  -9    9.13    0.93
  -1   2   9    9.16    0.59
  -1   2   9    8.56    0.85
   0  -2  -9   -0.02    0.37
   0  -2  -9   -0.02    0.29
   0  -2  -9   -0.08    0.40
   0   2   9   -0.75    0.41
   0   2   9    0.17    0.22
  -1  -2  -9    1.45    0.30
  -1  -2  -9    2.15    0.46
  -1  -2  -9    1.00    0.39
   1   2   9    1.50    0.30
   1   2   9    1.86    0.43
  -2  -2  -9    5.16    0.52
  -2  -2  -9    6.34    0.70
  -2  -2  -9    4.16    0.63
   2   2   9    4.06    0.46
   2   2   9    5.08    0.69
   2   2   9    4.28    0.49
  -3  -2  -9    7.55    0.73
  -3  -2  -9    7.18    0.73
  -3  -2  -9    6.79    0.64
   3   2   9    6.70    0.62
   3   2   9    7.26    0.64
   3   2   9    6.91    0.48
  -4  -2  -9    1.58    0.40
  -4  -2  -9    2.12    0.51
   4   2   9    1.73    0.20
   4   2   9    2.63    0.49
   4   2   9    1.50    0.39
  -5  -2  -9    0.42    0.38
  -5  -2  -9    0.65    0.41
   5   2   9   -0.40    0.33
   5   2   9   -0.71    0.40
  -6  -2  -9    0.25    0.45
  -6  -2  -9   -0.06    0.38
   6   2   9    0.71    0.35
  -7  -2  -9    1.08    0.50
  -7  -2  -9    1.00    0.43
   7   2   9    1.11    0.33
  -8  -2  -9    4.00    0.88
  -8  -2  -9    5.03    0.87
  -8  -2  -9    5.51    0.74
  -9  -2  -9    1.90    0.87
  -9  -2  -9   -0.84    0.61
  -5   3   9    3.68    0.97
  -5   3   9    3.76    0.78
   4  -3  -9    8.50    0.95
   4  -3  -9    6.81    0.79
   4  -3  -9    6.55    0.80
  -4   3   9    6.47    0.94
  -4   3   9    6.34    1.10
   3  -3  -9    4.26    0.66
  -3   3   9    4.30    0.65
  -3   3   9    2.90    1.01
   2  -3  -9    1.40    0.54
   2  -3  -9    1.37    0.50
  -2   3   9    1.29    0.54
   1  -3  -9    0.48    0.43
   1  -3  -9    0.29    0.51
  -1   3   9   -0.38    0.39
   0  -3  -9    0.40    0.40
   0  -3  -9    0.85    0.42
   0   3   9    0.44    0.22
   0   3   9    0.42    0.39
  -1  -3  -9   19.44    1.05
  -1  -3  -9   20.52    1.20
  -1  -3  -9   20.47    1.24
   1   3   9   19.00    0.92
   1   3   9   20.13    1.04
   1   3   9   18.85    1.20
  -2  -3  -9    3.27    0.57
  -2  -3  -9    3.78    0.44
  -2  -3  -9    3.14    0.52
   2   3   9    3.49    0.43
   2   3   9    3.33    0.42
   2   3   9    3.03    0.50
  -3  -3  -9    1.44    0.31
  -3  -3  -9    0.76    0.39
  -3  -3  -9    1.81    0.47
   3   3   9    1.57    0.27
   3   3   9    1.57    0.39
  -4  -3  -9    2.23    0.48
  -4  -3  -9    2.10    0.44
  -4  -3  -9    2.63    0.44
   4   3   9    1.84    0.43
   4   3   9    2.25    0.30
  -5  -3  -9    1.81    0.44
  -5  -3  -9    0.56    0.42
   5   3   9    1.24    0.40
  -6  -3  -9    0.78    0.35
   6   3   9   -0.11    0.49
   6   3   9   -0.31    0.54
   6   3   9   -0.33    0.39
  -7  -3  -9    1.60    0.59
  -7  -3  -9    1.77    0.51
   7   3   9    2.18    0.43
  -8  -3  -9   -0.08    0.63
  -8  -3  -9    0.87    0.58
   8   3   9    0.15    0.46
  -9  -3  -9   -0.66    0.61
  -9  -3  -9    0.60    0.83
   9   3   9    0.59    0.71
   5  -4  -9   -0.12    0.77
  -5   4   9    0.96    0.81
  -5   4   9   -0.20    0.64
   4  -4  -9    0.41    0.44
   4  -4  -9    0.88    0.45
   4  -4  -9   -0.16    0.49
  -4   4   9    0.45    0.62
  -4   4   9    0.06    0.64
   3  -4  -9    0.02    0.39
   3  -4  -9    0.64    0.45
  -3   4   9    0.56    0.49
  -3   4   9    0.68    0.43
   2  -4  -9    2.58    0.50
  -2   4   9    2.14    0.56
   1  -4  -9    0.35    0.50
   1  -4  -9   -0.16    0.37
  -1   4   9    0.15    0.38
  -1   4   9    1.07    0.55
   0  -4  -9    7.38    0.85
   0  -4  -9    6.10    0.70
   0   4   9    5.99    0.68
   0   4   9    5.74    0.79
  -1  -4  -9    1.51    0.43
  -1  -4  -9    0.85    0.41
  -1  -4  -9    1.29    0.32
   1   4   9    0.88    0.38
   1   4   9    0.70    0.31
  -2  -4  -9    1.28    0.38
  -2  -4  -9    1.59    0.33
  -2  -4  -9    1.05    0.25
  -2  -4  -9    0.85    0.39
   2   4   9    1.49    0.39
   2   4   9    1.05    0.30
  -3  -4  -9   -0.09    0.35
  -3  -4  -9   -0.42    0.28
  -3  -4  -9   -0.07    0.36
  -3  -4  -9    0.06    0.32
   3   4   9   -0.30    0.33
   3   4   9   -0.05    0.23
  -4  -4  -9    5.71    0.65
  -4  -4  -9    7.23    0.78
  -4  -4  -9    6.74    0.79
   4   4   9    7.40    0.70
   4   4   9    6.34    0.50
  -5  -4  -9    1.88    0.46
   5   4   9    0.46    0.43
  -6  -4  -9   -0.35    0.41
  -6  -4  -9   -0.63    0.47
   6   4   9    0.44    0.39
   6   4   9    0.16    0.46
   6   4   9    0.17    0.18
  -7  -4  -9    0.91    0.58
  -7  -4  -9    1.29    0.55
   7   4   9    1.00    0.43
  -8  -4  -9    1.53    0.63
  -8  -4  -9    2.41    0.61
   8   4   9    0.36    0.42
  -9  -4  -9   -0.91    0.81
  -9  -4  -9   -0.12    0.70
   9   4   9   -0.25    0.55
  -5   5   9    4.37    0.92
  -5   5   9    6.22    1.01
  -5   5   9    6.01    1.06
   4  -5  -9   -0.20    0.48
   4  -5  -9    0.72    0.47
   4  -5  -9    0.70    0.49
  -4   5   9   -0.29    0.60
  -4   5   9    0.07    0.72
  -4   5   9    0.27    0.51
   3  -5  -9    1.12    0.43
   3  -5  -9    1.10    0.49
  -3   5   9    0.42    0.56
  -3   5   9    1.90    0.57
   2  -5  -9    3.26    0.55
  -2   5   9    3.28    0.67
  -2   5   9    3.51    0.64
   1  -5  -9    1.79    0.50
   1  -5  -9    2.61    0.45
  -1   5   9    3.00    0.62
  -1   5   9    2.95    0.55
   0  -5  -9    2.51    0.48
   0  -5  -9    1.52    0.39
   0   5   9    2.84    0.55
   0   5   9    2.62    0.50
  -1  -5  -9   18.69    0.78
  -1  -5  -9   17.56    1.13
  -1  -5  -9   18.30    1.04
  -1  -5  -9   19.07    1.09
   1   5   9   16.97    1.03
   1   5   9   18.93    1.16
  -2  -5  -9    6.05    0.56
  -2  -5  -9    5.01    0.46
  -2  -5  -9    6.14    0.76
  -2  -5  -9    6.23    0.73
   2   5   9    5.75    0.69
  -3  -5  -9    2.63    0.43
  -3  -5  -9    2.87    0.53
  -3  -5  -9    2.31    0.46
   3   5   9    3.47    0.44
   3   5   9    2.41    0.57
  -4  -5  -9    0.17    0.48
  -4  -5  -9   -0.35    0.37
   4   5   9   -0.14    0.25
  -5  -5  -9    7.27    0.81
  -5  -5  -9    6.53    0.85
   5   5   9    6.65    0.83
   5   5   9    6.02    0.56
  -6  -5  -9    3.14    0.56
   6   5   9    2.62    0.53
   6   5   9    4.05    0.53
  -7  -5  -9    1.96    0.56
  -7  -5  -9    2.67    0.66
   7   5   9    1.41    0.52
   7   5   9    1.37    0.47
  -8  -5  -9    0.43    0.55
  -8  -5  -9   -1.22    0.67
   8   5   9   -0.03    0.55
   8   5   9    0.19    0.45
  -9  -5  -9    0.18    0.84
  -9  -5  -9    1.47    0.80
   9   5   9    0.60    0.59
   5  -6  -9   -0.66    1.11
  -5   6   9   -0.06    0.79
  -5   6   9    1.30    0.89
   4  -6  -9   -0.96    0.46
  -4   6   9    0.92    0.68
  -4   6   9   -0.03    0.60
   3  -6  -9    2.63    0.57
   3  -6  -9    2.32    0.50
  -3   6   9    1.53    0.57
  -3   6   9    2.65    0.66
   2  -6  -9   14.09    1.01
   2  -6  -9   16.35    1.12
   2  -6  -9   16.62    1.04
  -2   6   9   13.25    1.12
  -2   6   9   15.11    1.12
   1  -6  -9   -0.22    0.35
  -1   6   9    0.90    0.47
  -1   6   9    0.54    0.47
   0  -6  -9   -0.12    0.32
   0  -6  -9    0.00    0.41
   0   6   9   -0.16    0.51
   0   6   9    0.15    0.36
  -1  -6  -9    2.96    0.51
  -1  -6  -9    3.66    0.59
  -1  -6  -9    2.72    0.25
   1   6   9    2.62    0.63
   1   6   9    2.26    0.44
  -2  -6  -9   -0.53    0.33
  -2  -6  -9    0.31    0.23
  -2  -6  -9   -0.57    0.36
  -2  -6  -9   -0.11    0.30
   2   6   9    0.03    0.33
   2   6   9    0.19    0.39
  -3  -6  -9    3.69    0.47
   3   6   9    3.48    0.58
   3   6   9    2.26    0.40
  -4  -6  -9   14.01    0.98
  -4  -6  -9   11.91    0.88
  -4  -6  -9   14.14    1.04
   4   6   9   14.39    0.84
   4   6   9   12.85    1.10
  -5  -6  -9   23.23    1.37
  -5  -6  -9   22.22    1.41
   5   6   9   21.48    1.10
   5   6   9   23.12    1.42
  -6  -6  -9    0.64    0.57
  -6  -6  -9    0.70    0.52
   6   6   9   -0.10    0.49
   6   6   9    0.18    0.35
  -7  -6  -9    4.85    0.77
  -7  -6  -9    6.24    0.90
   7   6   9    5.45    0.78
   7   6   9    7.60    0.91
  -8  -6  -9    1.88    0.73
  -8  -6  -9    1.14    0.69
   8   6   9    0.21    0.66
  -9  -6  -9    0.79    1.03
  -9  -6  -9   -0.49    0.90
   9   6   9    0.73    0.62
   5  -7  -9    4.09    0.86
   5  -7  -9    3.04    0.79
  -5   7   9    3.54    1.00
  -5   7   9    6.20    0.98
   4  -7  -9    5.57    0.77
   4  -7  -9    4.84    0.74
  -4   7   9    5.10    0.86
  -4   7   9    3.89    0.83
   3  -7  -9    0.06    0.43
   3  -7  -9    1.17    0.61
   3  -7  -9    0.44    0.56
  -3   7   9    1.06    0.64
  -3   7   9    0.84    0.58
   2  -7  -9    0.88    0.49
   2  -7  -9    0.09    0.40
  -2   7   9   -0.46    0.49
  -2   7   9    0.52    0.53
   1  -7  -9    5.67    0.71
  -1   7   9    4.43    0.78
  -1   7   9    5.32    0.76
   0  -7  -9    7.05    0.73
   0   7   9    7.65    0.89
   0   7   9    6.33    0.89
  -1  -7  -9    4.57    0.29
  -1  -7  -9    4.78    0.69
   1   7   9    5.89    0.69
   1   7   9    4.09    0.70
  -2  -7  -9    2.17    0.39
  -2  -7  -9    2.15    0.30
   2   7   9    2.48    0.47
   2   7   9    1.72    0.52
  -3  -7  -9    7.85    0.74
  -3  -7  -9    7.02    0.78
   3   7   9    7.54    0.73
   3   7   9    7.37    0.93
  -4  -7  -9    4.89    0.65
  -4  -7  -9    4.82    0.73
   4   7   9    4.34    0.80
   4   7   9    5.12    0.90
  -5  -7  -9    2.88    0.60
  -5  -7  -9    3.70    0.70
  -5  -7  -9    3.26    0.58
   5   7   9    5.81    0.90
   5   7   9    3.85    0.66
  -6  -7  -9   10.57    1.08
  -6  -7  -9   10.17    1.11
   6   7   9   11.17    1.10
   6   7   9   10.09    0.86
  -7  -7  -9    1.09    0.66
  -7  -7  -9    2.02    0.70
   7   7   9    1.15    0.54
   7   7   9    1.52    0.66
  -8  -7  -9    0.90    0.73
  -8  -7  -9   -0.81    0.75
   8   7   9    0.42    0.72
   8   7   9    0.52    0.59
   4  -8  -9    0.30    0.63
   4  -8  -9   -0.42    0.50
  -4   8   9    1.18    0.83
  -4   8   9   -0.13    0.75
   3  -8  -9    2.37    0.62
   3  -8  -9    2.37    0.47
  -3   8   9    2.35    0.76
  -3   8   9    2.65    0.68
   2  -8  -9    4.38    0.74
   2  -8  -9    4.32    0.71
  -2   8   9    3.78    0.66
  -2   8   9    3.64    0.75
   1  -8  -9    4.74    0.70
   1  -8  -9    3.08    0.61
  -1   8   9    3.18    0.69
  -1   8   9    4.65    0.77
   0  -8  -9    0.75    0.47
   0   8   9    1.17    0.49
   0   8   9    1.24    0.49
  -1  -8  -9    0.65    0.30
  -1  -8  -9    0.51    0.85
   1   8   9    1.09    0.55
   1   8   9    0.94    0.50
  -2  -8  -9   22.40    1.38
  -2  -8  -9   21.06    1.14
   2   8   9   22.66    1.40
   2   8   9   24.78    1.37
  -3  -8  -9    7.64    0.86
  -3  -8  -9    7.84    0.75
   3   8   9    9.29    0.88
   3   8   9    8.41    1.00
  -4  -8  -9    1.13    0.47
  -4  -8  -9    1.06    0.49
   4   8   9    1.52    0.45
   4   8   9    0.94    0.56
  -5  -8  -9    1.91    0.56
   5   8   9    1.86    0.47
   5   8   9    2.46    0.59
  -6  -8  -9    0.05    0.60
  -6  -8  -9   -0.36    0.55
   6   8   9    1.35    0.55
   6   8   9    0.03    0.56
  -7  -8  -9    0.89    0.65
  -7  -8  -9    0.77    0.73
   7   8   9    1.48    1.10
   7   8   9    0.54    0.68
  -8  -8  -9    0.40    0.97
  -8  -8  -9   -0.13    0.79
   8   8   9   -0.05    0.55
   8   8   9    1.12    0.90
   4  -9  -9    1.82    0.64
  -4   9   9    3.14    0.86
  -4   9   9    3.45    1.06
   3  -9  -9    3.01    0.54
   3  -9  -9    2.61    0.77
  -3   9   9    1.66    0.82
  -3   9   9    3.55    0.83
   2  -9  -9   -0.46    0.41
   2  -9  -9   -0.14    0.61
   2  -9  -9    0.55    0.48
  -2   9   9    0.07    0.65
  -2   9   9    0.10    0.71
   1  -9  -9    9.08    1.09
   1  -9  -9    8.54    0.92
  -1   9   9   11.92    1.33
  -1   9   9   10.34    1.02
   0  -9  -9   19.27    1.24
   0  -9  -9   18.50    1.36
   0   9   9   21.15    1.34
   0   9   9   20.86    1.34
  -1  -9  -9    2.85    0.48
  -1  -9  -9    2.58    0.58
   1   9   9    1.78    0.61
  -2  -9  -9    0.37    0.50
  -2  -9  -9    0.38    0.33
   2   9   9    0.52    0.52
   2   9   9    0.29    0.55
  -3  -9  -9    1.06    0.56
  -3  -9  -9    0.82    0.40
   3   9   9    1.11    0.53
   3   9   9    1.23    0.57
  -4  -9  -9    0.89    0.53
  -4  -9  -9    0.43    0.48
   4   9   9    1.58    0.63
   4   9   9    0.23    0.90
  -5  -9  -9    0.73    0.53
  -5  -9  -9   -0.51    0.57
   5   9   9   -0.60    0.60
   5   9   9    0.26    0.60
  -6  -9  -9    1.10    0.62
  -6  -9  -9    1.53    0.70
   6   9   9    1.60    0.67
   6   9   9    1.61    0.76
  -7  -9  -9    1.00    1.14
  -7  -9  -9    1.27    0.82
   7   9   9    0.19    0.81
   3 -10  -9    1.34    1.13
   3 -10  -9    0.62    0.72
  -3  10   9   -1.27    0.83
  -3  10   9   -0.07    0.79
   2 -10  -9    1.71    0.51
   2 -10  -9    2.14    0.67
  -2  10   9    1.68    0.79
  -2  10   9   -0.18    0.77
   1 -10  -9    5.27    0.67
   1 -10  -9    7.65    1.01
   1 -10  -9    6.83    0.87
  -1  10   9    6.64    1.01
  -1  10   9    6.51    1.02
   0 -10  -9    0.35    0.53
   0 -10  -9    0.84    0.58
   0 -10  -9   -0.08    0.36
   0  10   9    0.29    0.67
   0  10   9   -1.00    0.58
  -1 -10  -9    0.01    0.61
  -1 -10  -9    0.58    0.54
   1  10   9    0.73    0.60
   1  10   9   -1.03    0.58
  -2 -10  -9    1.13    0.57
  -2 -10  -9    1.58    0.57
  -2 -10  -9    1.91    0.64
   2  10   9    2.59    0.72
   2  10   9    0.76    0.60
  -3 -10  -9    3.66    0.67
  -3 -10  -9    4.17    0.58
   3  10   9    3.56    0.78
   3  10   9    2.58    0.67
  -4 -10  -9    1.22    0.71
  -4 -10  -9    1.02    0.54
   4  10   9    1.76    0.67
   4  10   9    1.67    0.63
  -5 -10  -9    0.38    0.65
  -5 -10  -9   -0.19    0.62
   5  10   9    1.05    0.63
   5  10   9    0.86    0.72
  -6 -10  -9    0.04    0.82
  -6 -10  -9   -0.83    0.68
   6  10   9   -0.50    0.82
   2 -11  -9    0.82    0.76
   2 -11  -9    0.23    0.51
  -2  11   9   -1.62    0.82
  -2  11   9    1.04    0.89
   1 -11  -9    0.23    0.43
   1 -11  -9   -0.12    0.69
  -1  11   9    0.23    0.75
  -1  11   9   -0.52    0.79
   0 -11  -9    0.80    0.65
   0 -11  -9    0.57    0.43
   0 -11  -9   -0.06    0.58
   0  11   9    0.14    0.74
   0  11   9    1.28    0.72
  -1 -11  -9    0.72    0.56
  -1 -11  -9    0.37    0.65
   1  11   9    0.90    0.70
   1  11   9   -0.14    0.67
  -2 -11  -9    0.10    0.64
  -2 -11  -9    1.13    0.61
   2  11   9   -0.85    0.71
   2  11   9    0.44    0.73
  -3 -11  -9   -0.92    0.60
  -3 -11  -9   -0.16    0.66
   3  11   9    0.78    0.81
  -4 -11  -9    0.21    0.74
  -4 -11  -9    0.57    0.74
   4  11   9    0.46    0.85
  -5 -11  -9    2.50    0.82
  -5 -11  -9    1.74    0.78
  -5 -11  -9    1.15    1.34
   5  11   9    2.29    0.99
   1 -12  -9    1.97    1.20
   1 -12  -9    0.47    0.58
  -1  12   9    2.06    0.99
  -1  12   9    0.93    1.16
   0 -12  -9    1.41    0.56
   0 -12  -9    1.74    0.92
   0 -12  -9    3.50    0.99
   0  12   9    2.21    0.89
   0  12   9    1.94    1.00
  -1 -12  -9    2.77    0.87
  -1 -12  -9    2.20    0.97
   1  12   9    2.60    0.85
   1  12   9    1.44    0.88
  -2 -12  -9    3.13    0.90
   2  12   9    0.38    0.84
   2  12   9    1.56    0.85
  -3 -12  -9   -0.71    0.78
  -3 -12  -9    0.27    0.81
   3  12   9    1.02    0.95
  -2   5 -10    0.43    1.15
  -2   5 -10    1.03    0.89
   2  -5  10    1.15    0.88
   2  -5  10    2.32    0.87
  -3   5 -10    2.09    0.91
  -3   5 -10    0.45    0.99
   3  -5  10    2.30    0.90
  -4   5 -10    1.26    0.93
  -4   5 -10    2.72    1.09
   4  -5  10    2.31    0.90
   0   4 -10    1.27    0.85
   0   4 -10    0.85    0.85
   0  -4  10    0.87    0.80
  -1   4 -10    0.61    0.79
  -1   4 -10   -0.62    0.70
   1  -4  10    1.24    0.76
  -2   4 -10    0.55    0.78
  -2   4 -10   -0.82    0.72
   2  -4  10   -1.23    0.66
   2  -4  10    0.17    0.74
  -3   4 -10    0.69    0.70
  -3   4 -10   -0.56    0.76
   3  -4  10    0.77    0.69
   3  -4  10   -0.49    0.65
  -4   4 -10   -0.26    0.75
  -4   4 -10    0.18    0.74
   4  -4  10   -0.97    0.74
  -5   4 -10    0.06    0.84
  -5   4 -10    0.14    0.74
   5  -4  10   -1.13    0.82
  -6   4 -10    1.25    0.87
  -6   4 -10    0.98    0.95
   6  -4  10    4.19    1.41
   1   3 -10    4.52    0.89
   1   3 -10    5.00    0.96
  -1  -3  10    2.89    0.76
  -1  -3  10    3.82    0.80
   0   3 -10    2.22    0.75
   0   3 -10    2.67    0.79
   0  -3  10    2.57    1.28
   0  -3  10    2.68    0.66
  -1   3 -10    0.84    0.72
  -1   3 -10   -1.38    0.68
   1  -3  10    0.59    0.58
   1  -3  10    0.37    0.60
  -2   3 -10   -0.40    0.59
  -2   3 -10    1.00    0.68
   2  -3  10    0.33    0.61
  -3   3 -10    2.22    0.73
  -3   3 -10    3.96    1.14
   3  -3  10    1.98    0.61
   3  -3  10    1.22    0.56
  -4   3 -10    0.16    0.57
  -4   3 -10    0.22    0.66
   4  -3  10    0.41    0.51
   4  -3  10   -0.42    0.66
  -5   3 -10    1.81    0.64
  -5   3 -10    3.41    0.79
   5  -3  10    2.05    0.77
  -6   3 -10    1.09    0.77
   6  -3  10    0.45    0.79
  -7   3 -10    0.74    0.83
  -7   3 -10    0.86    0.80
   7  -3  10    0.37    0.90
   2   2 -10    0.31    0.83
   2   2 -10   -1.15    0.74
  -2  -2  10   -0.34    0.87
  -2  -2  10    0.23    0.65
  -2  -2  10    1.19    0.74
   1   2 -10    0.86    0.69
   1   2 -10    1.43    0.70
  -1  -2  10    1.32    0.73
  -1  -2  10    0.55    0.61
   0   2 -10    0.16    0.61
   0   2 -10   -0.75    0.59
   0  -2  10    0.09    0.56
   0  -2  10    1.31    0.55
  -1   2 -10    0.42    0.58
  -1   2 -10    0.21    0.60
   1  -2  10   -0.60    0.56
   1  -2  10    0.35    0.52
  -2   2 -10    0.72    0.37
  -2   2 -10    0.33    0.60
  -2   2 -10   -0.78    0.57
   2  -2  10    0.35    0.53
   2  -2  10    1.19    0.57
  -3   2 -10    0.86    0.59
  -3   2 -10    0.43    0.51
   3  -2  10    0.56    0.50
   3  -2  10    0.97    0.55
  -4   2 -10    0.72    0.59
  -4   2 -10    0.94    0.61
   4  -2  10    0.65    0.60
   4  -2  10    0.92    0.46
  -5   2 -10   -0.49    0.57
  -5   2 -10   -0.67    0.59
   5  -2  10    0.29    0.66
  -6   2 -10    0.78    0.61
  -6   2 -10    1.50    0.69
   6  -2  10    0.12    0.66
  -7   2 -10    1.92    0.78
  -7   2 -10   -0.67    0.63
   7  -2  10    0.04    0.73
  -8   2 -10   -1.14    0.79
   8  -2  10   -0.24    1.03
   3   1 -10    3.55    0.86
   3   1 -10    2.58    0.65
  -3  -1  10    3.75    0.90
  -3  -1  10    4.68    0.89
   2   1 -10    2.67    0.78
   2   1 -10    2.47    0.71
  -2  -1  10    2.32    0.75
  -2  -1  10    2.33    0.71
  -2  -1  10    1.88    1.02
   1   1 -10    0.00    0.64
   1   1 -10    0.89    0.70
  -1  -1  10    0.16    0.62
  -1  -1  10    0.55    0.52
   0   1 -10    1.85    0.62
   0   1 -10    1.61    0.61
   0  -1  10    0.82    0.49
   0  -1  10    2.80    0.67
  -1   1 -10    0.12    0.53
  -1   1 -10   -0.50    0.55
   1  -1  10   -0.87    0.49
   1  -1  10   -0.08    0.48
  -2   1 -10    3.84    0.75
  -2   1 -10    4.62    0.83
  -2   1 -10    3.94    0.54
   2  -1  10    3.06    0.64
   2  -1  10    3.51    0.59
  -3   1 -10    3.56    0.62
  -3   1 -10    2.11    0.58
   3  -1  10    3.45    0.61
   3  -1  10    2.48    0.55
  -4   1 -10   13.23    1.33
  -4   1 -10   14.40    1.16
   4  -1  10   10.97    0.90
   4  -1  10   14.26    1.13
   4  -1  10   12.95    1.05
  -5   1 -10    0.59    0.56
  -5   1 -10    0.30    0.46
   5  -1  10   -0.66    0.41
   5  -1  10   -0.03    0.53
   5  -1  10    0.17    0.38
  -6   1 -10   -0.14    0.59
  -6   1 -10   -0.34    0.55
   6  -1  10    1.10    0.67
   6  -1  10    0.11    0.39
  -7   1 -10    0.79    0.65
   7  -1  10   -0.93    0.66
  -8   1 -10    4.03    0.84
  -8   1 -10    3.09    0.78
   3   0 -10    1.68    0.52
   3   0 -10    2.84    0.80
   3   0 -10    2.80    0.75
  -3   0  10    2.45    0.90
  -3   0  10    3.23    0.80
   2   0 -10    1.62    0.64
   2   0 -10    0.15    0.57
  -2   0  10   -0.25    0.48
  -2   0  10    0.99    0.72
  -2   0  10    0.05    0.57
   1   0 -10   -0.54    0.53
   1   0 -10   -0.20    0.61
  -1   0  10    0.59    0.54
  -1   0  10   -0.07    0.41
   0   0 -10    0.08    0.52
   0   0 -10   -0.32    0.49
   0   0  10    0.50    0.56
   0   0  10   -0.14    0.38
  -1   0 -10    2.13    0.59
  -1   0 -10    1.98    0.55
   1   0  10    2.04    0.55
   1   0  10    2.62    0.48
  -2   0 -10   -0.55    0.53
  -2   0 -10   -0.24    0.44
  -2   0 -10   -0.77    0.49
   2   0  10   -0.05    0.72
   2   0  10    0.42    0.39
  -3   0 -10   20.19    1.33
  -3   0 -10   20.06    1.37
   3   0  10   21.30    1.28
   3   0  10   21.25    1.25
  -4   0 -10   10.92    1.08
  -4   0 -10    9.64    0.90
   4   0  10    8.95    0.82
  -5   0 -10    2.85    0.65
  -5   0 -10    2.93    0.63
   5   0  10    3.17    0.50
   5   0  10    3.17    0.68
  -6   0 -10    0.46    0.60
  -6   0 -10    0.20    0.56
   6   0  10    0.90    0.55
   6   0  10    1.32    0.60
  -7   0 -10    2.31    0.72
  -7   0 -10    2.45    0.65
  -8   0 -10    0.43    0.66
  -8   0 -10    0.35    0.67
  -9   0 -10   -0.75    0.76
  -9   0 -10    0.75    1.99
   4  -1 -10    1.29    0.77
   4  -1 -10    0.63    0.62
   4  -1 -10    1.81    0.80
  -4   1  10    1.02    0.84
  -4   1  10    1.09    0.85
   3  -1 -10   -0.72    0.58
   3  -1 -10    0.63    0.77
   3  -1 -10   -0.02    0.68
  -3   1  10   -0.74    0.69
  -3   1  10    1.20    0.68
   2  -1 -10    4.49    0.75
   2  -1 -10    6.25    1.10
  -2   1  10    5.64    0.68
  -2   1  10    5.06    0.83
  -2   1  10    5.65    0.93
   1  -1 -10    2.85    0.64
   1  -1 -10    2.78    0.62
  -1   1  10    3.30    0.57
  -1   1  10    3.14    0.66
   0  -1 -10    0.48    0.49
   0  -1 -10    0.30    0.47
   0   1  10    0.20    0.47
   0   1  10   -0.01    0.32
  -1  -1 -10   17.14    1.33
  -1  -1 -10   20.04    1.35
   1   1  10   21.07    1.12
   1   1  10   22.37    1.34
   1   1  10   21.69    1.17
  -2  -1 -10   17.88    1.35
  -2  -1 -10   17.35    0.98
  -2  -1 -10   17.27    1.20
   2   1  10   17.72    1.21
   2   1  10   18.38    1.05
  -3  -1 -10    0.89    0.46
  -3  -1 -10    1.24    0.51
   3   1  10    0.95    0.47
   3   1  10    0.96    0.41
   3   1  10    1.75    0.31
   3   1  10    1.72    0.33
  -4  -1 -10    1.85    0.51
  -4  -1 -10    1.48    0.51
   4   1  10    0.99    0.46
   4   1  10    0.46    0.47
  -5  -1 -10    0.45    0.52
   5   1  10   -0.11    0.52
   5   1  10   -0.10    0.41
  -6  -1 -10    1.07    0.56
   6   1  10    1.01    0.41
  -7  -1 -10    0.19    0.58
  -7  -1 -10   -0.13    0.53
  -8  -1 -10    2.03    0.65
  -8  -1 -10    1.01    0.66
  -9  -1 -10   -0.16    0.94
  -9  -1 -10    1.17    1.23
   9   1  10    1.15    0.58
  -4   2  10    4.74    0.86
  -4   2  10    4.00    0.99
   3  -2 -10    3.28    0.72
  -3   2  10    5.96    1.04
  -3   2  10    4.97    1.19
   2  -2 -10    0.15    0.52
   2  -2 -10   -0.24    0.57
  -2   2  10    0.15    0.62
   1  -2 -10    6.32    0.96
   1  -2 -10    6.39    0.97
  -1   2  10    5.91    0.56
  -1   2  10    6.12    0.87
   0  -2 -10    6.28    0.86
   0  -2 -10    4.82    0.82
   0   2  10    5.93    0.82
   0   2  10    6.30    0.55
  -1  -2 -10   14.81    1.18
  -1  -2 -10   14.88    1.17
   1   2  10   12.22    0.81
   1   2  10   13.64    0.93
   1   2  10   14.33    1.06
  -2  -2 -10    0.89    0.55
  -2  -2 -10    1.29    0.51
  -2  -2 -10    0.96    0.45
   2   2  10    1.52    0.36
   2   2  10    1.41    0.32
   2   2  10    1.68    0.52
  -3  -2 -10    1.64    0.51
   3   2  10    1.55    0.29
   3   2  10    1.61    0.30
   3   2  10    1.86    0.43
   3   2  10    2.07    0.52
  -4  -2 -10    0.85    0.49
  -4  -2 -10   -0.11    0.42
   4   2  10    0.15    0.18
   4   2  10    0.48    0.44
   4   2  10    0.25    0.45
   4   2  10    0.20    0.15
  -5  -2 -10    4.17    0.64
  -5  -2 -10    4.31    0.68
   5   2  10    5.06    0.72
  -6  -2 -10   -0.11    0.50
  -6  -2 -10   -0.22    0.51
   6   2  10   -0.14    0.42
  -7  -2 -10    2.17    0.56
  -7  -2 -10    1.63    0.53
  -8  -2 -10    1.47    0.62
  -8  -2 -10    1.69    0.78
  -8  -2 -10    2.08    0.59
   8   2  10    1.38    0.47
  -9  -2 -10   -0.39    0.98
  -9  -2 -10    0.31    0.69
   9   2  10    0.43    0.62
   4  -3 -10    1.40    0.57
   4  -3 -10    1.81    0.73
  -4   3  10    2.66    0.72
  -4   3  10    2.46    0.88
   3  -3 -10    0.84    0.47
   3  -3 -10    1.61    0.59
  -3   3  10    1.60    0.57
  -3   3  10    1.04    0.68
   2  -3 -10    4.01    0.73
   2  -3 -10    3.34    0.59
  -2   3  10    3.64    0.73
   1  -3 -10    8.80    0.89
   1  -3 -10    8.30    0.95
  -1   3  10    7.82    0.58
  -1   3  10    8.39    0.93
   0  -3 -10    0.73    0.50
   0  -3 -10    0.85    0.51
   0   3  10    0.43    0.25
   0   3  10    1.73    0.49
  -1  -3 -10    6.51    0.90
  -1  -3 -10    6.51    0.80
   1   3  10    5.82    0.67
   1   3  10    5.78    0.80
   1   3  10    6.17    0.54
  -2  -3 -10    1.88    0.57
  -2  -3 -10    2.84    0.57
  -2  -3 -10    1.65    0.34
   2   3  10    2.33    0.59
   2   3  10    2.33    0.37
   2   3  10    2.28    0.37
  -3  -3 -10    8.25    0.59
  -3  -3 -10    6.75    0.69
  -3  -3 -10    7.80    0.93
  -3  -3 -10    6.80    1.00
   3   3  10    8.39    0.56
   3   3  10    6.49    0.89
  -4  -3 -10   -0.10    0.48
  -4  -3 -10   -0.25    0.86
   4   3  10    0.72    0.46
  -5  -3 -10    0.96    0.44
  -5  -3 -10    0.77    0.49
   5   3  10   -0.12    0.45
  -6  -3 -10    2.07    0.75
  -6  -3 -10    0.82    0.47
   6   3  10    0.78    0.45
  -7  -3 -10   -0.01    0.57
  -7  -3 -10    0.81    0.51
  -7  -3 -10   -0.69    0.47
   7   3  10   -0.13    0.45
  -8  -3 -10   -0.27    0.70
  -8  -3 -10   -0.18    0.60
   8   3  10    0.27    0.47
  -9  -3 -10    1.82    0.76
  -9  -3 -10    0.75    1.00
   9   3  10    0.46    0.63
   4  -4 -10    1.95    0.69
   4  -4 -10    2.77    0.72
  -4   4  10    2.36    0.80
  -4   4  10    2.60    0.70
   3  -4 -10    0.09    0.50
   3  -4 -10    0.47    0.47
   3  -4 -10    0.39    0.55
  -3   4  10    0.34    0.63
   2  -4 -10    0.69    0.44
  -2   4  10    0.71    0.60
   1  -4 -10   -0.18    0.48
   1  -4 -10   -0.07    0.50
  -1   4  10    0.26    0.50
   0  -4 -10    2.45    0.57
   0  -4 -10    3.48    0.61
   0   4  10    3.15    0.53
   0   4  10    3.00    0.57
  -1  -4 -10    0.35    0.43
  -1  -4 -10    0.18    0.46
   1   4  10    0.26    0.37
  -2  -4 -10   19.41    1.92
  -2  -4 -10   22.22    1.34
   2   4  10   21.59    1.11
  -3  -4 -10    2.95    0.57
  -3  -4 -10    2.30    0.39
  -3  -4 -10    2.60    0.40
  -3  -4 -10    2.42    0.54
   3   4  10    2.30    0.35
   3   4  10    2.42    0.52
  -4  -4 -10    1.40    0.47
  -4  -4 -10    0.93    0.48
   4   4  10    0.95    0.46
   4   4  10    0.92    0.29
  -5  -4 -10    6.07    0.78
  -5  -4 -10    4.39    0.69
   5   4  10    5.06    0.45
   5   4  10    5.49    0.72
  -6  -4 -10    6.62    0.82
  -6  -4 -10    5.11    0.80
   6   4  10    6.64    0.86
  -7  -4 -10    0.33    0.61
  -7  -4 -10   -0.08    0.50
   7   4  10   -0.45    0.51
   7   4  10    0.51    0.46
  -8  -4 -10    1.32    0.80
  -8  -4 -10    1.63    0.65
   8   4  10    1.55    0.63
  -9  -4 -10    0.45    1.00
  -9  -4 -10   -0.70    0.76
   9   4  10    1.12    0.65
   4  -5 -10    0.06    0.82
  -4   5  10    0.76    0.73
  -4   5  10    0.44    0.80
   3  -5 -10    1.27    0.41
   3  -5 -10    0.49    0.61
  -3   5  10    0.50    0.66
  -3   5  10    0.13    0.70
   2  -5 -10    0.40    0.51
  -2   5  10   -0.51    0.53
  -2   5  10   -0.71    0.56
   1  -5 -10    1.46    0.50
  -1   5  10    3.00    0.60
  -1   5  10    1.31    0.57
   0  -5 -10    1.05    0.55
   0   5  10    1.40    0.53
   0   5  10    2.06    0.48
  -1  -5 -10    2.15    0.53
   1   5  10    2.39    0.45
   1   5  10    1.44    0.56
  -2  -5 -10    0.19    0.28
  -2  -5 -10    0.50    0.46
   2   5  10   -0.07    0.43
   2   5  10    0.55    0.32
  -3  -5 -10    1.90    0.36
  -3  -5 -10    2.83    0.60
   3   5  10    2.62    0.37
   3   5  10    2.35    0.58
  -4  -5 -10    3.77    0.63
  -4  -5 -10    3.30    0.56
  -4  -5 -10    3.14    0.58
   4   5  10    3.65    0.51
  -5  -5 -10    0.98    0.57
   5   5  10    1.32    0.51
   5   5  10    1.82    0.34
  -6  -5 -10    0.51    0.58
  -6  -5 -10    0.61    0.56
   6   5  10    1.01    0.56
  -7  -5 -10    0.77    0.61
  -7  -5 -10    1.95    0.58
   7   5  10    0.45    0.60
  -8  -5 -10    2.93    0.82
  -8  -5 -10    1.29    0.66
   8   5  10    2.42    0.96
  -9  -5 -10    0.96    0.86
  -9  -5 -10    0.36    1.36
   9   5  10   -0.72    0.55
   4  -6 -10    3.00    0.79
  -4   6  10    2.60    0.97
  -4   6  10    5.05    0.97
   3  -6 -10    0.15    0.58
   3  -6 -10   -0.28    0.55
   3  -6 -10    0.22    0.42
  -3   6  10    0.87    0.68
  -3   6  10    1.55    0.77
   2  -6 -10    0.58    0.66
  -2   6  10    0.09    0.57
  -2   6  10    0.58    0.67
   1  -6 -10   -0.53    0.52
  -1   6  10   -0.25    0.49
  -1   6  10   -0.41    0.50
   0  -6 -10   11.84    1.03
   0   6  10   10.77    0.95
   0   6  10   11.12    1.02
  -1  -6 -10    3.59    0.66
   1   6  10    4.23    0.61
   1   6  10    3.24    0.61
  -2  -6 -10    4.37    0.44
  -2  -6 -10    5.57    0.85
   2   6  10    4.49    0.70
   2   6  10    4.89    0.69
  -3  -6 -10    5.33    0.89
   3   6  10    5.54    0.67
   3   6  10    5.91    0.83
  -4  -6 -10    0.55    0.53
  -4  -6 -10    0.51    0.48
   4   6  10    0.54    0.50
   4   6  10    0.22    0.34
  -5  -6 -10    3.31    0.62
  -5  -6 -10    3.19    0.64
   5   6  10    1.59    0.58
  -6  -6 -10   10.70    1.20
  -6  -6 -10   14.65    1.11
   6   6  10   11.56    1.08
   6   6  10   12.14    0.87
  -7  -6 -10   13.01    1.15
  -7  -6 -10   12.05    1.32
   7   6  10   12.66    1.22
  -8  -6 -10    0.73    0.77
  -8  -6 -10    0.97    0.84
   8   6  10    0.68    0.61
   4  -7 -10    0.19    0.71
   4  -7 -10    0.42    0.65
  -4   7  10    1.04    0.90
  -4   7  10    1.06    0.87
   3  -7 -10    0.63    0.60
   3  -7 -10    0.95    0.45
   3  -7 -10    0.42    0.62
  -3   7  10    1.34    0.79
  -3   7  10   -0.28    0.73
   2  -7 -10    1.70    0.44
   2  -7 -10    1.41    0.62
   2  -7 -10    1.76    0.57
  -2   7  10    2.48    0.67
  -2   7  10    1.05    0.61
   1  -7 -10    0.68    0.86
  -1   7  10    1.33    0.56
  -1   7  10    1.38    0.56
   0  -7 -10    0.58    0.47
   0   7  10    2.06    0.59
   0   7  10    0.50    0.54
  -1  -7 -10    0.14    0.43
  -1  -7 -10   -0.49    0.44
   1   7  10   -0.14    0.46
   1   7  10    0.52    0.49
  -2  -7 -10    0.03    0.49
   2   7  10    0.75    0.44
   2   7  10    0.51    0.58
  -3  -7 -10    0.07    0.55
   3   7  10    1.38    0.57
   3   7  10    0.30    0.42
  -4  -7 -10   -0.29    0.46
  -4  -7 -10    0.19    0.45
   4   7  10    0.27    0.51
   4   7  10    0.38    0.40
  -5  -7 -10    1.74    0.67
  -5  -7 -10    1.65    0.55
   5   7  10    1.95    0.62
   5   7  10    1.91    0.43
  -6  -7 -10    1.02    0.59
   6   7  10    1.49    0.51
   6   7  10    2.13    0.69
  -7  -7 -10    0.44    0.71
  -7  -7 -10    0.99    0.73
   7   7  10    0.79    0.69
  -8  -7 -10    2.10    0.86
  -8  -7 -10    0.39    0.81
   8   7  10    1.88    0.68
   8   7  10    1.31    0.82
   4  -8 -10    1.16    0.68
   4  -8 -10    2.29    0.85
  -4   8  10    2.45    1.27
  -4   8  10    2.88    0.93
   3  -8 -10    2.81    0.72
   3  -8 -10    2.11    0.50
  -3   8  10    3.31    0.85
  -3   8  10    2.39    0.87
   2  -8 -10    0.31    0.43
   2  -8 -10    1.02    0.61
   2  -8 -10    0.71    0.54
  -2   8  10    0.34    0.70
  -2   8  10    2.40    0.79
   1  -8 -10    4.33    1.07
   1  -8 -10    4.24    0.74
  -1   8  10    4.23    0.74
  -1   8  10    3.24    0.78
   0  -8 -10    3.37    0.61
   0   8  10    3.32    0.71
   0   8  10    3.97    0.65
  -1  -8 -10    9.48    0.99
   1   8  10    9.11    0.97
   1   8  10    9.53    0.99
  -2  -8 -10   -0.33    0.48
  -2  -8 -10   -0.26    0.37
   2   8  10    0.41    0.54
   2   8  10   -0.54    0.46
  -3  -8 -10   -0.03    0.42
  -3  -8 -10    0.53    0.48
   3   8  10    0.12    0.49
   3   8  10   -0.43    0.50
  -4  -8 -10   11.00    1.04
  -4  -8 -10   12.26    1.05
   4   8  10   11.32    1.08
   4   8  10    9.49    0.96
  -5  -8 -10   10.68    1.15
  -5  -8 -10    9.46    1.06
   5   8  10    9.45    1.05
   5   8  10   10.35    0.97
  -6  -8 -10   -0.03    0.71
  -6  -8 -10    0.65    0.58
   6   8  10   -0.62    0.62
   6   8  10   -0.07    0.63
  -7  -8 -10    2.01    0.80
  -7  -8 -10    0.35    0.69
   3  -9 -10    0.57    0.61
  -3   9  10    0.59    0.88
  -3   9  10    0.55    0.87
   2  -9 -10    3.84    0.75
   2  -9 -10    3.57    0.63
   2  -9 -10    3.45    0.72
  -2   9  10    4.24    0.86
  -2   9  10    5.30    0.86
   1  -9 -10    7.41    0.99
   1  -9 -10    8.12    1.00
   1  -9 -10    7.01    0.84
  -1   9  10    7.12    1.04
  -1   9  10    6.78    1.14
   0  -9 -10    1.57    0.58
   0  -9 -10    4.17    0.78
   0   9  10    5.87    0.98
   0   9  10    2.75    0.71
  -1  -9 -10    2.01    0.58
  -1  -9 -10    1.91    0.42
   1   9  10    2.40    0.62
   1   9  10    1.41    0.62
  -2  -9 -10    2.42    0.47
  -2  -9 -10    2.50    0.58
   2   9  10    2.47    0.66
   2   9  10    3.05    0.67
  -3  -9 -10    0.63    0.46
  -3  -9 -10    0.99    0.55
   3   9  10    0.20    0.57
   3   9  10    0.26    0.60
  -4  -9 -10    0.79    0.56
  -4  -9 -10    0.52    0.66
   4   9  10    1.08    0.58
   4   9  10   -0.86    0.74
  -5  -9 -10    0.01    0.68
  -5  -9 -10    0.51    0.59
   5   9  10    0.66    0.75
   5   9  10    1.06    0.63
  -6  -9 -10    1.06    0.75
  -6  -9 -10    1.32    1.02
   6   9  10    0.71    0.73
   6   9  10    1.43    0.79
  -7  -9 -10    0.10    0.96
   2 -10 -10    1.20    0.80
   2 -10 -10    0.55    0.70
  -2  10  10    2.11    0.94
  -2  10  10    0.14    0.85
   1 -10 -10    0.70    0.50
   1 -10 -10    0.28    0.67
   1 -10 -10   -0.63    0.62
  -1  10  10    0.70    0.79
  -1  10  10    0.88    0.85
   0 -10 -10    0.64    0.41
   0 -10 -10    0.67    0.90
   0  10  10    1.21    0.71
   0  10  10    0.83    0.65
  -1 -10 -10    3.10    0.75
  -1 -10 -10    3.62    0.69
   1  10  10    3.48    0.74
   1  10  10    1.30    1.01
  -2 -10 -10    0.25    0.61
  -2 -10 -10   -0.56    0.60
   2  10  10    0.84    0.75
   2  10  10    2.19    0.66
  -3 -10 -10    0.41    0.61
  -3 -10 -10    1.03    0.68
   3  10  10    0.83    0.65
   3  10  10    0.74    0.67
  -4 -10 -10    1.94    0.63
  -4 -10 -10    1.75    0.77
   4  10  10    1.59    0.72
   4  10  10    1.36    0.63
  -5 -10 -10    0.27    0.80
  -5 -10 -10    0.43    0.65
   5  10  10    1.94    0.71
   5  10  10   -0.60    0.84
  -6 -10 -10    0.71    0.76
  -6 -10 -10    0.52    1.02
   6  10  10   -0.18    0.82
   1 -11 -10    1.91    0.84
   1 -11 -10    2.60    0.69
  -1  11  10    2.04    0.89
  -1  11  10    2.10    0.94
   0 -11 -10    0.64    0.80
   0 -11 -10    0.57    0.65
   0  11  10    2.72    0.88
   0  11  10    1.67    0.89
  -1 -11 -10   -0.85    0.68
  -1 -11 -10   -0.17    0.42
   1  11  10    0.00    0.76
  -2 -11 -10   -0.54    0.80
  -2 -11 -10    1.44    0.77
   2  11  10    0.72    0.78
   2  11  10    0.48    0.76
  -3 -11 -10   -0.75    0.78
   3  11  10   -0.34    0.84
  -4 -11 -10    0.92    0.74
  -4 -11 -10   -0.08    0.81
   4  11  10   -1.25    0.85
  -1   3 -11    1.52    0.93
  -1   3 -11    2.34    0.96
   1  -3  11    3.61    0.83
  -2   3 -11    0.79    0.89
  -2   3 -11    1.16    0.84
   2  -3  11    1.20    0.80
   2  -3  11    1.18    0.76
  -3   3 -11   -0.23    1.21
  -3   3 -11    0.11    0.84
   3  -3  11   -0.70    0.71
   3  -3  11   -0.11    0.76
  -4   3 -11    0.74    0.85
   4  -3  11   -0.74    0.77
  -5   3 -11    0.20    0.92
  -5   3 -11    0.26    0.80
   5  -3  11    1.04    0.83
   1   2 -11   -0.16    0.97
   1   2 -11    1.51    1.41
  -1  -2  11    1.49    0.83
  -1  -2  11    1.82    0.93
   0   2 -11   -0.25    0.79
   0   2 -11    0.74    0.86
   0  -2  11   -0.61    0.70
  -1   2 -11    3.78    0.89
  -1   2 -11    1.07    0.83
   1  -2  11    1.83    0.72
   1  -2  11    2.02    0.66
  -2   2 -11    1.97    0.80
  -2   2 -11    0.49    0.77
   2  -2  11    0.56    0.92
   2  -2  11    1.17    0.79
  -3   2 -11    1.38    0.70
  -3   2 -11    1.00    0.65
   3  -2  11    1.20    0.70
   3  -2  11    0.38    0.63
  -4   2 -11    1.41    0.77
  -4   2 -11    0.87    0.66
   4  -2  11    1.71    0.69
   4  -2  11    2.49    0.79
  -5   2 -11    1.65    0.81
  -5   2 -11    0.36    0.75
   5  -2  11    0.37    0.80
  -6   2 -11    0.88    0.79
  -6   2 -11   -0.41    0.86
   6  -2  11    0.22    1.03
  -7   2 -11    2.44    0.85
  -7   2 -11   -0.84    0.92
   7  -2  11    2.37    1.05
   2   1 -11   -0.15    0.83
   1   1 -11    3.08    0.91
   1   1 -11    1.76    0.92
  -1  -1  11    4.02    0.93
  -1  -1  11    4.83    0.79
   0   1 -11   -0.56    0.66
   0   1 -11   -0.86    0.69
   0  -1  11    0.70    0.74
   0  -1  11    1.16    0.62
  -1   1 -11   -1.26    0.68
  -1   1 -11    0.13    0.64
   1  -1  11    0.29    0.58
   1  -1  11    0.54    0.67
  -2   1 -11    0.71    0.75
  -2   1 -11    0.67    0.58
   2  -1  11    1.32    0.60
   2  -1  11    1.13    0.59
  -3   1 -11    1.75    0.67
  -3   1 -11    0.93    0.64
   3  -1  11    0.76    0.58
   3  -1  11    0.87    0.61
  -4   1 -11   -0.22    0.63
  -4   1 -11    0.31    0.64
   4  -1  11    0.96    0.43
   4  -1  11   -0.16    0.62
   4  -1  11    0.13    0.56
  -5   1 -11    1.64    0.70
  -5   1 -11    1.53    0.64
   5  -1  11    2.43    0.70
   5  -1  11    1.68    0.47
  -6   1 -11    8.80    1.24
  -6   1 -11   12.14    1.45
   6  -1  11   11.93    1.28
  -7   1 -11    3.40    0.78
   7  -1  11    4.47    0.99
   2   0 -11    0.49    0.50
   2   0 -11    0.25    0.85
   2   0 -11   -1.00    0.73
  -2   0  11    0.95    0.81
   1   0 -11    4.14    0.80
   1   0 -11    2.60    0.79
  -1   0  11    2.95    0.66
   0   0 -11    0.18    0.70
   0   0 -11   -0.93    1.12
   0   0  11    0.60    0.54
   0   0  11   -0.67    0.59
  -1   0 -11    1.01    0.64
  -1   0 -11    0.23    0.61
   1   0  11    0.58    0.51
   1   0  11   -0.34    0.62
  -2   0 -11    0.63    0.63
  -2   0 -11    0.32    0.57
   2   0  11    1.02    0.59
   2   0  11    0.95    0.53
  -3   0 -11    1.67    0.60
  -3   0 -11    2.27    0.68
   3   0  11    2.46    0.60
   3   0  11    2.11    0.59
  -4   0 -11    2.71    0.66
  -4   0 -11    3.43    0.74
   4   0  11    2.41    0.61
   4   0  11    3.20    0.64
  -5   0 -11    6.29    1.07
   5   0  11    3.62    0.50
   5   0  11    3.39    0.62
  -6   0 -11    7.29    1.17
  -6   0 -11    4.80    0.84
   6   0  11    5.31    0.92
  -7   0 -11    1.75    0.78
  -7   0 -11    1.11    0.73
  -8   0 -11    0.77    0.82
  -8   0 -11    0.39    0.81
   8   0  11    1.04    0.56
   3  -1 -11   -0.40    0.81
  -3   1  11   -1.31    1.52
  -3   1  11    2.18    0.92
   2  -1 -11   -2.10    1.10
   2  -1 -11   -0.36    0.71
  -2   1  11   -0.62    0.70
   1  -1 -11    1.76    0.74
   1  -1 -11    0.97    0.64
  -1   1  11    0.94    0.80
   0  -1 -11    2.95    0.77
   0  -1 -11    2.21    0.74
   0   1  11    2.54    0.71
   0   1  11    1.22    0.47
  -1  -1 -11    0.98    0.64
  -1  -1 -11    0.33    0.56
   1   1  11    0.48    0.59
   1   1  11    0.67    0.44
  -2  -1 -11    2.09    0.69
  -2  -1 -11    2.07    0.68
  -2  -1 -11    1.31    0.39
   2   1  11    1.07    0.48
   2   1  11    1.71    0.58
  -3  -1 -11    8.47    0.94
  -3  -1 -11    8.58    1.10
   3   1  11    8.48    0.91
   3   1  11    7.65    0.95
   3   1  11    6.33    0.64
  -4  -1 -11    2.58    0.62
  -4  -1 -11    2.77    0.64
   4   1  11    0.89    0.67
   4   1  11    2.01    0.57
  -5  -1 -11    1.40    0.60
  -5  -1 -11    0.36    0.56
   5   1  11    0.60    0.60
   5   1  11    1.44    0.54
  -6  -1 -11    2.28    0.64
  -6  -1 -11    1.80    0.64
   6   1  11    1.90    0.78
  -7  -1 -11    0.24    0.65
  -7  -1 -11    0.22    0.66
  -8  -1 -11   -0.40    0.72
  -8  -1 -11   -0.21    0.74
   8   1  11   -0.79    0.49
   3  -2 -11    1.02    0.78
  -3   2  11   -0.02    0.94
   2  -2 -11    7.19    1.14
   2  -2 -11    4.91    0.86
  -2   2  11    7.57    1.14
   1  -2 -11    7.90    1.08
   1  -2 -11    8.05    1.00
  -1   2  11    6.56    1.15
   0  -2 -11    0.50    0.62
   0  -2 -11    0.60    0.59
   0   2  11   -0.54    0.55
   0   2  11    0.48    0.38
  -1  -2 -11    3.12    0.64
  -1  -2 -11    3.88    0.73
   1   2  11    4.73    0.76
   1   2  11    5.09    0.64
  -2  -2 -11    5.75    0.85
  -2  -2 -11    5.75    0.86
  -2  -2 -11    5.42    0.61
   2   2  11    6.31    0.66
   2   2  11    5.40    0.69
   2   2  11    4.76    0.81
  -3  -2 -11    4.31    0.68
  -3  -2 -11    3.69    0.70
  -3  -2 -11    3.38    0.53
   3   2  11    3.38    0.59
   3   2  11    2.86    0.64
   3   2  11    3.49    0.50
  -4  -2 -11   -0.16    0.48
  -4  -2 -11    1.23    0.51
   4   2  11   -0.47    0.51
   4   2  11    0.40    0.56
  -5  -2 -11   -0.06    0.55
  -5  -2 -11    0.52    0.62
   5   2  11    0.42    0.51
  -6  -2 -11   -0.36    0.57
  -6  -2 -11    0.57    0.65
   6   2  11   -0.34    0.51
  -7  -2 -11    0.29    0.62
  -7  -2 -11   -0.37    0.67
  -8  -2 -11   -0.71    0.76
  -8  -2 -11    0.54    0.71
   8   2  11    0.50    0.53
   3  -3 -11    2.75    0.77
  -3   3  11    1.32    0.94
   2  -3 -11    5.46    0.91
  -2   3  11    4.04    0.87
   1  -3 -11   -1.20    0.64
   1  -3 -11    1.24    0.61
  -1   3  11   -0.10    0.61
   0  -3 -11    5.63    0.97
   0  -3 -11    6.58    0.88
   0   3  11    5.88    0.91
   0   3  11    5.14    0.64
  -1  -3 -11    3.91    0.75
  -1  -3 -11    3.96    0.70
   1   3  11    3.59    0.55
   1   3  11    4.07    0.72
   1   3  11    3.50    0.56
  -2  -3 -11    0.89    0.48
  -2  -3 -11    0.66    0.55
   2   3  11    0.02    0.36
   2   3  11    0.33    0.37
   2   3  11    0.09    0.51
  -3  -3 -11   -0.92    0.48
   3   3  11   -0.32    0.50
   3   3  11   -0.34    0.29
  -4  -3 -11    1.40    0.53
  -4  -3 -11    0.22    0.48
   4   3  11    0.22    0.46
   4   3  11    0.96    0.50
  -5  -3 -11    2.00    0.55
  -5  -3 -11    2.04    0.57
   5   3  11    2.57    0.58
  -6  -3 -11    0.93    0.56
  -6  -3 -11   -0.23    0.58
   6   3  11   -0.25    0.55
  -7  -3 -11    0.01    0.61
  -7  -3 -11   -0.50    0.59
   7   3  11   -0.28    0.45
  -8  -3 -11    1.11    0.80
  -8  -3 -11   -0.30    0.80
   3  -4 -11    0.15    0.62
   3  -4 -11   -0.51    0.67
  -3   4  11   -0.05    0.86
  -2   4  11    2.53    0.81
   1  -4 -11    0.01    0.53
   1  -4 -11    1.28    0.68
  -1   4  11    0.73    0.58
  -1   4  11    0.86    0.60
   0  -4 -11    1.01    0.58
   0  -4 -11    1.22    0.60
   0   4  11    0.52    0.55
   0   4  11   -0.05    0.54
  -1  -4 -11    0.25    0.54
  -1  -4 -11   -0.83    0.56
   1   4  11   -0.40    0.45
   1   4  11   -0.37    0.49
  -2  -4 -11    1.52    0.56
  -2  -4 -11    1.95    0.65
   2   4  11    2.15    0.60
   2   4  11    1.48    0.44
  -3  -4 -11    0.31    0.34
  -3  -4 -11    0.48    0.58
  -3  -4 -11    0.15    0.52
  -3  -4 -11    0.85    0.58
   3   4  11    0.38    0.49
   3   4  11    0.86    0.34
  -4  -4 -11    2.47    0.61
  -4  -4 -11    3.58    0.50
  -4  -4 -11    1.59    0.61
   4   4  11    2.34    0.38
   4   4  11    2.46    0.58
  -5  -4 -11   -0.10    0.50
   5   4  11   -0.26    0.55
  -6  -4 -11    1.59    0.68
  -6  -4 -11    0.47    0.58
   6   4  11    1.16    0.61
  -7  -4 -11    1.01    0.72
  -7  -4 -11   -0.55    0.69
   7   4  11   -0.89    0.51
   7   4  11   -0.21    0.64
  -8  -4 -11    2.40    0.81
  -8  -4 -11   -0.11    0.90
   8   4  11    1.36    0.71
   3  -5 -11    4.29    0.76
   3  -5 -11    2.79    0.81
   3  -5 -11    1.04    0.57
  -3   5  11    1.90    0.80
  -3   5  11    3.68    0.94
   2  -5 -11    1.75    0.54
  -2   5  11   -0.22    0.65
  -2   5  11    0.39    0.67
   1  -5 -11    0.33    0.55
  -1   5  11    0.15    0.61
  -1   5  11   -0.77    0.61
   0  -5 -11   -0.02    0.50
   0   5  11    0.05    0.56
   0   5  11    1.37    0.64
  -1  -5 -11   15.73    1.13
   1   5  11   13.72    1.03
   1   5  11   11.67    1.08
  -2  -5 -11   -0.29    0.46
   2   5  11   -0.02    0.54
   2   5  11    0.45    0.40
  -3  -5 -11    1.13    0.51
   3   5  11   -0.53    0.53
   3   5  11    0.78    0.38
  -4  -5 -11    0.00    0.48
  -4  -5 -11    0.06    0.33
   4   5  11   -0.04    0.57
   4   5  11    0.12    0.34
  -5  -5 -11    6.55    1.06
   5   5  11    7.47    0.88
  -6  -5 -11    2.15    0.62
   6   5  11    2.43    0.65
  -7  -5 -11    1.87    0.73
  -7  -5 -11    1.67    0.71
   7   5  11    3.72    1.25
  -8  -5 -11    0.66    0.75
  -8  -5 -11    0.07    0.83
   8   5  11    0.78    0.64
   3  -6 -11    0.87    0.77
   3  -6 -11    0.92    0.70
  -3   6  11    0.21    0.80
  -3   6  11   -0.52    1.33
   2  -6 -11    0.90    0.47
   2  -6 -11    1.19    0.61
  -2   6  11    0.95    0.67
  -2   6  11    0.58    0.77
   1  -6 -11    1.83    0.62
  -1   6  11    1.79    0.59
  -1   6  11    1.20    0.71
   0  -6 -11    6.71    0.82
   0   6  11    8.40    0.99
   0   6  11    6.96    0.98
  -1  -6 -11    0.73    0.50
   1   6  11    1.96    0.55
   1   6  11    0.58    0.53
  -2  -6 -11    3.69    0.66
   2   6  11    1.48    0.66
   2   6  11    2.74    0.54
  -3  -6 -11    0.31    0.56
   3   6  11    1.44    0.44
   3   6  11    0.23    0.54
  -4  -6 -11    0.85    0.65
   4   6  11    1.87    0.43
   4   6  11    2.35    0.57
  -5  -6 -11    2.60    0.73
   5   6  11    2.05    0.51
   5   6  11    2.93    0.59
  -6  -6 -11    0.38    0.64
  -6  -6 -11    0.23    0.64
   6   6  11   -0.81    0.63
  -7  -6 -11   -1.12    0.74
  -7  -6 -11    0.57    0.70
   7   6  11   -0.68    0.68
  -8  -6 -11    1.34    0.94
  -8  -6 -11    0.65    0.78
   8   6  11   -0.37    0.58
   3  -7 -11    9.39    1.19
   3  -7 -11    5.38    0.96
  -3   7  11    6.08    1.04
  -3   7  11    6.26    1.05
   2  -7 -11   -0.26    0.65
   2  -7 -11    1.01    0.49
  -2   7  11    1.85    0.75
  -2   7  11    1.11    0.71
   1  -7 -11    1.39    0.56
  -1   7  11    0.84    0.65
  -1   7  11    0.77    0.64
   0  -7 -11    1.64    0.53
   0   7  11    1.81    0.59
   0   7  11    0.06    0.67
  -1  -7 -11    4.57    0.82
   1   7  11    3.67    0.65
   1   7  11    6.17    0.93
  -2  -7 -11    5.43    0.97
   2   7  11    5.31    0.87
   2   7  11    6.72    0.92
  -3  -7 -11   -0.09    0.53
   3   7  11   -0.84    0.56
   3   7  11    0.11    0.50
  -4  -7 -11    2.06    0.62
   4   7  11    0.79    0.64
   4   7  11    0.25    0.44
  -5  -7 -11    4.51    0.87
  -5  -7 -11    4.24    0.74
   5   7  11    4.86    0.85
   5   7  11    3.98    0.70
  -6  -7 -11   -0.32    0.66
  -6  -7 -11    1.35    0.67
   6   7  11    1.31    1.02
  -7  -7 -11    2.39    0.78
  -7  -7 -11    3.34    0.82
   7   7  11    0.98    0.82
   2  -8 -11    0.75    0.71
   2  -8 -11    1.47    0.76
  -2   8  11    1.09    0.80
  -2   8  11    0.43    0.77
   1  -8 -11    2.71    0.57
   1  -8 -11    3.94    0.67
   1  -8 -11    4.68    0.74
  -1   8  11    4.35    0.81
  -1   8  11    4.36    0.82
   0  -8 -11    0.02    0.62
   0   8  11   -1.04    0.57
   0   8  11    1.62    0.69
  -1  -8 -11    1.22    0.53
   1   8  11    1.35    0.72
   1   8  11    0.08    0.69
  -2  -8 -11    0.92    0.60
   2   8  11    1.81    0.65
   2   8  11    2.27    0.61
  -3  -8 -11    2.11    0.58
  -3  -8 -11    1.29    0.70
   3   8  11    1.11    0.63
   3   8  11    1.71    0.59
  -4  -8 -11    1.50    0.63
  -4  -8 -11    1.30    0.58
   4   8  11    1.94    0.68
   4   8  11    1.87    0.58
  -5  -8 -11    2.28    0.78
  -5  -8 -11    2.64    0.67
   5   8  11    3.20    0.74
   5   8  11    3.47    0.69
  -6  -8 -11   -0.32    0.80
  -6  -8 -11    1.23    0.79
   6   8  11   -0.16    0.76
  -7  -8 -11   -0.33    0.86
  -7  -8 -11    0.94    1.01
   2  -9 -11    0.28    0.58
  -2   9  11    2.15    0.87
  -2   9  11    1.75    0.85
   1  -9 -11    0.62    0.55
   1  -9 -11    0.26    0.67
   1  -9 -11   -0.80    0.59
  -1   9  11    0.93    0.81
  -1   9  11    0.32    0.81
   0  -9 -11    2.60    0.77
   0  -9 -11    2.80    0.84
   0   9  11    2.89    0.80
   0   9  11    1.45    1.09
  -1  -9 -11    5.59    0.95
   1   9  11    4.06    0.83
   1   9  11    5.27    0.78
  -2  -9 -11    8.25    0.92
  -2  -9 -11    5.62    0.93
   2   9  11    6.08    0.83
  -3  -9 -11   -0.48    0.56
  -3  -9 -11   -0.15    0.63
   3   9  11    1.26    0.70
   3   9  11    0.11    0.75
  -4  -9 -11    1.09    0.64
  -4  -9 -11   -0.40    0.70
   4   9  11   -0.84    0.63
   4   9  11   -0.03    0.79
  -5  -9 -11    1.03    0.81
   5   9  11    0.80    0.81
   5   9  11    0.71    0.69
  -6  -9 -11    1.07    0.81
  -6  -9 -11    1.57    0.89
   6   9  11    1.68    0.89
   1 -10 -11   -0.25    0.76
   1 -10 -11    1.42    0.94
   1 -10 -11   -0.31    0.52
  -1  10  11    1.31    0.90
  -1  10  11   -0.09    0.87
   0 -10 -11    0.75    0.78
   0 -10 -11    0.00    0.49
   0  10  11   -1.37    0.79
   0  10  11    0.38    0.81
  -1 -10 -11    0.06    0.41
  -1 -10 -11    0.71    0.70
   1  10  11    1.34    0.82
  -2 -10 -11   -0.86    0.68
   2  10  11    0.51    0.78
  -3 -10 -11    0.54    0.66
   3  10  11    0.41    0.68
   3  10  11   -1.22    0.83
  -4 -10 -11    0.51    0.84
   4  10  11    0.62    0.71
   4  10  11   -1.07    0.91
  -5 -10 -11   -0.72    0.87
  -5 -10 -11    0.34    0.80
   5  10  11    1.89    0.84
   5  10  11    0.11    0.94
  -1 -11 -11    2.91    0.88
  -1 -11 -11    1.78    1.11
   1  11  11    2.53    1.14
  -2 -11 -11   -0.26    0.91
   2  11  11    0.43    1.14
  -3 -11 -11    0.11    0.97
   3  11  11   -0.82    1.55
  -3   2 -12   -0.94    1.13
  -3   2 -12    1.15    0.97
   3  -2  12    0.24    0.82
   3  -2  12   -0.64    1.06
  -4   2 -12    0.30    0.98
  -4   2 -12    0.31    1.02
   4  -2  12   -0.29    0.83
  -1   1 -12   -0.10    0.87
  -1   1 -12   -1.00    0.97
   1  -1  12    0.50    0.74
   1  -1  12   -0.52    0.84
  -2   1 -12    0.54    0.75
  -2   1 -12   -1.05    0.85
   2  -1  12   -0.15    0.72
  -3   1 -12   -0.75    0.81
  -3   1 -12   -0.16    0.76
   3  -1  12   -1.39    0.72
  -4   1 -12    4.04    0.86
  -4   1 -12    3.66    0.99
   4  -1  12    3.29    0.85
   4  -1  12    2.71    0.85
  -5   1 -12    1.66    0.85
  -5   1 -12    0.62    0.84
   5  -1  12    1.47    0.79
  -6   1 -12   -0.58    0.90
  -6   1 -12    0.16    0.93
   6  -1  12    1.72    1.04
   0   0 -12   -0.57    0.76
   0   0 -12    0.60    0.92
   0   0  12   -1.05    0.76
  -1   0 -12   -0.63    0.78
  -1   0 -12    1.92    0.85
   1   0  12    0.62    0.65
   1   0  12    0.36    1.23
  -2   0 -12    0.47    0.70
  -2   0 -12   -0.33    0.76
   2   0  12    0.53    0.62
   2   0  12    0.88    0.70
  -3   0 -12    0.15    0.80
  -3   0 -12   -0.58    0.68
   3   0  12   -1.16    0.64
   3   0  12    0.66    0.65
  -4   0 -12   -0.12    0.77
  -4   0 -12    0.37    0.66
   4   0  12    1.18    0.71
   4   0  12   -0.79    0.65
  -5   0 -12   -0.32    0.83
  -5   0 -12    0.33    0.78
   5   0  12   -0.15    0.91
   5   0  12    0.72    0.81
  -6   0 -12    1.83    0.88
  -6   0 -12    2.37    0.85
   6   0  12    1.53    0.87
   1  -1 -12    0.22    0.86
   1  -1 -12   -0.05    0.92
  -1   1  12    0.21    0.91
   0  -1 -12   -0.25    0.80
   0  -1 -12   -1.15    0.72
   0   1  12   -0.66    0.72
  -1  -1 -12    0.53    0.74
  -1  -1 -12    0.04    0.74
   1   1  12   -0.14    0.73
   1   1  12   -0.24    0.57
  -2  -1 -12    2.51    0.78
  -2  -1 -12    2.29    0.69
   2   1  12    3.02    0.74
   2   1  12    3.30    0.68
  -3  -1 -12    2.02    0.77
  -3  -1 -12    1.33    0.76
   3   1  12    1.28    0.62
   3   1  12    0.21    0.67
  -4  -1 -12    3.23    0.79
  -4  -1 -12    2.72    0.76
   4   1  12    2.46    0.74
   4   1  12    2.65    0.64
  -5  -1 -12    2.35    0.76
  -5  -1 -12    2.70    0.76
   5   1  12    1.57    0.83
  -6  -1 -12    0.85    0.75
  -6  -1 -12    1.07    0.81
  -7  -1 -12   -1.57    1.16
  -7  -1 -12   -0.08    0.83
   7   1  12   -0.77    0.55
   1  -2 -12    2.15    0.80
   1  -2 -12   -1.05    0.87
  -1   2  12    0.27    0.81
   0  -2 -12    4.09    0.86
   0  -2 -12    2.60    0.78
   0   2  12    4.73    0.83
  -1  -2 -12    5.34    0.94
  -1  -2 -12    5.29    0.85
   1   2  12    6.91    1.07
   1   2  12    7.73    1.06
  -2  -2 -12    0.87    0.67
  -2  -2 -12   -0.41    0.66
   2   2  12    0.33    0.51
   2   2  12    0.71    0.69
   2   2  12    0.14    0.52
  -3  -2 -12   -0.31    0.61
  -3  -2 -12   -0.51    0.75
   3   2  12    0.43    0.59
   3   2  12   -0.06    0.61
  -4  -2 -12    0.02    0.65
  -4  -2 -12    0.06    0.67
   4   2  12   -1.06    0.60
   4   2  12    1.52    0.62
  -5  -2 -12   -0.28    0.64
  -5  -2 -12    0.30    0.72
   5   2  12    0.47    0.67
  -6  -2 -12    0.12    0.73
  -6  -2 -12    0.06    0.68
   6   2  12    0.91    0.74
  -7  -2 -12   -0.11    0.77
  -7  -2 -12    1.00    0.84
   7   2  12    1.56    0.57
   2  -3 -12    1.54    0.94
   2  -3 -12   -1.11    0.85
  -2   3  12    0.25    1.21
   1  -3 -12    0.19    1.18
   1  -3 -12    0.51    0.83
   0  -3 -12    1.37    0.66
   0  -3 -12    1.26    0.72
   0   3  12    1.60    0.66
   0   3  12    0.21    0.69
  -1  -3 -12   -0.72    0.64
  -1  -3 -12    0.93    0.73
   1   3  12    1.03    0.58
   1   3  12    0.17    0.71
  -2  -3 -12    3.28    0.70
   2   3  12    0.71    0.68
   2   3  12    2.12    0.53
  -3  -3 -12    5.10    0.82
  -3  -3 -12    7.44    1.19
   3   3  12    6.09    1.00
  -4  -3 -12   -1.09    0.63
  -4  -3 -12    0.53    0.60
   4   3  12    0.05    0.54
  -5  -3 -12   -0.64    0.60
  -5  -3 -12   -0.21    0.66
   5   3  12    0.52    0.63
  -6  -3 -12    0.19    0.66
  -6  -3 -12   -0.09    0.72
   6   3  12   -0.04    0.83
  -7  -3 -12    0.27    0.83
  -7  -3 -12    0.10    1.08
   7   3  12    0.15    0.54
   2  -4 -12    0.79    0.77
  -2   4  12    0.27    1.02
   1  -4 -12    1.43    0.77
   1  -4 -12    1.35    0.73
  -1   4  12    0.59    0.85
  -1   4  12    0.94    0.79
   0  -4 -12    5.90    0.99
   0  -4 -12    6.86    1.15
   0   4  12    5.69    0.94
   0   4  12    4.58    0.87
  -1  -4 -12    1.34    0.67
  -1  -4 -12    1.69    0.75
   1   4  12    0.18    0.55
   1   4  12    0.16    0.62
  -2  -4 -12    1.29    0.63
  -2  -4 -12    1.86    0.67
   2   4  12    0.61    0.52
   2   4  12    2.19    0.69
  -3  -4 -12    0.58    0.62
  -3  -4 -12   -0.98    0.63
   3   4  12    0.39    0.55
   3   4  12   -0.30    0.43
  -4  -4 -12   -0.42    0.69
   4   4  12   -0.11    0.61
  -5  -4 -12    0.76    0.62
  -5  -4 -12    1.00    0.67
   5   4  12    0.54    0.62
  -6  -4 -12    0.74    0.66
  -6  -4 -12    0.42    0.71
   6   4  12    0.21    0.70
  -7  -4 -12    1.69    0.81
  -2   5  12    1.11    0.96
  -2   5  12    1.17    0.95
   1  -5 -12    1.91    0.69
  -1   5  12    0.33    0.75
   0  -5 -12    0.50    0.60
   0   5  12    2.11    0.80
   0   5  12    1.04    0.65
  -1  -5 -12    0.63    0.60
   1   5  12    0.43    0.68
  -2  -5 -12    3.14    0.68
  -2  -5 -12    2.97    0.72
   2   5  12    1.91    0.68
  -3  -5 -12   10.37    1.11
  -3  -5 -12   10.92    1.18
   3   5  12   10.15    1.20
   3   5  12   11.80    0.95
  -4  -5 -12    0.49    0.59
   4   5  12    0.67    0.62
  -5  -5 -12    0.37    0.71
   5   5  12    0.19    0.61
  -6  -5 -12    0.06    0.69
   6   5  12    0.21    0.69
  -7  -5 -12    0.86    0.88
  -7  -5 -12    1.67    1.22
   7   5  12    0.41    0.85
   2  -6 -12    2.29    0.81
  -2   6  12   -0.27    1.04
  -1   6  12    0.02    0.77
   0  -6 -12    3.53    0.67
   0   6  12    3.48    0.83
  -1  -6 -12    3.61    0.67
   1   6  12    3.22    0.76
   1   6  12    3.39    0.68
  -2  -6 -12    9.43    1.13
   2   6  12   10.87    1.16
   2   6  12   12.96    1.06
  -3  -6 -12    2.83    0.69
   3   6  12    2.06    0.66
   3   6  12    1.87    0.56
  -4  -6 -12    2.04    0.71
   4   6  12    1.28    0.65
  -5  -6 -12    1.02    0.77
   5   6  12    1.45    0.70
  -6  -6 -12    2.67    0.80
  -6  -6 -12    2.06    0.77
  -7  -6 -12    0.23    0.91
  -7  -6 -12    1.79    0.85
   7   6  12    0.73    0.83
   2  -7 -12   -0.81    0.79
   1  -7 -12    2.62    0.55
  -1   7  12    2.42    0.88
   0  -7 -12    1.39    0.69
   0   7  12    3.42    0.84
   0   7  12    2.37    0.82
  -1  -7 -12    0.41    0.67
   1   7  12   -0.25    0.61
   1   7  12    0.17    0.69
  -2  -7 -12    0.95    0.69
   2   7  12    1.18    0.78
   2   7  12    2.46    0.99
  -3  -7 -12    1.25    0.68
   3   7  12    0.66    0.75
   3   7  12    1.94    0.64
  -4  -7 -12    3.97    0.77
   4   7  12    1.84    0.65
   4   7  12    2.22    0.76
  -5  -7 -12    0.39    0.66
  -5  -7 -12   -1.12    0.76
   5   7  12   -0.71    0.72
  -6  -7 -12    0.63    0.75
  -6  -7 -12    1.28    0.76
   1  -8 -12   -0.01    0.72
  -1   8  12   -0.64    0.96
   0   8  12    2.60    0.85
  -1  -8 -12    8.16    0.98
   1   8  12    8.32    1.01
   1   8  12    7.38    1.08
  -2  -8 -12    1.18    0.72
   2   8  12    0.09    0.64
   2   8  12    0.59    0.78
  -3  -8 -12   -0.51    0.71
   3   8  12   -1.07    0.65
   3   8  12    0.08    0.78
  -4  -8 -12    1.67    0.75
  -4  -8 -12    2.11    0.70
   4   8  12    2.32    0.73
  -5  -8 -12    4.60    0.92
  -5  -8 -12    4.04    0.90
  -6  -8 -12    5.29    1.19
   0  -9 -12    1.12    0.74
   0  -9 -12   -0.34    0.56
   0   9  12    0.75    0.88
   1   9  12   -0.13    0.82
   2   9  12    0.40    0.79
   2   9  12    0.57    0.71
  -3  -9 -12    1.94    0.75
  -3  -9 -12    0.85    0.78
   3   9  12    0.56    0.70
   3   9  12    0.13    0.86
  -4  -9 -12    2.26    0.76
  -4  -9 -12    3.92    0.85
   4   9  12    4.14    0.91
   4   9  12    2.36    0.97
  -5  -9 -12   -0.33    0.77
  -5  -9 -12    1.13    0.96
   5   9  12    0.92    0.83
  -1 -10 -12    1.27    1.04
  -2 -10 -12   -0.03    0.49
  -2 -10 -12   -0.24    0.69
   2  10  12   -1.69    0.99
   2  10  12    1.09    0.82
  -3 -10 -12    1.63    0.84
   3  10  12    0.69    1.19
   3  10  12    0.94    0.82
  -2  -1 -13    0.67    0.98
  -2  -1 -13    0.00    0.88
   2   1  13   -0.27    0.76
  -3  -1 -13   -0.63    0.82
  -3  -1 -13    0.75    0.93
   3   1  13   -0.72    0.73
  -4  -1 -13    0.50    0.86
  -4  -1 -13   -0.29    0.83
   4   1  13   -1.31    0.76
   4   1  13   -0.80    0.79
  -5  -1 -13    1.04    1.05
  -5  -1 -13    1.49    0.99
   5   1  13    1.49    0.87
  -1  -2 -13    0.93    0.89
   1   2  13    0.57    0.90
  -2  -2 -13    2.30    0.92
  -2  -2 -13    1.18    0.83
  -3  -2 -13    4.25    0.98
  -3  -2 -13    2.30    0.92
   3   2  13    3.53    0.87
  -4  -2 -13    1.91    0.91
  -4  -2 -13    0.90    0.87
  -5  -2 -13    1.52    0.86
  -5  -2 -13   -0.84    0.90
   5   2  13   -1.23    0.77
  -6  -2 -13    0.31    0.87
  -6  -2 -13    0.42    0.91
   0  -3 -13   -0.95    0.88
   0  -3 -13    1.07    1.82
   0   3  13    0.18    1.08
   0   3  13    0.62    1.12
  -1  -3 -13   -0.91    0.93
  -1  -3 -13   -0.41    0.89
   1   3  13   -0.53    0.82
   1   3  13    1.06    0.80
  -2  -3 -13    2.28    0.80
  -2  -3 -13    0.50    0.84
   2   3  13    1.25    0.81
  -3  -3 -13    0.36    0.77
  -3  -3 -13   -0.04    0.86
   3   3  13   -0.98    0.76
  -4  -3 -13    0.79    0.76
  -4  -3 -13   -0.33    0.82
  -5  -3 -13    0.07    0.86
  -5  -3 -13    0.10    0.79
   5   3  13    0.57    0.82
  -6  -3 -13   -1.43    0.80
  -6  -3 -13    1.67    0.86
   0  -4 -13    1.52    1.04
   0  -4 -13   -0.34    0.87
   0   4  13   -0.47    0.82
   0   4  13    0.87    1.05
  -1  -4 -13   -1.07    0.80
  -1  -4 -13    0.84    0.83
   1   4  13   -0.20    0.73
  -2  -4 -13    2.08    0.88
  -2  -4 -13    3.92    0.82
   2   4  13    2.50    0.75
  -3  -4 -13   -1.08    0.77
  -3  -4 -13    0.13    0.78
   3   4  13   -0.04    0.72
  -4  -4 -13   -0.21    0.71
  -4  -4 -13   -1.30    0.69
   4   4  13    0.90    0.88
  -5  -4 -13   -0.17    0.77
  -5  -4 -13   -1.10    0.80
  -6  -4 -13   -0.79    0.81
  -6  -4 -13   -0.86    0.82
   6   4  13   -0.41    0.83
   0   5  13    0.33    0.76
   0   5  13   -0.93    0.96
  -1  -5 -13    3.83    0.80
   1   5  13    3.49    0.78
   1   5  13    3.72    0.87
  -2  -5 -13    1.04    0.79
   2   5  13    1.49    0.77
   2   5  13    0.89    0.77
  -3  -5 -13    0.53    0.79
  -3  -5 -13   -0.15    0.70
   3   5  13    0.58    0.70
  -4  -5 -13    1.72    0.86
   4   5  13   -0.95    0.69
  -5  -5 -13    4.77    0.92
  -6  -5 -13   -0.20    0.92
   6   5  13    0.63    0.84
   0  -6 -13    3.82    0.75
   0   6  13    3.11    1.11
   0   6  13    2.45    0.80
  -1  -6 -13    0.08    0.79
   1   6  13   -1.39    0.71
   1   6  13    0.70    0.88
  -2  -6 -13    0.52    0.71
   2   6  13    1.05    0.71
   2   6  13    0.38    0.86
  -3  -6 -13    0.63    0.73
   3   6  13    1.57    0.84
  -4  -6 -13    2.50    0.84
  -5  -6 -13    0.83    0.91
   0   7  13    1.78    1.03
   1   7  13    6.57    1.04
   1   7  13    3.79    0.99
  -2  -7 -13    2.06    0.84
   2   7  13    2.26    0.81
   2   7  13    3.35    0.90
  -3  -7 -13   -0.12    0.81
   3   7  13    0.39    0.90
  -4  -7 -13    0.16    0.88
   4   7  13    0.50    0.79
  -5  -7 -13    2.36    1.02
   5   7  13    1.89    0.79
  -1  -8 -13   -0.89    1.08
   1   8  13   -0.18    0.84
  -2  -8 -13    0.98    0.78
   2   8  13   -0.32    0.78
   2   8  13   -0.20    0.89
  -3  -8 -13    4.19    0.94
   3   8  13    3.58    0.96
  -4  -8 -13    0.48    0.81
  -4  -8 -13    0.12    0.98
   4   8  13    1.75    0.97
   0   0   0    0.00    0.00
;
_shelx_hkl_checksum              6651
loop_
_space_group_symop_operation_xyz
'x, y, z'
'-x, -y, -z'
loop_
_atom_site_label
_atom_site_type_symbol
_atom_site_fract_x
_atom_site_fract_y
_atom_site_fract_z
_atom_site_U_iso_or_equiv
_atom_site_adp_type
_atom_site_occupancy
_atom_site_site_symmetry_order
_atom_site_calc_flag
_atom_site_refinement_flags_posn
_atom_site_refinement_flags_adp
P1 P 0.59888(8) 0.74978(6) 0.24238(6) 0.0348(2) Uani 1 1 d . .
O1 O 0.9152(2) 0.62310(19) -0.28742(17) 0.0563(5) Uani 1 1 d . .
O2 O 0.91324(19) 0.89011(16) -0.30078(15) 0.0430(4) Uani 1 1 d . .
O3 O 0.6343(2) 0.89844(16) 0.22888(18) 0.0548(5) Uani 1 1 d . .
O4 O 0.6614(2) 0.63798(16) 0.36576(16) 0.0403(4) Uani 1 1 d . .
O5 O 0.39950(19) 0.69527(17) 0.29042(17) 0.0449(4) Uani 1 1 d . .
N1 N 0.8442(2) 0.77864(18) -0.16827(18) 0.0367(4) Uani 1 1 d . .
C1 C 0.8454(3) 0.6402(2) -0.1736(2) 0.0382(5) Uani 1 1 d . .
C2 C 0.7423(3) 0.3868(2) -0.0322(2) 0.0424(6) Uani 1 1 d . .
H2 H 0.7948 0.3678 -0.1161 0.051 Uiso 1 1 calc R U
C3 C 0.6529(3) 0.2762(2) 0.0931(3) 0.0423(6) Uani 1 1 d . .
H3 H 0.6469 0.1826 0.0941 0.051 Uiso 1 1 calc R U
C4 C 0.5708(3) 0.3034(2) 0.2194(2) 0.0330(5) Uani 1 1 d . .
C5 C 0.5850(3) 0.4427(2) 0.2164(2) 0.0313(5) Uani 1 1 d . .
H5 H 0.5316 0.4604 0.3008 0.038 Uiso 1 1 calc R U
C6 C 0.6890(3) 0.7079(2) 0.0823(2) 0.0314(5) Uani 1 1 d . .
C7 C 0.7687(3) 0.8153(2) -0.0485(2) 0.0357(5) Uani 1 1 d . .
C8 C 0.7554(3) 0.5276(2) -0.0352(2) 0.0329(5) Uani 1 1 d . .
C9 C 0.6772(3) 0.5587(2) 0.0906(2) 0.0286(4) Uani 1 1 d . .
C10 C 0.4664(3) 0.1828(2) 0.3556(2) 0.0430(6) Uani 1 1 d . .
H10A H 0.4941 0.1898 0.4373 0.064 Uiso 1 1 calc R U
H10B H 0.4953 0.0919 0.3470 0.064 Uiso 1 1 calc R U
H10C H 0.3434 0.1899 0.3691 0.064 Uiso 1 1 calc R U
C11 C 0.7804(4) 0.9752(2) -0.0814(3) 0.0654(8) Uani 1 1 d . .
H11A H 0.7176 0.9936 0.0043 0.098 Uiso 1 1 calc R U
H11B H 0.7299 1.0213 -0.1572 0.098 Uiso 1 1 calc R U
H11C H 0.9012 1.0127 -0.1121 0.098 Uiso 1 1 calc R U
C12 C 1.1013(3) 0.9116(3) -0.3396(3) 0.0532(7) Uani 1 1 d . .
H12A H 1.1328 0.9444 -0.2722 0.080 Uiso 1 1 calc R U
H12B H 1.1473 0.9824 -0.4357 0.080 Uiso 1 1 calc R U
H12C H 1.1492 0.8223 -0.3367 0.080 Uiso 1 1 calc R U
C13 C 0.2785(3) 0.7163(3) 0.4141(3) 0.0597(7) Uani 1 1 d . .
H13A H 0.3129 0.6679 0.4989 0.090 Uiso 1 1 calc R U
H13B H 0.1624 0.6775 0.4286 0.090 Uiso 1 1 calc R U
H13C H 0.2795 0.8174 0.3972 0.090 Uiso 1 1 calc R U
C14 C 0.8354(3) 0.6592(3) 0.3717(4) 0.0665(8) Uani 1 1 d . .
H14A H 0.9108 0.6024 0.3260 0.100 Uiso 1 1 calc R U
H14B H 0.8328 0.6302 0.4711 0.100 Uiso 1 1 calc R U
H14C H 0.8790 0.7592 0.3218 0.100 Uiso 1 1 calc R U
loop_
_atom_site_aniso_label
_atom_site_aniso_U_11
_atom_site_aniso_U_22
_atom_site_aniso_U_33
_atom_site_aniso_U_23
_atom_site_aniso_U_13
_atom_site_aniso_U_12
P1 0.0442(4) 0.0276(3) 0.0330(3) -0.0148(2) -0.0077(2) 0.0019(2)
O1 0.0740(12) 0.0561(11) 0.0301(9) -0.0200(8) 0.0020(8) -0.0004(9)
O2 0.0422(9) 0.0400(9) 0.0295(8) 0.0033(7) -0.0055(7) -0.0062(7)
O3 0.0850(13) 0.0328(9) 0.0488(10) -0.0219(8) -0.0151(9) 0.0003(8)
O4 0.0450(9) 0.0397(8) 0.0356(9) -0.0118(7) -0.0140(7) -0.0013(7)
O5 0.0399(9) 0.0556(10) 0.0441(9) -0.0278(8) -0.0084(7) 0.0071(7)
N1 0.0417(10) 0.0319(9) 0.0264(9) -0.0040(7) -0.0037(8) -0.0017(7)
C1 0.0413(12) 0.0398(12) 0.0310(11) -0.0135(9) -0.0068(9) 0.0011(9)
C2 0.0543(15) 0.0391(12) 0.0364(12) -0.0217(10) -0.0080(11) 0.0055(10)
C3 0.0593(15) 0.0258(10) 0.0460(13) -0.0181(10) -0.0164(12) 0.0041(10)
C4 0.0372(11) 0.0249(10) 0.0364(12) -0.0082(8) -0.0141(9) 0.0018(8)
C5 0.0372(11) 0.0271(10) 0.0279(10) -0.0107(8) -0.0070(9) 0.0020(8)
C6 0.0374(11) 0.0240(10) 0.0303(11) -0.0094(8) -0.0074(9) 0.0011(8)
C7 0.0423(12) 0.0280(10) 0.0325(11) -0.0101(9) -0.0062(9) 0.0022(9)
C8 0.0379(12) 0.0299(10) 0.0298(11) -0.0115(9) -0.0081(9) 0.0038(9)
C9 0.0336(11) 0.0257(9) 0.0275(10) -0.0098(8) -0.0108(9) 0.0039(8)
C10 0.0504(14) 0.0281(11) 0.0437(13) -0.0061(9) -0.0132(11) -0.0043(9)
C11 0.097(2) 0.0272(12) 0.0474(15) -0.0044(11) 0.0018(15) -0.0007(13)
C12 0.0423(14) 0.0602(16) 0.0449(14) -0.0131(12) -0.0023(11) -0.0112(11)
C13 0.0506(16) 0.0763(19) 0.0419(14) -0.0202(13) -0.0013(12) 0.0141(13)
C14 0.0551(17) 0.0666(19) 0.083(2) -0.0244(16) -0.0317(16) 0.0083(14)
loop_
_atom_type_symbol
_atom_type_description
_atom_type_scat_dispersion_real
_atom_type_scat_dispersion_imag
_atom_type_scat_source
C C 0.0033 0.0016 'International Tables Vol C Tables 4.2.6.8 and 6.1.1.4'
H H 0.0000 0.0000 'International Tables Vol C Tables 4.2.6.8 and 6.1.1.4'
O O 0.0106 0.0060 'International Tables Vol C Tables 4.2.6.8 and 6.1.1.4'
P P 0.1023 0.0942 'International Tables Vol C Tables 4.2.6.8 and 6.1.1.4'
N N 0.0061 0.0033 'International Tables Vol C Tables 4.2.6.8 and 6.1.1.4'
loop_
_geom_angle_atom_site_label_1
_geom_angle_atom_site_label_2
_geom_angle_atom_site_label_3
_geom_angle
O3 P1 O5 114.78(10)
O3 P1 O4 112.43(9)
O5 P1 O4 101.87(8)
O3 P1 C6 116.71(9)
O5 P1 C6 102.84(9)
O4 P1 C6 106.69(9)
N1 O2 C12 110.86(16)
C14 O4 P1 119.93(16)
C13 O5 P1 119.91(15)
C7 N1 O2 117.44(17)
C7 N1 C1 126.97(17)
O2 N1 C1 115.33(16)
O1 C1 N1 120.2(2)
O1 C1 C8 126.1(2)
N1 C1 C8 113.63(18)
C3 C2 C8 120.7(2)
C3 C2 H2 119.7
C8 C2 H2 119.7
C2 C3 C4 120.34(19)
C2 C3 H3 119.8
C4 C3 H3 119.8
C5 C4 C3 118.84(19)
C5 C4 C10 120.82(19)
C3 C4 C10 120.34(18)
C4 C5 C9 122.55(18)
C4 C5 H5 118.7
C9 C5 H5 118.7
C7 C6 C9 119.57(18)
C7 C6 P1 120.38(15)
C9 C6 P1 120.05(14)
C6 C7 N1 118.85(18)
C6 C7 C11 127.4(2)
N1 C7 C11 113.72(18)
C2 C8 C9 120.62(19)
C2 C8 C1 117.51(19)
C9 C8 C1 121.81(18)
C5 C9 C8 116.97(17)
C5 C9 C6 123.88(17)
C8 C9 C6 119.09(17)
C4 C10 H10A 109.5
C4 C10 H10B 109.5
H10A C10 H10B 109.5
C4 C10 H10C 109.5
H10A C10 H10C 109.5
H10B C10 H10C 109.5
C7 C11 H11A 109.5
C7 C11 H11B 109.5
H11A C11 H11B 109.5
C7 C11 H11C 109.5
H11A C11 H11C 109.5
H11B C11 H11C 109.5
O2 C12 H12A 109.5
O2 C12 H12B 109.5
H12A C12 H12B 109.5
O2 C12 H12C 109.5
H12A C12 H12C 109.5
H12B C12 H12C 109.5
O5 C13 H13A 109.5
O5 C13 H13B 109.5
H13A C13 H13B 109.5
O5 C13 H13C 109.5
H13A C13 H13C 109.5
H13B C13 H13C 109.5
O4 C14 H14A 109.5
O4 C14 H14B 109.5
H14A C14 H14B 109.5
O4 C14 H14C 109.5
H14A C14 H14C 109.5
H14B C14 H14C 109.5
loop_
_geom_bond_atom_site_label_1
_geom_bond_atom_site_label_2
_geom_bond_distance
P1 O3 1.4601(16)
P1 O5 1.5676(16)
P1 O4 1.5781(16)
P1 C6 1.793(2)
O1 C1 1.217(3)
O2 N1 1.386(2)
O2 C12 1.439(3)
O4 C14 1.435(3)
O5 C13 1.441(3)
N1 C7 1.382(3)
N1 C1 1.399(3)
C1 C8 1.454(3)
C2 C3 1.370(3)
C2 C8 1.396(3)
C2 H2 0.9300
C3 C4 1.398(3)
C3 H3 0.9300
C4 C5 1.382(3)
C4 C10 1.506(3)
C5 C9 1.405(3)
C5 H5 0.9300
C6 C7 1.369(3)
C6 C9 1.461(3)
C7 C11 1.505(3)
C8 C9 1.408(3)
C10 H10A 0.9600
C10 H10B 0.9600
C10 H10C 0.9600
C11 H11A 0.9600
C11 H11B 0.9600
C11 H11C 0.9600
C12 H12A 0.9600
C12 H12B 0.9600
C12 H12C 0.9600
C13 H13A 0.9600
C13 H13B 0.9600
C13 H13C 0.9600
C14 H14A 0.9600
C14 H14B 0.9600
C14 H14C 0.9600
