#------------------------------------------------------------------------------
#$Date: 2016-04-30 05:09:56 +0300 (Sat, 30 Apr 2016) $
#$Revision: 182432 $
#$URL: svn://www.crystallography.net/cod/cif/1/54/32/1543233.cif $
#------------------------------------------------------------------------------
#
# This file is available in the Crystallography Open Database (COD),
# http://www.crystallography.net/. The original data for this entry
# were provided by IUCr Journals, http://journals.iucr.org/.
#
# The file may be used within the scientific community so long as
# proper attribution is given to the journal article from which the
# data were obtained.
#
data_1543233
loop_
_publ_author_name
'Golen, James A.'
'Manke, David R.'
_publ_section_title
;
 6-Chloro-1<i>H</i>-indole-2,3-dione
;
_journal_coeditor_code           SU4040
_journal_issue                   4
_journal_name_full               IUCrData
_journal_page_first              x160690
_journal_paper_doi               10.1107/S2414314616006908
_journal_volume                  1
_journal_year                    2016
_chemical_formula_iupac          'C8 H4 Cl N O2'
_chemical_formula_moiety         'C8 H4 Cl N O2'
_chemical_formula_sum            'C8 H4 Cl N O2'
_chemical_formula_weight         181.57
_chemical_name_systematic
;
6-Chloro-1<i>H</i>-indole-2,3-dione
;
_space_group_crystal_system      monoclinic
_space_group_IT_number           4
_space_group_name_Hall           'P 2yb'
_space_group_name_H-M_alt        'P 1 21 1'
_symmetry_space_group_name_Hall  'P 2yb'
_symmetry_space_group_name_H-M   'P 1 21 1'
_atom_sites_solution_hydrogens   mixed
_atom_sites_solution_primary     direct
_atom_sites_solution_secondary   difmap
_cell_angle_alpha                90
_cell_angle_beta                 91.916(7)
_cell_angle_gamma                90
_cell_formula_units_Z            2
_cell_length_a                   5.6231(6)
_cell_length_b                   4.9930(6)
_cell_length_c                   12.5145(14)
_cell_measurement_reflns_used    3414
_cell_measurement_temperature    120(2)
_cell_measurement_theta_max      68.47
_cell_measurement_theta_min      3.53
_cell_volume                     351.16(7)
_computing_cell_refinement
;
SAINT (Bruker, 2014)
;
_computing_data_collection
;
APEX2 (Bruker, 2014)
;
_computing_data_reduction
;
SAINT (Bruker, 2014)
;
_computing_molecular_graphics
;
<i>OLEX2</i> (Dolomanov <i>et al.</i>,  2009)
;
_computing_publication_material
;
<i>OLEX2</i> (Dolomanov <i>et al.</i>,  2009) and publCIF (Westrip,
2010)
;
_computing_structure_refinement
;
SHELXL2014 (Sheldrick, 2015)
;
_computing_structure_solution
;
SHELXS97 (Sheldrick, 2008)
;
_diffrn_ambient_temperature      120.15
_diffrn_measured_fraction_theta_full 1.000
_diffrn_measured_fraction_theta_max 0.999
_diffrn_measurement_device_type  'Bruker Venture D8 CMOS'
_diffrn_measurement_method       '\f and \w scans'
_diffrn_radiation_type           CuK\a
_diffrn_radiation_wavelength     1.54178
_diffrn_reflns_av_R_equivalents  0.0518
_diffrn_reflns_limit_h_max       6
_diffrn_reflns_limit_h_min       -6
_diffrn_reflns_limit_k_max       6
_diffrn_reflns_limit_k_min       -6
_diffrn_reflns_limit_l_max       14
_diffrn_reflns_limit_l_min       -15
_diffrn_reflns_number            4219
_diffrn_reflns_theta_full        67.679
_diffrn_reflns_theta_max         68.465
_diffrn_reflns_theta_min         3.534
_diffrn_standards_number         0
_exptl_absorpt_coefficient_mu    4.410
_exptl_absorpt_correction_T_max  0.4671
_exptl_absorpt_correction_T_min  0.3490
_exptl_absorpt_correction_type   multi-scan
_exptl_absorpt_process_details
;
(SADABS; Bruker, 2014)
;
_exptl_crystal_colour            orange
_exptl_crystal_density_diffrn    1.717
_exptl_crystal_description       block
_exptl_crystal_F_000             184
_exptl_crystal_size_max          0.22
_exptl_crystal_size_mid          0.06
_exptl_crystal_size_min          0.04
_refine_diff_density_max         0.219
_refine_diff_density_min         -0.198
_refine_ls_abs_structure_details
;
 Refined as an inversion twin.
;
_refine_ls_abs_structure_Flack   0.09(3)
_refine_ls_extinction_method     none
_refine_ls_goodness_of_fit_ref   1.124
_refine_ls_hydrogen_treatment    mixed
_refine_ls_matrix_type           full
_refine_ls_number_parameters     114
_refine_ls_number_reflns         1262
_refine_ls_number_restraints     2
_refine_ls_restrained_S_all      1.123
_refine_ls_R_factor_all          0.0342
_refine_ls_R_factor_gt           0.0305
_refine_ls_shift/su_max          0.000
_refine_ls_shift/su_mean         0.000
_refine_ls_structure_factor_coef Fsqd
_refine_ls_weighting_details
'w=1/[\s^2^(Fo^2^)+(0.0176P)^2^+0.0693P] where P=(Fo^2^+2Fc^2^)/3'
_refine_ls_weighting_scheme      calc
_refine_ls_wR_factor_gt          0.0681
_refine_ls_wR_factor_ref         0.0701
_reflns_number_gt                1183
_reflns_number_total             1262
_reflns_threshold_expression     'I > 2\s(I)'
_cod_data_source_file            su4040sup1.cif
_cod_data_source_block           I
_cod_database_code               1543233
_shelx_space_group_comment
;
The symmetry employed for this shelxl refinement is uniquely defined
by the following loop, which should always be used as a source of
symmetry information in preference to the above space-group names.
They are only intended as comments.
;
_shelx_estimated_absorpt_t_min   0.444
_shelx_estimated_absorpt_t_max   0.843
_shelx_hkl_file
;
   1   0   0  184.08   11.60
  -1   0   0  178.68   11.60
  -2   0   0  101.99    8.50
   2   0   0  117.69    8.10
   2   0   0   92.09    7.90
  -2   0   0   91.59    7.80
   3   0   0  367.16   24.70
   3   0   0  415.46   25.60
  -3   0   0  370.76   25.30
  -4   0   0    0.20    5.50
   4   0   0   -1.90    5.40
   4   0   0   23.20   15.00
  -4   0   0   -6.90    9.60
  -4   0   0   -0.10   12.80
   4   0   0    0.70    4.70
   4   0   0   -0.40    5.40
   4   0   0   -0.10    9.60
  -5   0   0  645.34   48.10
   5   0   0  696.13   45.70
  -5   0   0  686.53   45.70
   5   0   0  669.73   46.60
   5   0   0  718.93   43.30
  -5   0   0  721.43   45.70
   5   0   0  648.84   46.70
   6   0   0   73.89   13.80
  -6   0   0   60.69   12.70
   0  -1   0   -0.80    1.20
   1  -1   0   71.79    5.70
  -1  -1   0   71.99    6.20
   1   1   0   77.29    5.60
  -1   1   0   75.69    5.10
  -1   1   0   81.69    5.00
   2  -1   0  410.66   27.50
  -2  -1   0  431.46   27.30
   2  -1   0  425.36   26.80
   2   1   0  409.06   26.90
  -2   1   0  442.36   26.40
  -3  -1   0  201.28   13.70
   3  -1   0  220.78   15.30
   3  -1   0  200.48   13.80
  -3  -1   0  184.48   15.20
  -3   1   0  174.08   13.70
   3   1   0  199.68   14.80
  -4  -1   0  267.27   20.00
   4  -1   0  280.27   21.10
  -4  -1   0  294.57   22.80
   4  -1   0  301.07   20.30
  -4  -1   0  314.87   20.70
   4  -1   0  266.67   22.20
   4   1   0  289.67   22.60
   4   1   0  285.97   21.80
   4   1   0  279.67   22.20
   4   1   0  313.67   25.30
  -4   1   0  351.86   26.30
  -4   1   0  286.57   24.60
   5  -1   0   77.29   10.30
  -5  -1   0   56.09   13.20
  -5  -1   0   88.69   18.10
   5  -1   0   74.49   14.40
   5  -1   0   77.19   11.50
  -5  -1   0   67.59    9.10
   5   1   0   69.69   13.80
   5   1   0   87.19   13.00
   5   1   0   71.39   13.70
  -5   1   0   66.59   11.90
  -5   1   0   73.19   15.10
  -6  -1   0   49.80   12.30
   6  -1   0   56.19    7.50
  -6   1   0   53.59   13.20
   6   1   0   50.89   10.40
   6   1   0   52.89   10.00
   0  -2   0 1840.62  110.99
   0  -2   0 1824.92  110.49
  -1  -2   0   87.59    7.30
  -1  -2   0   99.09    8.90
   1  -2   0   87.49    7.50
   1  -2   0   95.29    8.50
   2  -2   0  151.98   11.20
  -2  -2   0  155.48   11.20
   2  -2   0  158.68   12.30
  -2  -2   0  158.28   13.50
   3  -2   0  130.69   10.40
  -3  -2   0  116.99   10.40
  -3  -2   0  131.19   14.30
   3  -2   0  109.09   16.00
   3  -2   0  133.69   14.00
  -3  -2   0  150.58   14.90
   3   2   0  110.99   14.70
   3   2   0  119.59   14.10
   3   2   0  126.29   17.90
  -3   2   0  137.39   21.30
  -3   2   0  129.99   19.30
   4  -2   0   55.19   12.10
   4  -2   0   76.29   11.80
   4  -2   0   71.19    8.80
  -4  -2   0   53.19   10.00
  -4  -2   0   56.19    9.30
  -4  -2   0   55.59   11.90
   4   2   0   73.49   14.10
  -4   2   0   64.49   11.40
   4   2   0   66.49   13.80
   4   2   0   60.69   11.60
  -4   2   0  100.29   19.50
   5  -2   0  366.96   24.00
  -5  -2   0  332.87   32.90
   5  -2   0  389.56   25.00
   5  -2   0  370.56   39.40
  -5  -2   0  356.06   23.20
  -5   2   0  321.67   26.80
   5   2   0  339.77   25.60
   5   2   0  339.97   24.50
  -5   2   0  348.27   27.30
  -6  -2   0   85.59   11.10
   6  -2   0   90.99    7.90
   6   2   0   81.89    9.10
   6   2   0   91.09    8.90
  -6   2   0   96.89   13.60
   0  -3   0   -2.10    3.10
  -1  -3   0  419.76   24.80
  -1  -3   0  403.56   28.60
   1  -3   0  400.46   24.70
   1   3   0  428.86   35.10
  -1   3   0  332.67   27.30
   1   3   0  369.26   27.00
  -1   3   0  348.37   28.40
  -2  -3   0  673.23   47.30
  -2  -3   0  688.83   48.20
  -2  -3   0  781.42   44.70
   2  -3   0  746.83   44.70
   2   3   0  728.23   45.50
   2   3   0  701.83   45.50
  -2   3   0  674.73   47.40
   2   3   0  728.93   46.50
   2   3   0  731.83   49.40
  -2   3   0  695.83   46.60
   3  -3   0  854.51   59.29
   3  -3   0 1000.30   57.89
  -3  -3   0  852.91   57.99
  -3  -3   0  921.51   57.79
  -3  -3   0  873.41   61.99
   3   3   0  949.80   58.59
  -3   3   0  916.41   59.09
   3   3   0  848.42   58.29
   3   3   0 1025.70   60.49
   3   3   0  971.90   58.19
  -3   3   0  996.50   61.19
  -4  -3   0   75.79   19.10
  -4  -3   0   60.19   10.10
   4  -3   0   60.49    8.70
  -4  -3   0   55.89   10.20
   4  -3   0   55.79   10.90
   4   3   0   56.89   12.20
  -4   3   0   45.60    9.50
  -4   3   0   46.30   11.10
   4   3   0   51.09   11.20
   5  -3   0    9.40    6.30
   5  -3   0   24.00    4.40
  -5  -3   0   30.10   16.70
  -5   3   0   16.90    8.90
  -5   3   0   33.00    9.30
   5   3   0   21.40    4.90
   5   3   0   19.40    6.30
   0  -4   0  348.17   26.00
   0   4   0  421.66   27.50
   0   4   0  416.16   32.00
   0   4   0  416.16   27.90
  -1  -4   0  413.76   28.60
   1  -4   0  495.55   28.90
   1   4   0  402.46   29.40
   1   4   0  449.16   29.40
  -1   4   0  437.76   31.10
   1   4   0  434.16   31.20
  -1   4   0  431.56   29.70
  -2  -4   0  147.89   11.90
  -2  -4   0  156.98   16.40
   2  -4   0  134.49   11.70
   2   4   0  135.39   13.00
   2   4   0  114.39   14.00
  -2   4   0  120.99   13.90
  -2   4   0  136.79   16.40
   2   4   0  120.59   13.00
  -3  -4   0   49.99    9.40
   3  -4   0   65.19    9.20
   3  -4   0   56.99    8.40
  -3  -4   0   59.99   10.30
  -3   4   0   78.69   14.60
   3   4   0   62.59   10.40
   3   4   0   55.29    9.80
  -3   4   0   43.10    7.70
   3   4   0   41.20   10.00
   4  -4   0   54.59    9.50
   4  -4   0   69.19    9.60
  -4  -4   0   77.09    9.00
   4   4   0   53.29   11.10
   4   4   0   52.59    9.30
  -4   4   0   73.39   11.50
   4   4   0   60.99    8.80
  -4   4   0   57.39   14.00
   5  -4   0   34.10    5.00
  -5  -4   0   38.70    5.00
   5   4   0   40.00    6.90
   5   4   0   44.30    6.60
   0  -5   0    0.50    5.20
   0  -5   0   -5.00    8.80
   0   5   0   -4.80    4.30
   1  -5   0   15.60    5.70
   1  -5   0    4.30    9.00
  -1  -5   0   16.40    5.80
  -1  -5   0   12.40    7.90
   1   5   0   28.30   10.20
   1   5   0   26.20    5.50
  -2  -5   0  132.89   12.50
   2  -5   0  138.59   15.30
   2  -5   0  110.69   12.80
  -2  -5   0  167.38   13.60
   2   5   0  151.48   13.70
   2   5   0  130.39   12.60
  -2   5   0  130.39   12.80
  -3  -5   0  112.69   13.80
  -3  -5   0  113.89   10.20
   3  -5   0  107.89   11.50
   3  -5   0  113.69   12.10
  -3   5   0   95.89   10.60
   3   5   0  120.99   10.40
   0  -6   0  502.55   34.60
   0   6   0  596.34   34.40
   6   0  -1  416.06   29.70
   6   0  -1  423.66   28.70
  -6   0   1  358.76   28.90
  -6   0   1  412.96   28.90
   5   0  -1   12.70    8.70
  -5   0   1   25.60   11.30
  -5   0   1    6.10    9.00
   5   0  -1   12.40    5.30
   5   0  -1   38.60   13.60
   5   0  -1   10.10    9.90
   5   0  -1   29.30   11.00
   4   0  -1  438.16   29.40
  -4   0   1  492.95   30.40
  -4   0   1  422.26   33.50
   4   0  -1  461.35   31.00
   4   0  -1  430.26   34.40
   4   0  -1  433.86   36.00
   4   0  -1  455.65   30.00
  -4   0   1  484.95   35.00
  -3   0   1   69.19    7.70
   3   0  -1   82.29    8.60
   3   0  -1   70.09    7.30
   2   0  -1 5879.51  352.66
  -2   0   1 6079.79  353.06
   2   0  -1 5657.63  353.06
  -1   0   1 4477.75  264.27
   1   0  -1 4325.87  264.37
   0   0   1  164.78    9.50
   0   0  -1  147.49    9.60
  -1   0  -1  367.06   26.10
   1   0   1  479.15   26.20
  -2   0  -1    4.20    2.30
  -2   0  -1    4.60    2.40
   2   0   1    4.60    3.00
  -3   0  -1  664.23   39.80
   3   0   1  621.84   39.40
   3   0   1  604.24   38.90
  -3   0  -1  600.34   38.50
   4   0   1   61.99   10.90
   4   0   1   90.29   16.00
   4   0   1   62.09   16.20
  -4   0  -1   58.99    9.70
   4   0   1   91.09   11.00
   4   0   1   74.69   10.30
  -4   0  -1   74.69   10.60
  -4   0  -1   78.49   15.30
   5   0   1   38.60    6.40
   5   0   1   47.60   13.50
  -5   0  -1   50.79   11.80
   5   0   1   47.20   11.40
  -5   0  -1   33.80    8.60
   5   0   1   30.00    8.30
  -6   0  -1   79.59   12.90
   6   0   1   81.39   12.70
   6  -1  -1   23.00    4.30
  -6  -1   1   26.30    8.40
  -6   1   1    3.70   13.30
   6   1  -1   22.80    6.50
  -6   1   1   26.60    9.60
   6   1  -1   22.00    7.00
   5  -1  -1   94.29   10.50
  -5  -1   1   85.69   16.70
  -5  -1   1   90.99   15.30
  -5  -1   1   66.79   12.90
   5  -1  -1   81.69   19.20
  -5  -1   1   68.79   17.80
   5  -1  -1   66.89   10.70
  -5   1   1   98.89   13.60
   5   1  -1   91.69   18.90
  -5   1   1   90.79   16.60
   5   1  -1   66.59   14.00
   5   1  -1  103.39   14.20
   5   1  -1  104.49   14.70
  -5   1   1   85.19   15.70
   4  -1  -1  122.89   10.90
   4  -1  -1  127.49   13.10
   4  -1  -1  132.89   14.40
  -4  -1   1  138.59   13.90
  -4  -1   1  123.49   12.70
  -4  -1   1  137.29   12.30
  -4  -1   1  114.39   20.80
   4   1  -1  139.39   13.40
   4   1  -1  140.59   13.90
   4   1  -1  106.19   14.80
   4   1  -1  138.09   17.50
  -4   1   1  112.99   16.90
   3  -1  -1  206.88   14.80
  -3  -1   1  182.38   14.60
   3  -1  -1  195.98   13.30
  -3  -1   1  172.98   13.40
   3   1  -1  175.08   14.50
   3   1  -1  199.88   16.70
  -2  -1   1 1153.48   69.19
   2  -1  -1 1104.49   69.19
   2  -1  -1 1107.79   69.59
  -2  -1   1 1195.28   69.99
   2   1  -1 1088.29   69.49
   2   1  -1 1187.48   69.79
  -1  -1   1   33.00    4.40
   1  -1  -1   37.10    3.70
   1   1  -1   45.60    4.10
   0   1  -1   35.60    3.30
  -1  -1  -1 2364.36  154.58
   1  -1   1 2503.35  154.58
  -1   1  -1 2833.52  154.58
   2  -1   1  805.02   48.30
  -2  -1  -1  751.02   48.60
  -2   1  -1  820.12   48.20
   2   1   1  748.63   48.00
   3  -1   1 1847.52  115.19
   3  -1   1 1704.23  114.29
  -3  -1  -1 1869.61  114.19
  -3  -1  -1 1901.61  115.69
   3   1   1 2023.90  115.09
  -3   1  -1 1971.70  114.89
  -4  -1  -1   75.79    8.50
   4  -1   1   69.39    8.60
  -4  -1  -1   59.29   12.20
   4  -1   1   78.99   14.70
   4  -1   1   82.99   10.40
  -4  -1  -1   77.19   10.00
   4  -1   1   73.69   11.40
  -4   1  -1   72.59   13.10
   4   1   1   71.89   14.90
  -4   1  -1   73.09   10.20
   4   1   1   78.99   11.00
   4   1   1   71.99   12.00
   5  -1   1  290.27   22.00
   5  -1   1  300.17   20.30
   5  -1   1  279.47   27.30
   5  -1   1  295.47   26.40
  -5  -1  -1  284.77   22.90
  -5  -1  -1  284.77   26.50
  -5  -1  -1  282.57   19.50
   5   1   1  262.07   30.50
   5   1   1  298.97   22.10
  -5   1  -1  285.97   24.00
   5   1   1  285.37   23.10
   6  -1   1   17.00    4.90
  -6  -1  -1   21.60    6.90
   6  -1   1   18.50    9.50
   6   1   1   25.20    5.60
   6  -2  -1   31.90    5.50
  -6   2   1   24.00   10.30
  -5  -2   1   25.50   17.20
   5  -2  -1   53.89    9.10
   5  -2  -1   29.30    6.10
   5  -2  -1    2.20   30.00
  -5  -2   1   39.70    7.40
  -5   2   1   28.50   11.00
   5   2  -1   36.80    9.10
   5   2  -1   33.90    6.50
  -5   2   1   38.60    8.80
  -4  -2   1  152.58   13.40
   4  -2  -1  122.89   14.50
   4  -2  -1  153.78   12.70
  -4  -2   1  152.18   13.30
   4  -2  -1  143.49   20.90
  -4  -2   1  142.69   17.90
   4   2  -1  128.49   16.20
  -4   2   1  146.19   22.40
   4   2  -1  141.79   14.50
  -4   2   1  112.79   16.50
   4   2  -1  156.18   16.60
  -3  -2   1  139.89   13.80
  -3  -2   1  150.38   13.80
   3  -2  -1  109.79   15.30
  -3  -2   1  121.59   10.60
   3  -2  -1  145.89   10.50
  -3   2   1  129.79   18.10
   3   2  -1  118.69   11.50
  -3   2   1  151.78   24.80
   3   2  -1  135.19   15.10
   3   2  -1  119.19   14.00
   3   2  -1  117.59   16.60
  -3   2   1  116.89   16.10
   2  -2  -1 1764.22  116.99
  -2  -2   1 2081.69  116.59
  -2  -2   1 1978.20  117.79
   2   2  -1 1878.11  116.59
  -1  -2   1  429.26   27.40
   1  -2  -1  451.65   26.80
  -1  -2   1  422.56   26.40
   1  -2  -1  415.96   27.20
   1   2  -1  391.76   25.90
   0  -2  -1  163.78   12.00
   0  -2   1  153.38   11.00
   0  -2   1  162.08   11.60
   1  -2   1 1416.06   83.29
  -1  -2  -1 1299.77   82.59
  -1  -2  -1 1360.66   83.59
   1  -2   1 1393.86   82.89
  -2  -2  -1   71.99    6.50
   2  -2   1   58.69    6.50
   2  -2   1   63.19    7.50
  -2  -2  -1   60.59    9.90
   3  -2   1  412.46   25.60
  -3  -2  -1  389.06   27.80
   3  -2   1  442.56   28.40
  -3  -2  -1  403.56   28.70
  -3  -2  -1  385.06   25.30
   3  -2   1  431.86   27.50
  -3   2  -1  347.07   30.80
   3   2   1  331.07   27.70
   3   2   1  344.77   26.80
   3   2   1  397.06   29.30
  -3   2  -1  407.26   31.40
  -4  -2  -1  623.94   46.10
   4  -2   1  666.03   42.40
   4  -2   1  735.03   42.30
  -4  -2  -1  649.74   41.90
  -4  -2  -1  763.22   42.30
   4  -2   1  664.43   44.90
   4   2   1  693.23   44.40
   4   2   1  589.94   42.80
  -4   2  -1  631.64   46.00
  -4   2  -1  589.94   44.60
   4   2   1  641.24   42.40
   5  -2   1  148.59   30.40
  -5  -2  -1   96.29    9.90
   5  -2   1  106.69   12.00
   5  -2   1   92.49    9.90
  -5  -2  -1   69.09   23.40
  -5  -2  -1   85.69   15.10
  -5   2  -1  100.99   15.40
   5   2   1  115.59   13.30
   5   2   1  122.59   11.70
   6  -2   1   51.69    6.20
  -6  -2  -1   38.00    8.50
   6   2   1   62.29    8.00
  -6   2  -1   51.29   10.90
   6   2   1   57.09    7.60
   5  -3  -1   95.79   10.80
  -5  -3   1   77.59    8.50
   5  -3  -1  100.09    9.40
   5   3  -1   99.09   10.40
   5   3  -1   91.29   11.30
  -5   3   1   68.19   12.10
  -5   3   1   90.59   16.20
  -4  -3   1  651.23   41.50
  -4  -3   1  619.24   40.90
   4  -3  -1  622.74   41.90
   4  -3  -1  610.54   40.90
  -4   3   1  635.24   44.20
   4   3  -1  660.23   43.10
   4   3  -1  685.53   41.60
   4   3  -1  662.83   41.80
  -4   3   1  634.74   42.00
  -3  -3   1  386.76   36.90
   3  -3  -1  406.96   27.20
  -3  -3   1  407.26   32.90
  -3  -3   1  452.65   28.10
   3  -3  -1  334.57   40.10
  -3  -3   1  443.66   27.60
   3   3  -1  418.96   28.80
  -3   3   1  397.36   31.10
   3   3  -1  394.06   28.20
   3   3  -1  428.16   31.10
  -3   3   1  423.36   29.30
  -2  -3   1   27.40    8.90
  -2  -3   1   31.20   12.50
  -2   3   1   28.40    9.80
   2   3  -1   46.00   13.30
   2   3  -1   27.50    6.80
  -2   3   1   37.70   10.80
   2   3  -1   23.00    6.00
  -2   3   1    8.30    8.20
   2   3  -1   18.20    9.00
   1  -3  -1   34.20    4.70
  -1  -3   1   36.70    8.10
  -1  -3   1   34.40    5.90
   1   3  -1   36.60   12.50
   1   3  -1   40.50    8.20
   1   3  -1   24.10    6.40
  -1   3   1   33.10   10.00
  -1   3   1   40.10    8.50
   0  -3   1  962.70   56.59
   0  -3  -1  981.40   56.49
   0   3  -1  810.72   62.79
  -1  -3  -1  343.17   22.50
   1  -3   1  343.57   25.60
   1  -3   1  320.97   22.60
   1   3   1  351.06   25.10
   1   3   1  429.36   34.20
  -1   3  -1  362.66   27.00
  -1   3  -1  335.77   25.60
   2  -3   1  162.08   11.40
  -2  -3  -1  138.59   11.10
   2  -3   1  142.49   15.20
  -2  -3  -1  126.99   25.40
   2  -3   1  124.09   21.60
  -2   3  -1  134.59   16.30
   2   3   1  156.78   14.80
   2   3   1  120.99   14.40
   2   3   1  143.49   20.10
  -2   3  -1  154.08   17.00
   2   3   1  144.89   14.80
   3  -3   1  222.18   16.70
   3  -3   1  230.48   24.00
  -3  -3  -1  217.28   18.90
  -3  -3  -1  225.78   16.90
  -3  -3  -1  188.28   27.70
  -3   3  -1  224.98   20.40
   3   3   1  256.87   19.00
   3   3   1  218.48   19.00
   3   3   1  253.37   18.10
   4  -3   1   78.69   10.10
  -4  -3  -1   71.19   10.70
   4  -3   1   75.09    9.20
   4  -3   1   45.20   20.10
  -4  -3  -1   90.79   22.20
  -4  -3  -1   59.19    9.60
   4   3   1   74.09   12.10
   4   3   1   65.59   10.50
   4   3   1   55.19    9.30
  -4   3  -1   60.99   11.90
  -4   3  -1   66.89   11.00
  -5  -3  -1   41.90    7.10
  -5  -3  -1   35.50   10.40
   5  -3   1   28.30    7.30
   5  -3   1   43.20    6.60
   5   3   1   54.79    9.50
  -5   3  -1   35.30    8.60
   5   3   1   46.40    7.90
  -5  -4   1   33.00    5.10
   5  -4  -1   35.00    5.40
   5   4  -1   41.50    5.90
  -5   4   1   39.50    7.80
   5   4  -1   31.10    6.50
  -4  -4   1   37.70    7.50
   4  -4  -1   25.90    6.00
   4  -4  -1   21.20    5.80
  -4  -4   1   35.40   10.00
   4   4  -1   19.70    5.80
   4   4  -1   22.40    5.00
   4   4  -1   31.90    7.90
  -4   4   1   22.20    5.80
   3  -4  -1  191.38   14.50
  -3  -4   1  191.48   14.80
  -3  -4   1  190.18   14.80
   3  -4  -1  142.49   19.80
   3   4  -1  160.88   14.40
   3   4  -1  166.28   15.20
  -3   4   1  168.78   16.10
   3   4  -1  171.28   17.70
  -3   4   1  173.28   18.40
   2  -4  -1  434.16   30.40
  -2  -4   1  425.76   31.20
  -2  -4   1  428.36   30.30
   2   4  -1  468.65   31.90
   2   4  -1  517.65   31.10
  -2   4   1  482.65   31.90
  -2   4   1  500.45   33.20
   2   4  -1  463.65   30.70
  -1  -4   1  219.08   15.70
   1  -4  -1  191.08   15.70
  -1  -4   1  198.78   19.80
   1   4  -1  215.48   16.50
  -1   4   1  216.18   19.50
  -1   4   1  209.38   17.20
   1   4  -1  192.58   17.00
   1   4  -1  211.48   19.40
   0  -4  -1  252.57   18.20
   0  -4   1  255.87   23.90
   0  -4   1  281.27   18.40
   0   4  -1  276.17   19.90
   0   4  -1  226.08   25.60
   0   4   1  275.17   20.10
   0   4  -1  238.78   20.20
   1  -4   1  153.38   18.80
  -1  -4  -1  116.49   12.00
   1  -4   1  158.38   12.30
   1   4   1  131.09   13.10
  -1   4  -1  130.29   14.80
  -1   4  -1  154.18   15.80
   1   4   1  128.29   16.30
  -1   4  -1  145.99   13.70
   2  -4   1   31.80    9.40
  -2  -4  -1   41.80    6.20
  -2  -4  -1   12.50   10.00
   2  -4   1   36.10    8.10
  -2   4  -1   27.40    8.10
  -2   4  -1   28.80    8.60
   2   4   1   39.30   19.30
   2   4   1   43.50    8.30
   2   4   1   22.10    6.70
   2   4   1   40.30    7.00
  -3  -4  -1   31.60    7.00
   3  -4   1   33.70    7.00
   3  -4   1   24.40    6.10
  -3  -4  -1   28.10    6.40
  -3   4  -1   38.10    8.00
   3   4   1   28.40    5.80
  -3   4  -1   38.60    8.20
   3   4   1   34.80    8.60
   3   4   1   34.20    7.00
  -4  -4  -1  123.09   11.60
  -4  -4  -1  111.09   12.70
   4  -4   1  120.29   11.70
   4  -4   1  143.49   12.50
   4   4   1  142.19   11.60
  -4   4  -1  138.39   15.90
  -4   4  -1  149.09   14.70
  -4   4  -1  122.89   13.50
   4   4   1  134.69   13.50
  -5  -4  -1  148.29   10.40
   5  -4   1  159.48   10.50
   5   4   1  127.09   11.30
  -5   4  -1  162.58   12.30
   3  -5  -1   60.19   10.90
   3  -5  -1   50.69   10.70
  -3  -5   1   45.40    7.10
   3   5  -1   55.19    7.80
  -3   5   1   41.00    7.40
  -2  -5   1   62.29   10.00
   2  -5  -1   69.39   10.90
   2  -5  -1   65.99   10.10
  -2   5   1   58.29    9.40
   2   5  -1   60.19   10.70
   2   5  -1   58.99    9.10
   1  -5  -1   46.70    7.00
  -1  -5   1   33.90    6.50
  -1  -5   1   31.30    7.30
  -1   5   1   48.90    9.00
   1   5  -1   39.20    9.90
   1   5  -1   26.90    5.50
   0  -5  -1   26.30    5.90
   0  -5   1   28.60    6.10
   0  -5   1   26.80    7.50
   0   5  -1   23.10    5.60
   0   5   1   16.10    5.00
   1  -5   1  188.88   17.90
   1  -5   1  229.58   16.10
  -1  -5  -1  224.28   16.20
   1   5   1  213.08   16.10
   1   5   1  199.98   19.70
  -1   5  -1  191.48   16.10
   2  -5   1  120.89   13.10
   2  -5   1  116.59   17.30
  -2  -5  -1  152.68   13.50
   2  -5   1  149.79   13.50
  -2  -5  -1  155.38   14.10
  -2   5  -1  136.69   12.90
   2   5   1  155.68   14.00
   2   5   1  138.99   12.80
   3  -5   1  117.39   13.00
  -3  -5  -1  111.19   13.20
  -3  -5  -1  135.49   11.20
   3  -5   1  132.69   11.00
  -3   5  -1  140.79   11.80
   0  -6  -1   55.89    8.20
   0   6   1   50.39    6.30
   0   6  -1   51.29    6.40
   6   0  -2   41.90    7.70
   6   0  -2   45.80   10.40
  -6   0   2   40.70    7.90
  -6   0   2   46.00   11.60
   5   0  -2   58.49    9.50
   5   0  -2   69.29   13.40
  -5   0   2   41.10   10.60
   5   0  -2   69.29   14.40
  -5   0   2   65.09   12.80
   5   0  -2   58.99   13.80
  -4   0   2  111.29   11.10
  -4   0   2  116.69   16.70
  -4   0   2  117.19   23.80
   4   0  -2   94.49   11.90
   4   0  -2  100.99   21.50
   4   0  -2   83.69   16.50
   4   0  -2  101.89   10.20
   4   0  -2  108.89   12.90
   3   0  -2 1028.40   63.69
   3   0  -2 1037.20   64.69
  -3   0   2 1055.99   63.99
   2   0  -2   60.49    6.20
  -2   0   2   66.19    5.70
   1   0  -2 1910.71  115.19
   0   0  -2   75.09    5.30
   0   0   2   78.79    5.10
  -1   0  -2  128.39    9.20
   1   0   2  136.79    9.00
  -2   0  -2  522.85   34.10
   2   0   2  580.04   34.00
  -2   0  -2  592.14   33.60
   2   0   2  476.95   33.80
   3   0   2   18.30    4.20
   3   0   2   23.40    6.30
  -3   0  -2   11.60    4.30
  -3   0  -2   15.30    3.10
  -4   0  -2  376.26   26.80
  -4   0  -2  407.76   26.00
   4   0   2  401.26   27.40
   4   0   2  410.66   32.40
  -4   0  -2  396.26   28.10
   4   0   2  396.06   28.60
   4   0   2  394.76   26.90
  -4   0  -2  395.16   29.60
  -5   0  -2  183.78   20.50
   5   0   2  145.99   17.00
  -5   0  -2  173.78   17.00
   5   0   2  162.48   19.80
   5   0   2  177.68   20.50
   5   0   2  195.98   18.50
  -5   0  -2  162.58   17.50
   6   0   2    8.50    5.80
  -6   0  -2   -6.80    6.90
   6  -1  -2   14.00    3.90
  -6   1   2    2.30    7.60
   6   1  -2   12.60    6.90
   6   1  -2   28.00    6.90
   5  -1  -2   71.49   10.40
   5  -1  -2   65.29    9.80
  -5  -1   2   98.49   17.20
  -5  -1   2   63.49   13.30
   5  -1  -2   47.40   15.20
  -5   1   2   99.79   14.90
  -5   1   2   72.99   14.40
   5   1  -2   74.09   18.20
  -5   1   2   81.69   13.10
   4  -1  -2  686.53   44.60
   4  -1  -2  757.52   47.10
   4  -1  -2  694.93   45.40
  -4  -1   2  692.93   47.60
  -4  -1   2  802.72   44.60
  -4  -1   2  741.83   46.40
  -4   1   2  747.13   51.29
   4   1  -2  680.53   46.50
  -4   1   2  712.23   46.90
   4   1  -2  684.73   44.90
   4   1  -2  646.94   46.60
   4   1  -2  683.23   47.70
   3  -1  -2  366.06   23.90
   3  -1  -2  312.77   22.00
  -3  -1   2  311.97   22.30
  -3  -1   2  314.97   23.00
   3   1  -2  386.36   23.60
   3   1  -2  353.96   22.60
  -2  -1   2  180.18   12.10
   2  -1  -2  165.38   12.40
  -2  -1   2  183.28   12.60
   2  -1  -2  171.98   11.70
   2   1  -2  170.18   12.50
   2   1  -2  157.58   12.10
  -1  -1   2  184.98   12.60
  -1  -1   2  176.58   12.70
   1   1  -2  207.08   12.60
   0  -1   2 1978.00  128.29
   0   1  -2 2280.87  128.39
  -1  -1  -2 9999.00  561.94
   1  -1   2 9154.68  561.64
  -1   1  -2 8924.71  561.84
   2  -1   2  286.57   16.80
  -2   1  -2  235.78   16.70
   2   1   2  223.68   16.10
  -3  -1  -2  479.85   29.40
  -3  -1  -2  475.65   31.40
   3  -1   2  465.65   30.40
   3  -1   2  432.96   29.60
  -3   1  -2  466.65   30.30
   3   1   2  471.65   29.90
   4  -1   2   34.70   11.40
  -4  -1  -2   49.00   10.00
   4  -1   2   34.00    6.20
  -4  -1  -2   42.00    7.00
   4  -1   2   38.90    7.90
  -4  -1  -2   26.10    5.60
   4   1   2   30.40   10.60
  -4   1  -2   32.90    7.50
   4   1   2   29.30    7.00
   4   1   2   28.10    7.30
  -4   1  -2   29.60   11.00
  -5  -1  -2    5.50    4.30
  -5  -1  -2   18.70   13.50
  -5  -1  -2   19.20    8.10
   5  -1   2    5.20    9.40
   5  -1   2   18.80   12.60
   5  -1   2   14.60    4.90
  -5   1  -2    7.30    8.30
   5   1   2    2.30    7.80
   5   1   2    0.20    5.90
   6  -1   2  428.46   28.00
  -6  -1  -2  372.26   26.20
   6   1   2  383.96   26.10
  -6   1  -2  361.76   26.90
   6   1   2  374.66   25.40
   6  -2  -2  198.28   13.50
  -6  -2   2  225.68   17.80
  -6   2   2  204.38   15.50
   6   2  -2  185.48   14.50
   6   2  -2  160.68   14.60
  -5  -2   2  510.45   47.50
   5  -2  -2  459.15   32.40
   5  -2  -2  470.75   32.30
  -5  -2   2  541.75   44.30
  -5  -2   2  459.45   31.30
  -5   2   2  493.95   37.20
   5   2  -2  542.65   34.50
   5   2  -2  478.05   33.10
  -5   2   2  519.05   33.30
  -4  -2   2  246.58   18.50
  -4  -2   2  246.08   19.40
   4  -2  -2  263.57   18.10
  -4  -2   2  238.88   24.20
   4  -2  -2  225.48   26.50
  -4  -2   2  246.88   22.60
   4  -2  -2  233.18   20.30
   4   2  -2  254.17   21.40
   4   2  -2  266.87   19.80
  -4   2   2  229.28   21.30
   4   2  -2  268.77   22.00
  -4   2   2  282.87   27.30
   4   2  -2  254.47   21.20
   3  -2  -2  526.65   30.40
  -3  -2   2  500.75   34.10
  -3  -2   2  535.05   32.70
  -3  -2   2  496.65   31.50
  -3  -2   2  493.85   30.50
   3   2  -2  457.05   31.30
   3   2  -2  441.86   32.40
   3   2  -2  413.06   32.30
  -3   2   2  457.15   33.40
   3   2  -2  489.45   34.20
  -3   2   2  472.15   39.20
  -3   2   2  400.46   33.40
  -2  -2   2  325.77   22.00
   2  -2  -2  311.67   20.10
  -2  -2   2  304.97   20.40
   2   2  -2  310.87   20.80
  -1  -2   2 1073.79   66.59
   1   2  -2 1090.39   65.99
   0   2  -2  591.34   36.30
   1  -2   2  587.84   35.10
  -1  -2  -2  521.65   35.90
  -1  -2  -2  544.55   34.30
  -1   2  -2  579.04   34.40
   2  -2   2  297.37   19.60
  -2  -2  -2  319.17   19.40
  -2  -2  -2  284.17   22.20
   2  -2   2  302.17   20.20
  -2   2  -2  285.17   19.10
  -3  -2  -2  487.85   29.50
   3  -2   2  440.76   30.80
  -3  -2  -2  492.75   33.50
  -3  -2  -2  438.06   32.00
   3  -2   2  482.45   31.30
   3  -2   2  511.35   29.80
  -3   2  -2  385.26   34.20
   3   2   2  443.36   30.80
   3   2   2  446.86   32.50
   3   2   2  457.95   31.60
   4  -2   2  710.93   49.60
   4  -2   2  722.43   47.20
  -4  -2  -2  764.72   47.40
  -4  -2  -2  708.73   47.00
  -4  -2  -2  696.73   51.59
   4  -2   2  724.53   47.30
  -4   2  -2  795.92   51.29
   4   2   2  775.22   47.70
   4   2   2  838.32   49.80
   5  -2   2   10.20    4.30
  -5  -2  -2   10.30    8.50
   5  -2   2   25.40    7.40
  -5  -2  -2   15.30    4.50
   5   2   2    0.80    6.30
  -5   2  -2    8.00    7.50
   5   2   2    4.00    5.00
   6  -2   2   17.90    5.60
  -6  -2  -2    6.70    5.70
   6   2   2    2.50    4.80
   6   2   2    2.50    3.60
  -6   2  -2    1.10    6.40
   5  -3  -2  165.48   13.00
   5  -3  -2  138.79   14.10
  -5  -3   2  146.19   12.10
  -5   3   2  162.38   31.20
   5   3  -2  172.58   13.70
   5   3  -2  164.08   14.10
   5   3  -2  194.98   15.00
  -5   3   2  168.08   14.80
   4  -3  -2   93.99   14.40
  -4  -3   2   90.99   11.00
   4  -3  -2  102.49    9.90
  -4  -3   2  108.79   13.30
  -4  -3   2   89.59   15.00
  -4  -3   2  110.59   24.40
  -4   3   2   86.79   13.40
   4   3  -2  100.99   11.70
   4   3  -2   87.89   12.30
   4   3  -2  103.19   14.20
  -4   3   2   90.59   14.00
  -3  -3   2   34.70   11.10
  -3  -3   2   43.60   11.80
   3   3  -2   24.30    7.60
  -3   3   2   17.20   10.00
  -3   3   2   39.60    8.70
   3   3  -2   22.20   10.20
   3   3  -2   23.50    6.70
  -2  -3   2   29.20    9.10
  -2  -3   2   24.10    7.90
  -2  -3   2   29.50   10.60
  -2  -3   2   33.40    6.50
   2  -3  -2   28.30    4.80
   2   3  -2   28.20   13.40
   2   3  -2   18.70    6.20
   2   3  -2   32.80    7.40
  -2   3   2   29.70    9.90
   2   3  -2   39.50    9.30
  -2   3   2   23.60    7.80
   1  -3  -2  102.09    9.60
  -1  -3   2  115.39    9.10
  -1   3   2  100.19   16.90
   1   3  -2   77.19   11.90
  -1   3   2   86.09   13.70
   1   3  -2  101.69   16.00
   1   3  -2  127.89   14.80
   0  -3  -2  281.17   18.50
   0  -3   2  305.67   18.60
   0   3  -2  272.67   21.60
   0   3   2  249.88   21.70
   0   3  -2  272.87   26.20
   1  -3   2  380.76   25.20
  -1  -3  -2  379.96   24.80
   1  -3   2  407.86   27.10
  -1   3  -2  391.66   28.70
  -1   3  -2  409.16   29.30
   1   3   2  391.06   29.10
  -1   3  -2  354.36   28.00
   1   3   2  402.66   28.10
   2  -3   2  346.97   28.60
  -2  -3  -2  389.76   25.20
   2  -3   2  402.26   27.70
   2  -3   2  402.46   25.60
  -2   3  -2  365.96   29.30
   2   3   2  397.26   30.50
   2   3   2  402.86   27.10
   2   3   2  375.56   27.70
  -2   3  -2  377.36   28.80
   2   3   2  408.46   27.90
  -2   3  -2  429.26   29.20
   3  -3   2  186.08   16.00
   3  -3   2  188.58   14.40
  -3  -3  -2  162.38   17.30
   3  -3   2  176.28   20.80
  -3  -3  -2  195.98   14.50
  -3   3  -2  179.38   20.30
   3   3   2  176.48   18.50
   3   3   2  186.28   16.60
   3   3   2  177.88   15.30
  -4  -3  -2   70.49   10.30
  -4  -3  -2   46.60   24.20
   4  -3   2   69.49   18.20
   4  -3   2   81.59    9.60
   4  -3   2   87.19   10.10
  -4  -3  -2   87.99    9.70
   4   3   2   83.79   12.50
   4   3   2   81.09   10.30
  -4   3  -2   69.89   16.20
  -5  -3  -2  113.09    9.40
   5  -3   2  101.69   13.50
   5  -3   2   95.29    9.40
  -5  -3  -2  116.39   13.80
   5   3   2  101.19   10.50
   5   3   2   99.29   11.50
  -5   3  -2  123.89   13.50
   5  -4  -2  118.29   10.00
   5   4  -2  140.89   10.10
   5   4  -2  127.19   10.60
  -5   4   2  143.89   10.90
   4  -4  -2   80.89   10.70
   4  -4  -2   76.09   11.10
  -4  -4   2   85.59   15.00
  -4  -4   2   84.79    9.20
   4   4  -2   85.99   10.20
   4   4  -2   79.89    9.40
  -4   4   2   85.79   16.20
   4   4  -2   77.39   12.10
  -4   4   2   92.49   10.70
  -3  -4   2   43.30    9.70
  -3  -4   2   24.70   12.10
   3   4  -2   63.69   11.20
  -3   4   2   31.90   10.20
   3   4  -2   54.79    9.40
   3   4  -2   47.80   10.00
  -3   4   2   50.79    8.70
  -2  -4   2  356.96   25.20
   2  -4  -2  339.47   24.70
  -2  -4   2  387.56   24.60
  -2  -4   2  351.16   26.80
   2   4  -2  318.57   37.20
  -2   4   2  382.26   28.00
   2   4  -2  396.16   25.40
   2   4  -2  354.76   26.10
  -2   4   2  358.86   26.30
   2   4  -2  361.66   25.30
  -1  -4   2  513.85   33.70
   1  -4  -2  509.35   32.60
  -1  -4   2  515.65   32.60
   1   4  -2  499.35   34.70
   1   4  -2  461.45   33.20
   1   4  -2  517.75   33.10
  -1   4   2  495.55   33.60
   0  -4   2  128.99   11.20
   0  -4  -2  130.09   11.20
   0  -4   2   89.09   15.90
   0   4  -2  123.99   12.80
   0   4  -2  120.89   13.80
   0   4  -2  125.19   19.60
   0   4   2  105.59   13.10
   1  -4   2  250.67   18.10
   1  -4   2  246.88   21.30
  -1  -4  -2  272.27   18.10
   1   4   2  258.87   21.60
   1   4   2  241.68   19.20
  -1   4  -2  242.08   20.30
  -1   4  -2  233.68   21.10
  -1   4  -2  264.07   19.80
   2  -4   2    7.30    4.80
  -2  -4  -2    6.80    5.30
   2  -4   2   19.40    7.40
  -2   4  -2   18.50    8.10
  -2   4  -2   20.50    7.10
  -2   4  -2    4.90    6.70
   2   4   2   13.90    7.40
   2   4   2   -0.10   12.90
   2   4   2    9.10    6.20
  -3  -4  -2   95.29   13.90
   3  -4   2  133.09   12.20
   3  -4   2  141.29   13.00
  -3  -4  -2  127.49   11.50
  -3   4  -2  120.69   14.30
   3   4   2  125.09   14.60
  -3   4  -2  128.39   15.90
   3   4   2  112.39   12.70
  -3   4  -2  110.39   14.70
   3   4   2  126.99   12.40
   4  -4   2  288.57   20.90
  -4  -4  -2  313.87   20.00
   4  -4   2  290.17   19.70
  -4  -4  -2  304.37   21.00
  -4   4  -2  285.17   21.10
   4   4   2  267.57   19.60
   4   4   2  288.07   21.10
  -4   4  -2  289.57   23.00
  -3  -5   2  178.68   17.40
   3  -5  -2  169.88   18.10
  -3  -5   2  222.68   14.00
   3  -5  -2  157.18   16.70
   3   5  -2  215.18   14.40
  -3   5   2  188.28   14.20
   3   5  -2  207.48   14.60
  -2  -5   2  102.39   11.80
  -2  -5   2  124.09   10.60
  -2  -5   2   82.99   15.90
   2  -5  -2  109.89   12.30
   2   5  -2  112.49   10.80
   2   5  -2  107.49   10.80
   2   5  -2  113.59   11.90
   1  -5  -2   13.30    6.20
  -1  -5   2    4.30    5.80
  -1  -5   2    0.40    5.90
   1   5  -2    7.50    5.10
   1   5  -2    1.30    6.00
   1   5  -2    9.10    8.60
  -1   5   2   14.00    5.60
   0  -5   2  394.56   25.30
   0  -5   2  404.56   25.90
   0  -5  -2  381.66   25.30
   0   5   2  350.16   25.20
   0   5  -2  332.17   27.00
   0   5  -2  368.26   25.10
  -1  -5  -2  435.36   28.80
   1  -5   2  408.76   29.00
   1  -5   2  384.76   29.60
  -1   5  -2  476.55   29.30
   1   5   2  486.05   29.20
  -2  -5  -2  162.68   14.40
   2  -5   2  132.49   17.60
   2  -5   2  162.58   13.30
  -2  -5  -2  153.78   13.20
   2  -5   2  147.99   13.70
  -2   5  -2  143.89   12.90
   2   5   2  119.79   13.40
   3  -5   2    5.70    7.00
   3  -5   2   16.60    3.90
  -3  -5  -2    4.20    4.80
   3  -5   2    7.10    6.90
  -3  -5  -2   10.60    6.60
  -3   5  -2    9.20    5.90
  -6   0   3   12.60    6.70
   6   0  -3   13.00    4.40
  -6   0   3    8.80    8.60
   5   0  -3   17.20   13.10
   5   0  -3    8.70    5.10
   5   0  -3   -9.30   13.00
   5   0  -3   23.80    7.00
  -5   0   3    7.00    9.40
  -5   0   3   14.30   16.10
   4   0  -3   13.50    5.60
  -4   0   3    4.00    8.80
   4   0  -3   14.80    8.00
   4   0  -3   12.30    4.50
   4   0  -3    3.70   14.80
   3   0  -3  233.58   16.90
   3   0  -3  273.17   18.90
   2   0  -3 1398.36   85.39
   1   0  -3  802.12   48.60
  -1   0   3  789.82   48.10
   0   0   3    8.50    1.90
   0   0  -3   11.40    2.70
  -1   0  -3  515.55   35.00
  -1   0  -3  581.24   34.70
   1   0   3  598.14   34.80
   2   0   3  393.66   23.80
  -2   0  -3  346.57   24.10
  -3   0  -3  435.06   29.00
  -3   0  -3  438.16   27.30
   3   0   3  420.36   27.90
   4   0   3  277.87   21.20
  -4   0  -3  254.87   21.20
  -4   0  -3  270.27   18.60
   4   0   3  233.88   20.40
   4   0   3  252.67   25.30
  -4   0  -3  253.47   19.20
  -4   0  -3  294.17   22.50
   4   0   3  286.47   20.10
  -5   0  -3   -6.80   11.40
   5   0   3   -1.00   12.70
   5   0   3    6.10   11.10
   5   0   3    5.20    7.10
  -5   0  -3    6.90    5.10
  -5   0  -3   -5.80    7.20
   6   0   3  222.88   16.50
  -6   0  -3  203.68   17.40
   6  -1  -3  267.17   18.30
  -6  -1   3  253.57   22.70
   6   1  -3  279.77   20.20
   6   1  -3  264.97   20.80
  -6   1   3  277.57   19.90
  -5  -1   3  230.68   24.60
   5  -1  -3  279.47   18.90
   5  -1  -3  267.77   29.80
   5  -1  -3  273.27   18.90
   5   1  -3  259.27   22.00
   5   1  -3  236.58   22.20
  -5   1   3  247.78   20.20
  -5   1   3  253.17   21.30
   5   1  -3  234.08   18.30
   4  -1  -3   56.69   11.90
   4  -1  -3   34.00   10.20
  -4  -1   3   28.80    6.90
  -4  -1   3   75.79   14.70
  -4  -1   3   38.00    8.30
   4  -1  -3   49.99    7.40
   4   1  -3   49.50   12.00
   4   1  -3   53.99   10.40
   4   1  -3   45.50   11.90
   4   1  -3   51.99    9.40
  -4   1   3   38.60    9.20
  -3  -1   3  147.89   12.30
  -3  -1   3  118.09   12.40
   3  -1  -3  148.89   11.10
   3  -1  -3  159.48   14.10
   3   1  -3  150.18   11.80
   3   1  -3  151.18   12.90
   3   1  -3  166.88   19.10
  -3   1   3  151.68   20.60
   2  -1  -3  269.27   17.80
  -2  -1   3  266.97   18.40
   2  -1  -3  263.97   18.90
  -2  -1   3  286.07   18.80
   2   1  -3  305.27   19.00
  -1  -1   3 3795.32  208.38
   1   1  -3 3244.58  208.68
   1   1  -3 3353.56  208.38
   0  -1   3 3399.36  206.28
   0   1  -3 3455.65  206.38
   1  -1   3 2927.31  176.48
   1  -1   3 2977.50  176.68
  -1  -1  -3 2990.20  176.68
  -1   1  -3 2985.40  176.88
  -1   1  -3 2776.42  176.48
  -2  -1  -3  584.94   36.90
   2  -1   3  652.13   37.60
  -2  -1  -3  592.34   38.10
  -2   1  -3  619.54   37.80
  -2   1  -3  542.75   37.30
  -3  -1  -3  112.19    8.20
   3  -1   3   87.89   11.50
   3  -1   3   92.69    9.50
   3  -1   3   93.89    9.00
  -3  -1  -3  105.09   12.00
  -3   1  -3   97.29    9.70
   3   1   3   93.59   17.20
   3   1   3   86.59   13.20
  -3   1  -3   70.29   17.10
   3   1   3   81.99    8.80
  -4  -1  -3  467.85   31.10
  -4  -1  -3  430.06   26.80
   4  -1   3  422.56   26.70
   4  -1   3  395.26   28.30
   4  -1   3  404.96   27.40
  -4  -1  -3  433.36   26.30
   4  -1   3  411.26   29.90
  -4   1  -3  387.26   28.20
  -4   1  -3  325.57   33.20
   4   1   3  393.26   29.50
   4   1   3  353.06   27.40
  -4   1  -3  369.26   29.60
   5  -1   3  502.35   36.00
  -5  -1  -3  561.34   36.30
  -5  -1  -3  469.75   32.90
  -5  -1  -3  498.45   39.40
   5  -1   3  519.45   33.10
   5  -1   3  462.55   38.30
  -5  -1  -3  596.24   36.30
  -5   1  -3  500.95   35.80
   5   1   3  530.55   34.80
   5   1   3  550.94   35.60
  -6  -1  -3   22.20    6.60
   6  -1   3   25.60    6.70
  -6   1  -3   19.90    6.40
   6   1   3   38.40    7.90
   6   1   3   31.50    5.50
   6  -2  -3   51.69    6.20
   6   2  -3   57.19    8.50
  -6   2   3   47.60    9.30
   6   2  -3   48.40    8.00
   5  -2  -3   34.40    6.20
  -5  -2   3   49.20   12.00
   5  -2  -3   44.40    7.20
   5   2  -3   31.20    6.80
  -5   2   3   56.69   11.20
   4  -2  -3  110.29   15.30
  -4  -2   3  131.79   16.90
  -4  -2   3  126.89   16.90
   4  -2  -3  134.59   10.80
  -4   2   3   97.09   14.50
   4   2  -3   86.49   16.00
   4   2  -3   83.29   15.80
  -4   2   3   91.59   14.60
   4   2  -3   91.89   15.30
   4   2  -3  131.19   15.20
  -3  -2   3  815.82   50.29
  -3  -2   3  753.12   48.50
  -3  -2   3  834.22   50.79
  -3  -2   3  789.42   48.90
   3  -2  -3  785.82   48.20
   3   2  -3  696.23   49.50
  -3   2   3  759.62   50.69
  -3   2   3  764.72   51.09
   3   2  -3  734.03   50.29
   3   2  -3  778.92   49.70
   3   2  -3  753.72   49.99
   3   2  -3  864.91   52.39
   2  -2  -3  271.27   18.50
  -2  -2   3  294.37   20.30
  -2  -2   3  288.47   18.90
  -1  -2   3   95.79    8.60
   1   2  -3  122.19    8.90
   0  -2   3   40.50    5.90
   0   2  -3   39.20    5.10
   1  -2   3   75.29    7.30
   1  -2   3   83.49    7.50
  -1  -2  -3   74.39    7.20
  -1   2  -3   68.79    7.00
  -2  -2  -3 1539.35  103.99
  -2  -2  -3 1795.62  102.09
   2  -2   3 1520.75  102.19
   2  -2   3 1756.72  102.99
  -2   2  -3 1807.42  102.59
  -3  -2  -3  381.96   30.30
  -3  -2  -3  366.36   29.10
   3  -2   3  383.16   27.20
  -3  -2  -3  390.46   25.30
   3  -2   3  393.96   25.50
   3  -2   3  388.56   26.40
   3   2   3  403.36   29.30
   3   2   3  389.16   27.30
  -3   2  -3  413.26   30.40
   3   2   3  370.86   26.50
   4  -2   3   78.99   10.30
   4  -2   3   69.69    9.70
   4  -2   3   67.29   14.50
  -4  -2  -3   83.89   11.30
  -4  -2  -3   80.09    9.10
  -4  -2  -3   51.69   15.70
   4   2   3   76.49   13.00
  -4   2  -3   86.89   16.80
   4   2   3   83.09   11.30
  -5  -2  -3  108.89   14.10
  -5  -2  -3  124.79   10.90
   5  -2   3  130.39   10.80
   5   2   3  127.69   13.10
   5   2   3  123.79   12.10
  -5   2  -3  111.29   15.10
  -6  -2  -3   57.69    8.50
  -6   2  -3   49.50    9.40
   6   2   3   43.70    7.10
   6   2   3   47.00    6.70
   5  -3  -3   28.80    6.70
  -5  -3   3   25.50    6.00
  -5   3   3   13.20    5.70
   5   3  -3   29.20    7.50
   5   3  -3   22.10    7.20
   4  -3  -3   27.40    8.40
  -4  -3   3   48.80   10.60
   4  -3  -3   35.90    8.10
  -4  -3   3   31.80    6.00
  -4  -3   3   47.20   11.80
   4   3  -3   25.50    7.00
   4   3  -3   33.50    8.80
   4   3  -3   29.20    6.30
  -3  -3   3  136.29   13.10
   3  -3  -3  152.98   12.00
  -3  -3   3  130.39   16.20
  -3  -3   3  136.39   13.40
   3   3  -3  129.59   14.50
  -3   3   3  131.19   22.50
   3   3  -3  131.69   14.20
   3   3  -3  135.39   17.20
  -3   3   3  131.59   15.90
  -2  -3   3   73.49   11.20
  -2  -3   3   70.29    8.20
  -2  -3   3   54.79    8.10
   2  -3  -3   75.49    8.40
   2   3  -3   53.49   11.00
  -2   3   3   77.99   10.40
   2   3  -3   61.29   13.40
  -2   3   3   68.39   13.10
   2   3  -3   56.09    8.90
   2   3  -3   88.09   14.70
  -1  -3   3 1087.89   63.89
  -1  -3   3 1036.70   64.89
   1   3  -3 1021.30   66.09
   1   3  -3 1032.60   65.19
  -1   3   3 1070.79   67.89
   1   3  -3 1011.40   64.69
  -1   3   3 1013.80   65.49
   0  -3   3  461.95   28.20
   0  -3   3  483.15   30.10
   0   3  -3  401.46   31.00
   0   3  -3  444.26   34.70
   0   3  -3  434.26   31.00
   0   3  -3  429.66   30.20
   0   3   3  415.26   29.90
  -1  -3  -3  108.29    9.20
   1  -3   3  123.59   11.50
  -1   3  -3   97.79   15.80
  -1   3  -3   85.19   14.60
   1   3   3   81.39   15.90
   1   3   3   80.19   16.60
   2  -3   3  229.38   19.80
   2  -3   3  249.08   17.60
   2  -3   3  249.48   20.10
  -2  -3  -3  250.87   17.20
   2   3   3  272.57   20.10
  -2   3  -3  254.77   21.90
   2   3   3  224.88   21.00
   2   3   3  260.67   22.40
   2   3   3  240.88   19.60
  -2   3  -3  249.58   22.60
  -2   3  -3  256.27   21.90
   3  -3   3   10.90    4.90
   3  -3   3    5.60   10.20
   3  -3   3   10.80    5.60
  -3  -3  -3   13.50    5.00
  -3  -3  -3   -2.80    8.80
   3   3   3    1.70    6.90
   3   3   3   10.50    8.40
  -3   3  -3   11.20    9.20
   3   3   3   11.30    5.60
  -4  -3  -3  201.58   15.50
   4  -3   3  201.08   16.00
  -4  -3  -3  184.98   14.90
   4  -3   3  207.88   14.90
   4  -3   3  140.39   26.00
  -4   3  -3  194.28   20.00
   4   3   3  198.58   17.50
   4   3   3  190.28   15.10
   5  -3   3   86.69    8.20
  -5  -3  -3   96.99    8.70
  -5  -3  -3   79.09   13.10
   5   3   3   88.49    9.40
   5   3   3   95.59   10.50
  -5   3  -3   91.19   11.90
   4  -4  -3    1.20    5.90
  -4  -4   3    9.00    4.20
  -4  -4   3   14.90   18.10
   4  -4  -3   10.70    6.80
   4   4  -3    5.20    5.20
  -4   4   3    1.70    5.20
   4   4  -3    4.10    4.50
   4   4  -3    2.40    6.00
   3  -4  -3  486.15   33.30
  -3  -4   3  461.15   33.60
  -3  -4   3  502.25   35.00
  -3  -4   3  484.15   32.70
  -3   4   3  497.25   34.30
   3   4  -3  541.95   36.00
  -3   4   3  527.15   36.90
   3   4  -3  534.65   33.30
   3   4  -3  543.55   34.00
  -2  -4   3  433.16   30.30
  -2  -4   3  464.95   28.70
   2  -4  -3  452.35   28.80
  -2  -4   3  419.16   36.30
  -2  -4   3  502.55   28.90
   2   4  -3  410.46   36.40
   2   4  -3  409.06   29.20
   2   4  -3  395.06   29.00
  -2   4   3  399.26   29.70
   2   4  -3  399.96   29.50
  -1  -4   3   28.70    6.40
  -1  -4   3   39.20   15.40
  -1  -4   3   41.30    7.80
   1   4  -3   28.00    5.80
   1   4  -3   15.20    6.30
  -1   4   3   22.90    6.30
   1   4  -3   14.80    9.10
   0  -4   3   26.90    7.40
   0  -4   3   32.90   13.80
   0  -4   3   31.30    5.70
   0  -4  -3   47.00    9.20
   0  -4   3   34.70   14.80
   0   4  -3   23.20   11.30
   0   4  -3   22.80    6.70
   0   4  -3   22.30    5.90
   0   4   3   30.60    7.00
   1  -4   3  132.39   11.00
  -1  -4  -3  123.79   11.20
   1  -4   3  111.49   21.00
   1  -4   3   88.59   13.00
   1   4   3   79.99   12.40
   1   4   3  113.99   15.30
  -1   4  -3  109.39   13.40
  -1   4  -3   92.69   13.40
   2  -4   3  343.97   22.20
   2  -4   3  245.68   43.60
  -2  -4  -3  321.47   21.90
   2  -4   3  343.27   22.80
  -2   4  -3  302.17   23.70
  -2   4  -3  324.67   25.50
  -2   4  -3  326.67   24.10
   2   4   3  294.57   22.90
   2   4   3  288.87   27.30
   2   4   3  328.37   23.50
  -3  -4  -3   94.89   13.90
  -3  -4  -3  106.29   10.50
   3  -4   3   96.29   10.20
   3  -4   3  101.89   11.20
  -3   4  -3  123.09   16.50
  -3   4  -3   76.39   12.90
  -3   4  -3   90.79   13.60
   3   4   3   97.39   13.40
   4  -4   3   95.19    8.30
  -4  -4  -3   89.69    9.70
   4  -4   3   91.99   11.60
  -4  -4  -3   83.79   11.00
  -4   4  -3  103.29   13.10
   4   4   3   85.99   10.60
  -4   4  -3  105.49   11.40
  -3  -5   3   97.39    8.30
  -3   5   3   94.49    9.30
   3   5  -3  101.19    9.10
   3   5  -3   97.19    9.50
  -2  -5   3  116.69   13.50
  -2  -5   3  135.89   10.90
   2  -5  -3  106.59   14.00
  -2  -5   3  133.69   12.90
  -2   5   3  115.89   11.60
   2   5  -3  123.19   12.10
   2   5  -3  114.19   11.20
  -1  -5   3  452.15   31.60
   1  -5  -3  460.15   31.90
  -1  -5   3  464.35   31.40
   1   5  -3  548.45   33.20
   1   5  -3  511.35   31.40
  -1   5   3  458.25   31.80
   1   5  -3  494.45   31.70
   0  -5  -3  163.08   15.70
   0  -5   3  177.38   15.30
   0  -5   3  167.58   15.30
   0   5   3  201.98   15.30
   0   5  -3  169.68   22.40
   0   5  -3  216.38   15.90
   0   5  -3  210.18   15.20
   1  -5   3   90.59   10.90
   1  -5   3   97.69   19.70
   1  -5   3  103.39   11.50
  -1  -5  -3   79.99   11.20
  -1   5  -3   93.19   11.00
   1   5   3   92.09   10.70
  -1   5  -3   70.39   12.40
   2  -5   3   55.69    9.40
   2  -5   3   49.90    9.30
   2  -5   3   49.10    6.40
  -2  -5  -3   49.99    9.50
  -2  -5  -3   28.90    8.80
  -2   5  -3   42.00    6.70
   3  -5   3   63.99    6.60
   3  -5   3   71.09    9.70
  -3  -5  -3   49.30    8.30
   6   0  -4   60.29    7.80
  -6   0   4   53.19   11.90
  -6   0   4   74.39    9.80
   5   0  -4  170.38   23.30
   5   0  -4  214.18   16.00
  -5   0   4  217.28   19.40
   5   0  -4  215.88   17.10
   5   0  -4  211.88   25.80
   4   0  -4   12.50    8.90
   4   0  -4   32.50   15.30
   4   0  -4   15.40    5.70
  -4   0   4   25.50    8.60
   4   0  -4   18.10    4.90
   3   0  -4 1100.19   64.39
  -3   0   4  911.01   65.39
   3   0  -4 1050.09   62.79
   2   0  -4  134.59   10.20
   2   0  -4  154.48   11.60
  -2   0   4  142.49    9.50
   1   0  -4   38.90    5.00
   1   0  -4   34.10    4.90
   0   0   4 1063.09   64.69
   0   0   4 1112.89   64.69
   0   0  -4 1048.10   65.39
  -1   0  -4    6.60    2.30
   1   0   4    5.70    2.10
  -1   0  -4    4.90    2.70
  -2   0  -4  773.82   48.80
  -2   0  -4  782.22   49.20
   2   0   4  802.92   48.50
  -3   0  -4  389.76   26.70
  -3   0  -4  425.56   26.40
   3   0   4  339.67   27.70
  -3   0  -4  420.26   24.90
  -3   0  -4  337.17   28.80
   3   0   4  403.26   25.50
   4   0   4   51.29    8.30
   4   0   4   59.39   10.80
  -4   0  -4   84.59   15.20
  -4   0  -4   58.19    9.40
  -4   0  -4   42.90    8.50
  -4   0  -4   56.89   12.90
   4   0   4   71.09   17.00
  -5   0  -4   11.40    4.90
   5   0   4   14.90    6.60
   5   0   4   20.80   10.10
  -5   0  -4   -3.00   13.30
  -5   0  -4    2.10    7.20
   6   0   4   13.20    5.30
  -6   0  -4    5.00    5.60
   6  -1  -4   29.00   13.90
  -6   1   4    7.30    5.60
   6   1  -4    1.30    7.90
   6   1  -4   11.50    7.10
  -5  -1   4  296.07   22.10
   5  -1  -4  295.17   19.40
   5  -1  -4  223.28   34.90
   5  -1  -4  281.97   19.20
   5   1  -4  255.07   18.60
  -5   1   4  247.38   21.30
   5   1  -4  240.08   23.70
   5   1  -4  236.38   27.30
   5   1  -4  247.18   21.70
  -5   1   4  256.27   20.30
  -4  -1   4  390.76   31.30
   4  -1  -4  436.86   28.50
   4  -1  -4  376.96   33.50
   4  -1  -4  433.06   29.90
   4   1  -4  478.55   33.10
   4   1  -4  397.66   32.60
   4   1  -4  493.55   32.10
   4   1  -4  454.95   28.80
  -4   1   4  449.16   31.30
   4   1  -4  435.76   29.20
  -3  -1   4  135.49   16.00
   3  -1  -4  136.79   10.70
   3  -1  -4  150.38   15.60
   3   1  -4  141.79   11.50
  -3   1   4  141.69   18.60
   3   1  -4  158.28   13.40
   3   1  -4  109.59   13.40
   3   1  -4  140.99   19.40
   2  -1  -4 1901.81  122.59
   2  -1  -4 2125.29  121.79
  -2  -1   4 2067.59  122.09
   2   1  -4 1890.81  121.99
   2   1  -4 2096.89  122.89
   1   1  -4    5.70    2.70
   1   1  -4    1.80    2.60
   0  -1   4 1193.38   69.29
   0  -1   4 1051.99   69.19
   0   1  -4 1170.68   69.69
   0   1  -4 1138.69   69.19
  -1  -1  -4  764.92   50.49
   1  -1   4  902.91   50.39
  -1  -1  -4  797.22   49.80
   1  -1   4  698.83   50.09
  -1   1  -4  892.91   50.89
  -1   1  -4  863.81   50.29
  -2  -1  -4  242.68   16.40
  -2  -1  -4  227.88   14.30
   2  -1   4  193.58   14.90
   2  -1   4  244.68   15.20
  -2   1  -4  192.68   14.90
  -2   1  -4  182.68   15.30
  -3  -1  -4  565.44   37.80
  -3  -1  -4  651.93   36.00
   3  -1   4  579.04   36.60
   3  -1   4  599.24   37.10
   3  -1   4  546.75   36.70
  -3  -1  -4  562.44   38.50
   3  -1   4  584.04   40.10
   3   1   4  585.44   39.70
  -3   1  -4  532.05   40.80
  -3   1  -4  538.65   37.20
  -3   1  -4  583.74   36.80
   3   1   4  558.94   37.40
  -3   1  -4  562.94   36.90
  -4  -1  -4  205.08   15.80
   4  -1   4  214.18   16.30
   4  -1   4  248.18   20.90
  -4  -1  -4  217.88   22.20
  -4  -1  -4  185.08   15.20
   4  -1   4  182.38   17.50
   4   1   4  213.98   19.60
  -4   1  -4  174.88   16.80
  -4   1  -4  243.28   20.70
  -4   1  -4  196.48   18.10
   4   1   4  197.58   17.30
   5  -1   4  319.37   33.50
   5  -1   4  331.17   24.10
  -5  -1  -4  343.37   22.20
   5  -1   4  287.07   25.00
  -5  -1  -4  293.07   25.00
  -5  -1  -4  307.47   25.60
   5   1   4  385.06   25.00
   5   1   4  363.16   23.90
  -5   1  -4  355.76   25.60
  -6  -1  -4    9.30    5.60
   6  -1   4   19.00    5.80
   6   1   4   13.60    4.40
  -6   1  -4    9.50    5.00
   6  -2  -4   57.29    6.40
   6   2  -4   68.79    8.70
   6   2  -4   63.79    8.20
  -6   2   4   50.89    7.10
   5  -2  -4  214.58   17.50
  -5  -2   4  235.18   20.80
   5  -2  -4  211.08   17.40
   5   2  -4  225.08   19.10
  -5   2   4  239.78   18.20
   5   2  -4  251.27   18.90
   4  -2  -4  297.67   21.50
  -4  -2   4  289.07   24.00
   4  -2  -4  269.87   24.30
  -4  -2   4  277.17   21.50
   4   2  -4  303.97   23.50
   4   2  -4  363.56   25.00
   4   2  -4  330.17   25.30
  -4   2   4  317.87   24.90
   4   2  -4  336.57   26.20
  -4   2   4  339.27   24.50
   4   2  -4  302.97   24.90
  -3  -2   4   82.29   11.20
   3  -2  -4  104.89    8.90
  -3  -2   4   84.79   15.10
  -3  -2   4   82.39   11.70
   3   2  -4  101.19   17.80
   3   2  -4   94.39   16.00
   3   2  -4  101.89   15.90
  -3   2   4   87.79   16.30
   3   2  -4   94.89   12.00
  -3   2   4   84.29   12.30
   3   2  -4   89.89   12.40
  -2  -2   4   64.99   11.40
  -2  -2   4   60.29   11.60
   2  -2  -4   57.99    7.40
  -2  -2   4   76.79    8.10
   2   2  -4   88.39    8.50
   2   2  -4   66.69   12.40
  -2   2   4   94.99   12.10
  -1  -2   4  528.75   30.40
  -1  -2   4  438.96   29.40
   1   2  -4  474.85   30.00
   1   2  -4  421.86   30.30
   0  -2   4  113.09    9.60
   0  -2   4  127.09    9.30
   0   2  -4   99.59    9.30
   0   2  -4  135.29   19.20
   1  -2   4 1832.82  108.19
   1  -2   4 1694.53  107.59
  -1  -2  -4 1639.84  106.99
  -1   2  -4 1937.51  108.19
   2  -2   4 1772.22  110.99
  -2  -2  -4 2061.09  110.39
   2  -2   4 1851.01  110.69
  -2   2  -4 1703.83  112.89
   2   2   4 1788.92  111.49
   2   2   4 1724.93  112.59
  -2   2  -4 1836.32  111.09
   3  -2   4  166.98   13.40
  -3  -2  -4  191.08   19.10
  -3  -2  -4  155.58   23.00
   3  -2   4  172.58   15.40
   3  -2   4  185.78   27.50
   3  -2   4  170.38   14.30
  -3  -2  -4  178.38   13.00
   3   2   4  164.28   18.00
  -3   2  -4  179.98   19.90
   3   2   4  167.28   15.30
  -3   2  -4  183.58   14.70
   4  -2   4  285.67   22.90
   4  -2   4  312.87   25.50
  -4  -2  -4  317.67   21.20
   4  -2   4  296.47   30.70
   4  -2   4  340.77   21.70
  -4  -2  -4  289.67   21.70
  -4  -2  -4  291.87   32.70
  -4   2  -4  298.97   26.10
   4   2   4  311.97   22.30
   4   2   4  333.37   24.30
   5  -2   4  100.39    9.80
  -5  -2  -4  108.09   12.40
   5  -2   4  113.79   15.40
  -5  -2  -4   85.39   12.70
  -5  -2  -4  114.99    9.80
   5   2   4   73.89   10.70
   5   2   4   90.09   11.10
  -6  -2  -4    4.60    4.20
   6   2   4    7.50    3.90
  -6   2  -4    9.20    5.00
   5  -3  -4  128.99   12.60
  -5  -3   4  147.99   17.50
   5  -3  -4  132.99   12.20
   5   3  -4  126.89   13.00
   5   3  -4  140.99   11.90
  -5   3   4  149.88   12.40
   5   3  -4  144.49   13.60
  -4  -3   4  245.38   22.20
   4  -3  -4  235.28   22.30
   4  -3  -4  276.67   19.30
  -4  -3   4  269.67   18.80
  -4   3   4  279.97   21.50
   4   3  -4  291.47   20.30
   4   3  -4  275.77   20.70
   4   3  -4  283.57   21.90
  -3  -3   4  327.07   24.20
   3  -3  -4  323.77   22.10
  -3  -3   4  296.77   23.40
  -3  -3   4  306.87   22.30
   3   3  -4  328.97   26.30
   3   3  -4  362.86   24.40
   3   3  -4  336.37   24.10
  -3   3   4  309.07   25.40
  -2  -3   4  350.66   27.30
  -2  -3   4  347.67   24.70
   2  -3  -4  393.76   24.70
  -2  -3   4  375.96   27.30
  -2  -3   4  355.16   25.40
  -2   3   4  381.26   27.40
   2   3  -4  389.36   26.20
   2   3  -4  400.66   27.10
   2   3  -4  369.16   27.30
   2   3  -4  385.66   31.50
  -1   3   4  117.69   15.80
   1   3  -4  138.29   13.20
   1   3  -4  127.99   15.30
   0  -3   4  467.55   28.40
   0  -3   4  400.26   29.70
   0  -3   4  440.66   30.00
   0   3  -4  461.25   33.90
   0   3  -4  478.15   31.10
   0   3   4  459.75   31.00
   0   3  -4  369.46   31.30
   0   3  -4  448.36   30.10
   1  -3   4  157.38   12.90
   1  -3   4  159.38   15.70
   1  -3   4  160.18   14.70
  -1  -3  -4  164.78   13.10
  -1   3  -4  205.48   17.90
   1   3   4  178.38   19.70
  -1   3  -4  207.68   19.10
   1   3   4  184.28   18.20
  -1   3  -4  191.28   18.60
  -1   3  -4  146.79   28.20
   2  -3   4   49.50    7.80
   2  -3   4   31.90    6.90
  -2  -3  -4   52.69    7.40
   2  -3   4   44.50   11.20
  -2   3  -4   52.69    9.50
  -2   3  -4   30.20    8.10
   2   3   4   56.79    9.10
   2   3   4   39.90   10.50
  -3  -3  -4   30.70   10.10
   3  -3   4   37.70   11.50
   3  -3   4   46.80    8.90
   3  -3   4   53.59    9.60
  -3  -3  -4   47.50    8.00
  -3   3  -4   63.59   14.80
   3   3   4   50.19    7.10
   3   3   4   50.39   12.40
  -3   3  -4   65.69   10.00
   4  -3   4   70.99   11.10
  -4  -3  -4   49.99    8.30
   4   3   4   58.49    9.30
   4   3   4   59.09   10.70
  -4   3  -4   43.50    7.70
  -4   3  -4   32.20    8.90
   5  -3   4  160.68   11.50
  -5  -3  -4  158.08   11.70
  -5  -3  -4  167.88   15.50
   5   3   4  164.08   13.00
   5   3   4  151.68   12.50
  -5   3  -4  169.28   13.50
  -5   3  -4  151.48   14.00
   4  -4  -4  244.48   19.30
  -4  -4   4  275.77   17.40
  -4  -4   4  268.67   21.30
  -4   4   4  274.07   18.90
   4   4  -4  245.28   19.40
   4   4  -4  248.68   18.20
   4   4  -4  265.77   18.30
  -3  -4   4   93.19    9.70
  -3  -4   4   93.19   13.50
  -3  -4   4  101.69   13.80
   3  -4  -4   74.09   11.90
   3   4  -4   82.59   11.20
  -3   4   4   69.19   10.30
   3   4  -4   85.29   15.30
   3   4  -4   64.49   10.50
  -2  -4   4  171.58   27.10
   2  -4  -4  197.28   17.70
  -2  -4   4  218.38   16.30
  -2  -4   4  228.08   16.70
  -2  -4   4  203.28   18.10
   2   4  -4  212.28   18.20
   2   4  -4  212.38   17.00
   2   4  -4  202.68   25.90
  -2   4   4  223.98   18.20
   2   4  -4  201.58   17.20
  -1  -4   4  158.08   13.30
  -1  -4   4  142.49   13.50
  -1  -4   4  135.19   23.10
   1   4  -4  168.28   16.60
   1   4  -4  162.38   15.00
  -1   4   4  140.89   14.30
   1   4  -4  156.98   14.00
   0  -4   4   48.70   12.40
   0  -4   4   49.20    8.30
   0  -4   4   49.99    7.70
   0  -4   4   70.79   14.20
   0   4  -4   53.09   10.30
   0   4  -4   35.20    7.90
   0   4  -4   40.80   10.90
   0   4   4   40.50    7.90
  -1  -4  -4  339.37   22.60
   1  -4   4  321.87   22.90
   1  -4   4  328.07   26.30
   1  -4   4  316.27   23.10
   1  -4   4  359.36   29.40
  -1   4  -4  321.87   25.20
  -1   4  -4  321.97   24.30
   1   4   4  338.87   23.80
  -1   4  -4  314.67   23.70
   2  -4   4  200.58   16.50
   2  -4   4  193.28   26.40
   2  -4   4  209.98   16.60
  -2  -4  -4  214.18   16.40
  -2   4  -4  244.08   19.90
   2   4   4  213.58   22.70
  -2   4  -4  219.88   18.50
   2   4   4  219.18   18.80
  -2   4  -4  240.18   20.20
  -3  -4  -4  118.69   11.80
   3  -4   4  138.29   11.30
   3  -4   4  147.49   13.10
  -3  -4  -4  131.79   15.40
   3   4   4  125.69   15.80
  -3   4  -4  113.69   13.70
  -3   4  -4  145.29   16.20
  -4  -4  -4    5.00    5.70
   4  -4   4    3.90    3.50
   4  -4   4    4.90    9.00
  -4  -4  -4    1.30    4.00
  -4   4  -4    2.30    5.20
  -4   4  -4    3.60    4.90
   4   4   4    7.50    6.70
  -3  -5   4   73.09   14.00
  -3  -5   4   72.49    7.10
  -3   5   4   66.39    7.70
   3   5  -4   74.39    8.00
   3   5  -4   77.19    8.10
  -2  -5   4  410.36   29.90
  -2  -5   4  417.36   28.80
  -2  -5   4  435.06   30.70
  -2   5   4  484.45   29.80
   2   5  -4  485.45   29.20
   2   5  -4  493.45   30.00
  -1  -5   4  163.88   14.30
  -1  -5   4  163.78   13.80
  -1  -5   4  178.68   12.90
   1   5  -4  144.99   13.40
   1   5  -4  150.48   13.50
   1   5  -4  132.39   15.60
  -1   5   4  145.49   13.40
   0  -5   4  172.68   13.60
   0  -5   4  161.88   14.30
   0   5  -4  157.48   13.70
   0   5  -4  157.08   14.40
   0   5  -4  141.59   19.50
   0   5   4  174.18   14.00
  -1  -5  -4  137.29   14.40
   1  -5   4  152.68   12.40
   1  -5   4  114.39   18.40
   1  -5   4  143.59   13.40
  -1   5  -4  141.39   13.70
   1   5   4  152.78   13.00
  -1   5  -4  141.99   12.90
  -2  -5  -4   50.59   10.80
   2  -5   4   62.49   12.30
   2  -5   4   59.09    7.50
  -2   5  -4   50.89    9.70
  -2   5  -4   64.59   12.50
   3  -5   4   50.19    8.80
  -3  -5  -4   30.60    6.70
   3  -5   4   48.20    5.60
   6   0  -5   -0.50    4.00
  -6   0   5    4.60    4.90
  -6   0   5   -4.80    6.20
   5   0  -5   52.09   10.40
  -5   0   5   47.60    9.70
   5   0  -5   65.49   14.00
   5   0  -5   45.70    8.90
   5   0  -5   47.10   18.00
   4   0  -5  121.09   18.50
   4   0  -5   98.29   21.10
   4   0  -5  111.69   10.90
   4   0  -5  109.09   12.60
  -4   0   5  133.29   14.50
  -3   0   5  372.06   26.90
   3   0  -5  356.66   26.00
  -3   0   5  323.87   28.00
   3   0  -5  373.46   23.50
   2   0  -5    2.70    4.50
   2   0  -5    4.50    2.70
   1   0  -5  348.47   22.60
   1   0  -5  339.97   21.80
   0   0  -5 1341.97   79.99
   0   0  -5 1282.17   79.29
   1   0   5 1258.77   78.99
  -1   0  -5 1392.76   79.29
  -1   0  -5 1272.67   80.09
  -2   0  -5   24.20    5.70
  -2   0  -5   28.60    4.40
   2   0   5   33.50    5.40
  -3   0  -5  299.97   20.80
  -3   0  -5  308.47   22.00
   3   0   5  335.77   27.10
  -3   0  -5  320.87   23.40
   3   0   5  299.87   23.40
   3   0   5  303.17   21.40
  -3   0  -5  376.26   26.60
   4   0   5  185.38   16.10
   4   0   5  140.69   16.20
  -4   0  -5  176.58   15.00
  -4   0  -5  164.18   18.70
  -4   0  -5  184.88   14.10
   4   0   5  189.78   19.50
  -4   0  -5  188.58   17.80
  -5   0  -5  271.17   22.10
   5   0   5  271.57   20.60
  -5   0  -5  271.07   18.50
  -6   0  -5  693.73   42.50
   6   0   5  637.94   41.60
   6  -1  -5  193.88   12.70
  -6  -1   5  160.78   15.10
  -6   1   5  178.28   13.50
   6   1  -5  167.58   14.60
   6   1  -5  152.08   18.50
  -5  -1   5  127.69   15.10
   5  -1  -5  123.89   12.40
   5  -1  -5  128.39   12.50
  -5   1   5  143.49   14.40
  -5   1   5  137.69   14.20
   5   1  -5  133.29   15.10
   5   1  -5  131.49   27.30
   5   1  -5  141.49   12.10
   5   1  -5  159.78   20.10
  -4  -1   5  161.08   22.10
  -4  -1   5  148.19   17.00
   4  -1  -5  138.09   15.60
   4  -1  -5  136.99   24.10
   4  -1  -5  161.58   13.00
   4   1  -5  187.98   18.90
   4   1  -5  157.98   14.70
   4   1  -5  144.19   13.70
   4   1  -5  142.59   18.00
   4   1  -5  104.19   21.70
  -4   1   5  144.69   16.20
  -3  -1   5   77.29   12.70
   3  -1  -5   78.39    7.60
  -3  -1   5   71.39    8.40
  -3  -1   5  101.49   18.90
   3  -1  -5   56.09   14.80
   3   1  -5   72.69   10.80
   3   1  -5   56.89    8.60
  -3   1   5   75.79   14.90
  -3   1   5   63.09   10.80
   3   1  -5   41.00   18.60
   3   1  -5   51.59   13.00
   2  -1  -5  932.01   62.49
  -2  -1   5 1002.40   63.09
   2   1  -5 1106.99   63.19
   2   1  -5 1068.19   63.99
  -1  -1   5 1096.99   68.69
   1   1  -5 1183.68   68.69
   1   1  -5 1097.39   69.29
   0  -1   5   46.80    6.00
   0  -1   5   43.30    5.00
   0   1  -5   34.80    5.90
   1  -1   5   -0.90    4.40
   1  -1   5    1.30    2.50
  -1  -1  -5   10.60    5.00
  -1  -1  -5    4.70    2.60
  -1   1  -5    2.60    2.90
  -1   1  -5    3.00    3.30
  -2  -1  -5  612.74   35.60
  -2  -1  -5  547.25   37.40
   2  -1   5  564.74   36.30
  -2   1  -5  564.64   36.90
   3  -1   5  170.08   16.20
  -3  -1  -5  167.58   16.60
   3  -1   5  174.48   14.90
   3  -1   5  193.28   19.20
  -3  -1  -5  197.18   18.30
  -3  -1  -5  202.18   13.50
  -3   1  -5  213.38   16.20
   3   1   5  185.68   16.40
  -3   1  -5  197.08   15.60
  -3   1  -5  199.28   15.40
   3   1   5  190.68   18.50
  -4  -1  -5  420.66   28.50
  -4  -1  -5  401.36   35.00
  -4  -1  -5  427.66   28.30
   4  -1   5  426.46   31.00
   4  -1   5  403.26   30.30
   4  -1   5  418.36   28.60
  -4   1  -5  443.66   31.50
   4   1   5  470.25   30.90
  -4   1  -5  454.65   28.80
  -4   1  -5  427.16   32.30
   4   1   5  469.95   29.70
  -5  -1  -5   27.50    9.30
   5  -1   5   26.10    8.50
  -5  -1  -5   23.00    4.70
  -5  -1  -5   21.00    8.40
   5   1   5   20.20    6.10
   5   1   5   16.90    7.20
  -6  -1  -5   46.90    9.00
   6  -1   5   56.49    7.40
  -6   1  -5   54.49    8.70
   6   1   5   51.79    6.90
  -6  -2   5   58.69   14.60
   6  -2  -5   46.80    5.90
  -6   2   5   49.30    6.80
   6   2  -5   63.69    8.80
   6   2  -5   42.50    6.80
   5  -2  -5  228.88   17.00
   5  -2  -5  213.78   16.80
  -5  -2   5  214.08   19.00
  -5   2   5  201.68   17.60
   5   2  -5  195.98   18.20
   5   2  -5  245.98   18.90
  -4  -2   5  234.98   21.60
  -4  -2   5  252.07   19.30
   4  -2  -5  269.87   21.70
  -4  -2   5  227.28   23.10
   4   2  -5  238.28   20.90
   4   2  -5  226.18   20.90
   4   2  -5  199.28   21.50
  -4   2   5  214.08   19.90
  -4   2   5  232.98   20.40
   4   2  -5  211.78   23.30
   4   2  -5  228.58   18.10
  -3  -2   5   76.89   15.70
   3  -2  -5   88.89    8.60
  -3  -2   5  103.59   11.50
  -3  -2   5   68.59   11.00
   3   2  -5   70.69   12.10
   3   2  -5   73.09   11.10
  -3   2   5   66.79   13.40
   3   2  -5   83.99   11.50
  -3   2   5   56.09   11.20
   3   2  -5   69.79   14.90
   3   2  -5  104.49   17.40
  -2  -2   5  199.48   16.40
   2  -2  -5  211.28   15.20
  -2  -2   5  236.88   17.50
  -2  -2   5  239.68   19.10
  -2  -2   5  221.58   16.50
   2   2  -5  208.78   17.80
  -2   2   5  196.08   26.10
   2   2  -5  238.18   16.80
   2   2  -5  208.08   21.60
   2   2  -5  227.38   21.60
   2   2  -5  214.08   17.60
  -2   2   5  227.78   20.20
  -1  -2   5   18.30    4.80
  -1  -2   5    9.80    4.20
   1   2  -5   13.10    3.60
   1   2  -5   19.60    5.60
   0  -2   5 1134.19   73.09
   0  -2   5 1225.08   72.69
   0   2  -5 1210.78   73.39
   1  -2   5 1887.31  110.29
   1  -2   5 1884.81  109.79
  -1  -2  -5 1822.72  109.09
  -1   2  -5 1634.04  110.09
   2  -2   5  405.26   35.90
  -2  -2  -5  471.65   27.10
   2  -2   5  431.56   27.50
   2   2   5  414.06   30.70
   2   2   5  405.56   29.30
  -2   2  -5  374.66   31.40
  -2   2  -5  383.06   30.80
  -2   2  -5  476.45   28.50
   3  -2   5  145.49   15.20
  -3  -2  -5  159.88   18.20
   3  -2   5  156.68   14.00
   3  -2   5  165.88   24.50
   3  -2   5  147.09   13.90
  -3  -2  -5  172.08   12.60
   3   2   5  147.69   15.90
   3   2   5  186.68   14.90
  -3   2  -5  192.98   19.20
  -3   2  -5  180.08   15.40
   4  -2   5   -0.70   11.50
   4  -2   5   15.30   10.80
  -4  -2  -5    6.10    4.40
  -4  -2  -5    0.00    5.20
  -4  -2  -5   -5.70   21.10
   4  -2   5    2.80    4.60
   4   2   5    2.80    5.60
   4   2   5   10.50    7.90
  -4   2  -5    6.30    8.90
  -5  -2  -5   73.89   12.10
   5  -2   5   60.99   11.00
  -5  -2  -5   81.59   12.80
   5   2   5   74.89   10.10
   5   2   5   75.09   10.00
  -5   2  -5   84.89   11.90
  -5  -3   5   10.80    8.50
   5  -3  -5   -2.00    4.90
   5  -3  -5    3.20    6.40
   5   3  -5    1.60    4.40
   5   3  -5    4.60    5.80
   5   3  -5   12.30    9.50
  -5   3   5   10.50    4.70
  -4  -3   5  161.58   16.00
   4  -3  -5  152.58   13.40
  -4  -3   5  156.88   13.40
   4  -3  -5  148.09   19.30
   4   3  -5  194.48   15.80
  -4   3   5  155.18   16.10
   4   3  -5  170.48   15.40
   4   3  -5  155.48   15.60
  -3  -3   5  138.59   12.60
  -3  -3   5  106.29   17.60
  -3  -3   5  166.48   16.50
  -3  -3   5  154.88   15.30
   3  -3  -5  142.09   12.20
   3   3  -5  118.99   16.80
  -3   3   5  107.29   16.30
   3   3  -5  136.39   15.30
   3   3  -5  114.49   15.00
  -2  -3   5  215.48   19.50
  -2  -3   5  234.58   18.00
  -2  -3   5  197.48   16.60
   2  -3  -5  210.98   15.90
  -2  -3   5  185.48   16.50
   2   3  -5  229.38   23.40
   2   3  -5  201.58   18.40
   2   3  -5  235.98   19.10
  -2   3   5  229.08   19.60
   2   3  -5  201.58   18.80
  -1  -3   5  372.06   29.30
  -1  -3   5  403.86   26.30
  -1  -3   5  396.26   25.70
  -1  -3   5  388.86   27.60
  -1   3   5  404.66   28.70
   1   3  -5  406.86   26.50
   1   3  -5  335.37   37.30
   1   3  -5  364.66   28.80
   1   3  -5  393.66   27.00
   1   3  -5  385.16   27.90
   0  -3   5  158.58   14.20
   0  -3   5  151.98   12.10
   0  -3   5  124.29   13.50
   0  -3   5  145.89   18.20
   0   3  -5  150.48   16.90
   0   3  -5  165.98   15.60
   0   3  -5  145.89   20.60
   0   3   5  129.89   17.50
   0   3  -5  151.68   17.50
   1  -3   5   16.30    5.90
   1  -3   5    9.30    6.00
   1  -3   5    8.00    4.20
  -1  -3  -5    7.70    4.90
  -1   3  -5   -1.00    7.00
  -1   3  -5    4.10   16.60
   1   3   5  -12.90   14.30
  -1   3  -5   19.20    8.00
  -2  -3  -5   94.99    9.70
   2  -3   5   93.79   10.40
   2  -3   5   99.39   11.10
   2  -3   5  120.09   13.60
   2   3   5  105.99   15.30
  -2   3  -5  103.59   12.10
  -2   3  -5   69.49   15.80
  -3  -3  -5  684.93   42.80
   3  -3   5  666.93   46.30
   3  -3   5  686.43   43.00
  -3  -3  -5  642.94   44.60
   3  -3   5  696.13   43.50
   3   3   5  655.33   43.10
  -3   3  -5  643.54   44.90
   3   3   5  731.33   45.10
  -3   3  -5  696.53   46.10
   4  -3   5  221.68   15.50
  -4  -3  -5  212.98   16.60
  -4  -3  -5  213.98   16.20
   4  -3   5  207.08   21.20
   4   3   5  222.88   17.10
  -4   3  -5  225.98   19.60
  -4   3  -5  213.48   18.10
   4   3   5  226.58   17.50
  -5  -3  -5  127.49    9.30
  -5  -3  -5   99.29   17.80
   5  -3   5  137.29   11.50
  -5   3  -5  119.09   11.60
  -5   3  -5  127.19   10.90
   5   3   5  124.59   10.80
  -4  -4   5   99.59   13.30
   4  -4  -5  134.59   14.00
  -4  -4   5  113.99    9.90
   4   4  -5  124.99   10.50
   4   4  -5  133.59   10.80
   4   4  -5  104.69   11.70
  -4   4   5  132.49   11.50
  -3  -4   5   67.19    8.80
  -3  -4   5   58.49   12.00
   3   4  -5   68.09   12.80
  -3   4   5   63.79   12.20
   3   4  -5   62.89    9.80
   3   4  -5   54.99    9.60
  -2  -4   5  214.28   15.70
  -2  -4   5  194.98   17.40
  -2  -4   5  199.18   27.40
  -2  -4   5  207.08   18.00
  -2   4   5  204.48   17.40
   2   4  -5  235.68   25.20
   2   4  -5  203.38   17.90
   2   4  -5  210.18   17.20
  -1  -4   5  180.98   15.30
  -1  -4   5  200.08   23.50
  -1  -4   5  173.28   14.70
   1   4  -5  189.78   15.50
   1   4  -5  194.98   16.70
   1   4  -5  176.68   17.80
  -1   4   5  166.18   16.00
   0  -4   5  312.37   23.60
   0  -4   5  346.87   29.50
   0  -4   5  353.46   27.60
   0  -4   5  341.47   24.00
   0   4  -5  361.56   25.30
   0   4   5  347.67   25.00
   0   4  -5  360.36   24.40
   0   4  -5  349.17   27.70
   1  -4   5  237.18   18.90
  -1  -4  -5  232.48   19.50
   1  -4   5  257.97   19.10
   1  -4   5  246.98   22.40
   1  -4   5  216.48   25.40
  -1   4  -5  296.97   28.10
  -1   4  -5  278.17   21.70
  -1   4  -5  297.67   21.10
   1   4   5  284.07   20.40
  -1   4  -5  276.27   20.90
  -2  -4  -5   58.89    9.30
   2  -4   5   48.00    8.30
   2  -4   5   53.49   10.30
   2  -4   5   59.99   10.70
  -2   4  -5   38.10    9.10
   3  -4   5   78.59   12.30
  -3  -4  -5   62.99   13.40
   3  -4   5   75.29    8.40
  -3  -4  -5   69.59    9.00
   3   4   5   84.49   12.30
  -3   4  -5   56.49   11.10
  -3   4  -5   91.29   13.70
   4  -4   5   24.10    5.60
  -4  -4  -5   20.80    4.20
  -4  -4  -5   21.80    6.40
   4  -4   5   26.40    5.10
   4   4   5   22.10    5.40
  -4   4  -5   14.40    5.10
  -4   4  -5   19.50    4.80
  -3  -5   5    8.30    6.30
  -3  -5   5   11.90    3.50
  -3   5   5    3.70    3.80
   3   5  -5    6.60    4.00
   3   5  -5    9.80    3.60
  -2  -5   5  187.18   13.40
  -2  -5   5  160.48   23.30
  -2  -5   5  176.08   14.70
  -2   5   5  202.08   14.30
   2   5  -5  181.68   14.60
   2   5  -5  192.98   13.60
  -1  -5   5  304.77   20.40
  -1  -5   5  329.87   19.30
  -1  -5   5  254.27   20.90
  -1   5   5  249.48   19.70
   1   5  -5  273.77   21.30
   1   5  -5  272.17   19.80
   0  -5   5   13.60    4.50
   0  -5   5   26.40    7.80
   0   5   5   12.80    5.10
   0   5  -5   10.10   11.00
   0   5  -5    8.30    5.60
   0   5  -5    5.50    5.10
   1  -5   5   25.40    7.70
   1  -5   5   20.30    8.90
   1  -5   5   17.00    4.30
  -1   5  -5   13.60    5.40
  -1   5  -5   12.00    6.80
   1   5   5   30.00    6.10
   2  -5   5   66.89   10.70
   2  -5   5   45.10    6.10
   2  -5   5   60.39   10.30
  -2   5  -5   42.70    8.90
  -6   0   6   84.99    8.60
  -6   0   6   64.79    9.20
   6   0  -6   77.09    7.40
  -5   0   6   16.00    8.00
   5   0  -6    6.50    4.80
   5   0  -6   10.50   11.70
   5   0  -6   -0.80    6.90
  -4   0   6  996.90   62.79
   4   0  -6  992.60   65.09
   4   0  -6  969.20   61.59
   4   0  -6 1033.80   61.79
   4   0  -6  948.41   65.49
   3   0  -6  158.68   12.70
  -3   0   6  173.78   17.30
   3   0  -6  168.88   17.70
  -3   0   6  169.28   17.60
   2   0  -6   -0.70    5.90
   2   0  -6    3.10    2.60
   1   0  -6 3257.97  203.88
   1   0  -6 3487.35  202.98
   0   0  -6  105.49    9.80
   0   0  -6  107.79    8.20
  -1   0  -6  548.35   34.30
  -1   0  -6  558.14   35.70
  -2   0  -6 1661.23   98.09
  -2   0  -6 1567.84   99.49
  -3   0  -6  179.58   21.50
  -3   0  -6  162.58   14.10
  -3   0  -6  161.18   16.80
   3   0   6  164.28   18.70
   3   0   6  164.38   16.10
  -3   0  -6  164.48   12.50
  -4   0  -6  555.64   34.90
  -4   0  -6  554.84   35.60
   4   0   6  538.15   37.60
  -4   0  -6  556.44   39.70
   4   0   6  571.44   36.60
  -4   0  -6  494.35   37.60
  -5   0  -6  530.25   35.20
   5   0   6  527.85   33.80
  -5   0  -6  472.05   32.10
   6   0   6   -2.00    3.70
  -6   0  -6    3.90    4.90
  -6  -1   6    1.30    5.60
   6  -1  -6    2.90    3.30
  -6   1   6    4.90    4.60
   6   1  -6    3.40    7.00
  -5  -1   6   79.49   11.70
   5  -1  -6   77.19   10.70
   5  -1  -6   75.59   10.00
   5   1  -6   67.39   13.10
   5   1  -6   65.09   15.20
  -5   1   6   60.49   10.90
  -5   1   6   88.29   12.30
   5   1  -6   83.59    9.60
   4  -1  -6  447.36   27.40
   4  -1  -6  375.86   28.60
  -4  -1   6  397.46   31.60
  -4  -1   6  421.86   29.60
   4   1  -6  426.26   27.40
  -4   1   6  402.36   29.50
   4   1  -6  339.57   35.00
   4   1  -6  411.56   28.40
   4   1  -6  445.76   31.50
   4   1  -6  387.96   31.90
  -3  -1   6  289.87   23.80
   3  -1  -6  278.57   20.90
  -3  -1   6  277.77   26.00
   3   1  -6  326.07   24.20
  -3   1   6  336.87   24.50
   3   1  -6  341.47   22.70
  -3   1   6  348.47   26.40
   3   1  -6  323.57   21.80
  -2  -1   6  188.38   13.40
  -2  -1   6  146.69   26.20
   2  -1  -6  172.38   13.00
  -2  -1   6  185.18   19.40
   2   1  -6  202.58   15.50
   2   1  -6  196.78   21.60
   2   1  -6  211.68   14.00
   1  -1  -6  239.18   14.60
   1   1  -6  203.78   14.90
   1   1  -6  214.58   16.10
   0  -1   6  338.87   21.20
   0  -1  -6  334.27   20.70
   0   1  -6  323.77   21.40
   0   1  -6  320.87   22.30
  -1  -1  -6  515.65   31.90
   1  -1   6  550.04   32.50
  -1   1  -6  548.05   32.60
  -1   1  -6  452.75   33.30
   2  -1   6  274.57   18.90
  -2  -1  -6  278.07   22.70
   2  -1   6  233.68   23.10
  -2  -1  -6  261.87   18.10
  -2   1  -6  294.07   19.00
  -2   1  -6  264.57   20.50
   2   1   6  301.27   22.60
  -2   1  -6  307.37   20.50
   2   1   6  281.67   21.30
  -3  -1  -6  145.89   19.20
   3  -1   6  144.09   15.30
  -3  -1  -6  173.18   11.70
  -3  -1  -6  172.58   15.00
   3  -1   6  159.78   13.80
   3  -1   6  120.59   16.80
   3   1   6  145.29   16.00
  -3   1  -6  154.68   19.10
   3   1   6  161.78   14.50
  -3   1  -6  137.69   15.10
  -3   1  -6  142.09   13.50
  -3   1  -6  161.98   14.40
  -4  -1  -6  148.09   12.50
   4  -1   6  149.59   17.10
  -4  -1  -6  158.48   25.00
  -4  -1  -6  139.09   12.80
  -4  -1  -6  167.98   18.50
  -4   1  -6  134.89   17.80
  -4   1  -6  157.98   13.20
  -4   1  -6  159.88   19.00
   4   1   6  175.48   14.80
  -5  -1  -6   20.00    9.70
  -5  -1  -6   14.40    8.00
   5  -1   6   13.70    6.30
  -5  -1  -6   11.70    4.30
  -5   1  -6   23.00    8.80
   5   1   6   11.80    6.40
   5   1   6   20.40    6.10
   6  -1   6   21.80    5.10
  -6  -1  -6   10.30    4.80
  -6   1  -6   11.30    5.20
   6   1   6    6.10    3.50
  -6   1  -6    4.30    4.90
   5  -2  -6  111.19   11.40
   5  -2  -6  118.69   11.40
  -5  -2   6   99.49   13.30
   5   2  -6   83.89   11.30
  -5   2   6   87.39   12.00
   5   2  -6  114.49   13.90
  -4  -2   6   68.39   13.00
  -4  -2   6  111.79   19.80
   4  -2  -6   82.19    9.50
   4  -2  -6   83.19   15.00
   4   2  -6   68.49   15.00
   4   2  -6   95.99   16.30
  -4   2   6   82.59   13.80
  -4   2   6   77.99   13.70
   4   2  -6   86.09   14.70
   4   2  -6   60.19   10.90
  -3  -2   6  200.98   18.30
  -3  -2   6  220.78   19.10
   3  -2  -6  214.98   16.40
  -3  -2   6  200.88   23.40
  -3  -2   6  239.88   19.30
  -3   2   6  237.28   21.30
   3   2  -6  194.48   20.70
   3   2  -6  273.47   23.40
  -3   2   6  258.67   23.30
   3   2  -6  223.48   23.00
   3   2  -6  243.38   17.90
   3   2  -6  252.87   20.40
  -2  -2   6  165.08   14.20
  -2  -2   6  148.79   17.40
   2  -2  -6  158.98   12.70
  -2  -2   6  194.88   16.90
  -2   2   6  161.58   18.40
   2   2  -6  164.48   14.70
   2   2  -6  168.68   15.20
   2   2  -6  180.88   19.50
   2   2  -6  182.78   19.40
  -2   2   6  141.89   24.70
  -1  -2   6  969.60   58.99
  -1  -2   6  923.91   56.99
  -1  -2   6  974.40   57.49
  -1  -2   6  866.01   57.29
   1   2  -6  867.41   61.19
   1   2  -6  913.31   57.19
   1   2  -6  936.31   59.99
   1   2  -6  906.11   57.69
   0  -2   6   95.29    9.20
   0  -2   6  108.49   15.90
   0  -2   6  102.69   10.30
   0  -2   6  103.49   12.60
   1  -2   6  168.08   13.30
   1  -2   6  126.49   19.50
  -1  -2  -6  158.38   12.00
   1  -2   6  176.98   12.70
   1  -2   6  152.78   14.60
  -1   2  -6  156.38   15.90
  -1   2  -6  136.89   20.80
   1   2   6  144.79   19.40
  -1   2  -6  169.88   13.20
   2  -2   6  360.36   25.20
   2  -2   6  320.97   25.00
   2  -2   6  357.66   25.10
  -2  -2  -6  364.16   23.80
   2  -2   6  351.16   30.00
   2   2   6  371.06   27.20
  -2   2  -6  347.47   26.50
  -2   2  -6  398.36   30.20
  -2   2  -6  413.76   25.90
   2   2   6  406.86   28.00
   3  -2   6   63.19   12.00
  -3  -2  -6   60.89    9.60
   3  -2   6   65.09   11.90
  -3  -2  -6   66.49    8.10
   3  -2   6   61.79    9.80
  -3   2  -6   91.99   12.80
  -3   2  -6   73.99   12.80
   3   2   6   81.59   11.40
   3   2   6   70.19   12.50
   4  -2   6   94.09   10.70
   4  -2   6  118.69   18.80
  -4  -2  -6  100.09   10.40
  -4  -2  -6  131.29   11.40
   4   2   6  117.09   12.70
   4   2   6  112.09   12.20
  -5  -2  -6   15.70    3.90
  -5  -2  -6    5.50    8.40
   5   2   6   26.00    5.20
   5   2   6   24.20    5.90
  -5   2  -6   22.00    6.90
   5  -3  -6   17.30    7.90
   5  -3  -6   23.80    5.30
   5   3  -6   36.40    7.50
   5   3  -6   18.30    5.40
  -5   3   6   22.50    4.50
  -4  -3   6   -2.00    7.80
   4  -3  -6    6.90    5.50
  -4   3   6   -0.50    6.40
   4   3  -6   -6.20    6.70
   4   3  -6    6.00    6.40
   4   3  -6   -5.10    6.60
  -3  -3   6  570.24   37.60
  -3  -3   6  531.35   40.10
   3  -3  -6  520.75   36.00
  -3  -3   6  525.65   35.80
   3   3  -6  593.34   37.80
   3   3  -6  585.84   39.30
  -3   3   6  585.34   38.30
   3   3  -6  591.64   38.00
  -2  -3   6  113.09   14.00
  -2  -3   6   92.49   18.00
  -2  -3   6   87.69   10.10
  -2  -3   6   75.29   14.20
  -2  -3   6   90.79   14.30
   2   3  -6   88.29   18.60
   2   3  -6   87.19   15.10
   2   3  -6   76.89   14.20
  -2   3   6   65.89   13.60
   2   3  -6   75.49   14.40
  -1  -3   6  573.94   37.70
  -1  -3   6  559.94   38.70
  -1  -3   6  552.64   36.20
  -1  -3   6  502.05   35.90
   1   3  -6  494.15   38.20
   1   3  -6  550.24   37.00
   1   3  -6  575.74   38.20
   1   3  -6  595.94   43.80
   1   3  -6  612.04   37.50
  -1   3   6  600.84   38.10
   0  -3   6    7.00    5.10
   0  -3   6   20.10    8.90
   0  -3   6   13.80    5.80
   0  -3   6   20.40    6.90
   0   3  -6   11.40   12.30
   0   3  -6   18.50    7.30
   0   3   6   12.00    9.30
   0   3  -6   14.20    9.80
   0   3  -6   14.00    7.50
   0   3  -6   12.90    8.30
  -1  -3  -6   44.70    6.70
   1  -3   6   46.00   10.10
   1  -3   6   45.30   10.20
   1  -3   6   38.20    8.60
   1  -3   6   64.89    9.60
  -1   3  -6   25.40    8.70
  -1   3  -6   65.49   16.30
  -1   3  -6   37.50    8.80
  -1   3  -6   43.00    9.90
   2  -3   6 1354.76   76.89
   2  -3   6 1096.69   78.09
  -2  -3  -6 1222.78   76.39
   2  -3   6 1207.98   77.19
  -2   3  -6 1168.78   78.29
  -2   3  -6 1286.97   82.79
   2   3   6 1348.47   78.79
  -2   3  -6 1294.07   79.29
   3  -3   6  335.17   27.20
   3  -3   6  304.37   23.90
  -3  -3  -6  305.07   24.60
   3  -3   6  327.87   21.50
  -3  -3  -6  337.77   21.50
  -3   3  -6  286.87   24.40
   3   3   6  299.07   23.50
   4  -3   6   60.19    7.60
   4  -3   6   54.99   11.90
  -4  -3  -6   51.09    8.90
  -4  -3  -6   59.99    8.20
   4   3   6   55.89    9.70
  -4   3  -6   65.99   12.20
  -5  -3  -6    4.80    5.20
  -5  -3  -6   10.50    2.80
   5  -3   6    7.60    4.80
  -5   3  -6    3.90    3.40
  -5   3  -6    2.70    4.20
   4   4  -6   70.79   10.30
   4   4  -6   70.19    7.90
  -4   4   6   86.79    8.90
   4   4  -6   78.79    8.40
  -3  -4   6  183.98   15.50
  -3  -4   6  168.18   13.50
  -3   4   6  178.08   15.60
   3   4  -6  196.58   15.30
   3   4  -6  194.38   15.00
   3   4  -6  150.48   17.40
  -2  -4   6  325.17   23.50
  -2  -4   6  332.87   26.90
  -2  -4   6  401.96   25.30
  -2   4   6  389.36   25.40
   2   4  -6  339.57   24.90
   2   4  -6  322.67   30.20
   2   4  -6  372.76   25.60
  -1  -4   6  279.07   24.70
  -1  -4   6  303.97   21.00
  -1  -4   6  263.07   28.80
  -1  -4   6  310.37   22.10
   1   4  -6  310.37   22.00
   1   4  -6  294.07   23.30
  -1   4   6  319.17   22.20
   1   4  -6  309.37   22.60
   0  -4   6  120.09   14.90
   0  -4   6  133.99   19.90
   0   4   6  119.19   14.50
   0   4  -6   96.69   17.10
   0   4  -6   80.89   13.80
   1  -4   6   97.09   13.80
   1  -4   6   86.79   15.90
   1  -4   6   81.49   12.20
   1  -4   6  100.09   10.00
  -1  -4  -6  108.89   15.00
  -1   4  -6  115.59   21.20
  -1   4  -6  102.09   15.00
  -1   4  -6   68.59   13.00
  -2  -4  -6  174.88   15.10
   2  -4   6  191.48   17.50
   2  -4   6  193.18   17.10
   2  -4   6  200.88   14.40
  -2   4  -6  182.28   17.80
  -2   4  -6  202.78   16.90
   3  -4   6    1.20    4.30
  -3  -4  -6    4.20    7.00
  -3  -4  -6    9.50    5.20
   3  -4   6   -3.40   11.30
   3  -4   6   -2.00    6.20
  -3   4  -6   -0.40    6.90
  -3   4  -6    6.50    5.70
   4  -4   6  111.19    9.70
   4  -4   6  120.59   10.20
  -4  -4  -6  130.89   10.30
  -4   4  -6  144.59   11.30
  -4   4  -6  128.19   10.40
  -2  -5   6   37.70    7.70
  -2  -5   6   42.20    6.20
  -2   5   6   30.50    5.60
   2   5  -6   41.10    6.80
  -1  -5   6   13.00    4.10
  -1  -5   6   25.90    6.50
  -1  -5   6   12.90   15.70
  -1   5   6   13.70    4.80
   1   5  -6   15.40    4.60
   1   5  -6   18.60    6.70
   0  -5   6   10.50   10.00
   0  -5   6   20.20    4.30
   0   5  -6   21.50   10.50
   0   5   6   26.10    5.80
   0   5  -6   15.40    5.10
   1  -5   6   11.80    7.20
   1  -5   6   43.10   11.30
   1  -5   6   24.60    4.20
   2  -5   6  116.39    8.70
   2  -5   6   95.69   10.80
  -2   5  -6  103.49   10.00
   6   0  -7  199.68   13.30
  -6   0   7  222.28   15.00
  -6   0   7  162.68   13.60
  -5   0   7  407.56   29.00
   5   0  -7  450.55   31.30
   5   0  -7  414.36   27.00
   5   0  -7  368.06   28.30
   4   0  -7  293.67   26.10
   4   0  -7  262.37   30.30
   4   0  -7  269.17   20.10
   4   0  -7  249.48   19.20
  -4   0   7  273.37   22.20
  -4   0   7  250.87   22.90
   3   0  -7  822.62   51.59
  -3   0   7  834.32   53.69
   3   0  -7  804.52   55.19
  -3   0   7  839.22   53.69
  -2   0   7  173.58   19.80
   2   0  -7  169.98   12.40
   2   0  -7  160.68   17.80
  -2   0   7  173.58   18.20
   1   0  -7  742.73   47.40
   1   0  -7  738.73   45.60
   0   0  -7  368.36   23.30
   0   0  -7  364.56   25.40
  -1   0  -7    5.00    2.60
  -1   0  -7    6.00    6.20
   2   0   7   13.00    6.90
  -2   0  -7    5.40    7.20
  -2   0  -7    6.60    2.90
  -2   0  -7   11.70    7.10
  -3   0  -7  558.44   40.30
  -3   0  -7  604.74   36.50
  -3   0  -7  555.94   40.90
  -3   0  -7  570.84   36.80
  -4   0  -7   67.89   11.40
  -4   0  -7   80.89   15.70
  -4   0  -7   73.49    8.90
  -4   0  -7   59.09   15.60
   4   0   7   61.39    9.20
  -5   0  -7  190.78   17.70
  -5   0  -7  200.08   14.60
   5   0   7  229.58   16.50
  -6  -1   7   17.10    5.20
   6   1  -7   13.00   10.00
  -6   1   7    8.30    4.20
   5  -1  -7  113.59   12.70
  -5  -1   7  127.69   14.10
   5  -1  -7  129.19   11.90
   5   1  -7  131.09   14.30
  -5   1   7  129.99   12.80
   5   1  -7  120.09   11.10
  -5   1   7  113.69   14.20
   4  -1  -7   -0.40    4.30
  -4  -1   7   -6.30    8.00
  -4  -1   7    5.50    9.90
   4  -1  -7    9.00    6.90
   4   1  -7    7.60    6.70
   4   1  -7    5.80   13.80
   4   1  -7    9.10   10.70
   4   1  -7    9.10    5.20
  -4   1   7   -7.90    9.00
  -3  -1   7  114.99   17.10
  -3  -1   7  122.69   14.80
   3  -1  -7  123.79   11.00
  -3   1   7  125.39   16.00
   3   1  -7  124.69   12.10
  -3   1   7  127.99   16.90
   3   1  -7  119.49   16.40
  -2  -1   7  528.95   33.40
  -2  -1   7  509.75   33.50
   2  -1  -7  516.85   30.50
   2   1  -7  407.16   37.10
   2   1  -7  505.65   32.90
  -2   1   7  438.06   37.70
   2   1  -7  442.46   32.40
   2   1  -7  520.35   31.20
  -2   1   7  428.76   33.70
  -1  -1   7  139.49   17.20
   1  -1  -7  120.09    9.50
  -1  -1   7  117.69    9.40
   1   1  -7  128.79   12.00
   0  -1  -7   34.00    5.00
   0  -1   7   30.10    5.10
   0   1  -7   26.40    6.00
   0   1  -7   40.50    6.40
   1  -1   7  417.26   30.70
  -1  -1  -7  452.95   26.30
   1  -1   7  387.16   26.60
   1  -1   7  387.26   32.30
  -1   1  -7  443.66   28.50
  -1   1  -7  435.86   27.00
  -1   1  -7  382.36   28.40
  -2  -1  -7  397.66   33.30
  -2  -1  -7  463.75   28.60
   2  -1   7  418.66   34.00
   2  -1   7  425.96   29.20
   2  -1   7  410.46   32.00
   2   1   7  486.75   31.60
  -2   1  -7  365.36   39.00
  -2   1  -7  510.75   31.50
   2   1   7  470.05   31.00
  -2   1  -7  489.45   29.50
  -2   1  -7  491.55   30.10
  -3  -1  -7  211.88   16.10
  -3  -1  -7  145.59   22.20
   3  -1   7  153.28   18.20
   3  -1   7  177.78   22.50
  -3  -1  -7  169.38   24.90
   3  -1   7  185.58   16.10
  -3   1  -7  174.88   21.90
   3   1   7  194.48   17.60
  -3   1  -7  200.08   15.20
  -3   1  -7  193.08   17.20
   3   1   7  198.08   16.40
  -3   1  -7  199.88   18.60
  -4  -1  -7   19.10   19.90
  -4  -1  -7    0.30    9.50
  -4  -1  -7    0.60    5.00
  -4  -1  -7   -8.20    4.50
  -4   1  -7    5.90    4.80
   4   1   7   -1.80    5.90
  -4   1  -7  -12.10   12.10
  -4   1  -7   -7.30    9.30
   4   1   7   -2.60    6.10
  -5  -1  -7   59.59   12.00
   5  -1   7   64.19   10.70
  -5  -1  -7   56.99    7.10
  -5   1  -7   50.59   11.90
   5   1   7   50.39    9.00
   5  -2  -7  125.79   11.10
  -5  -2   7  103.79   12.30
   5  -2  -7  102.09   11.80
   5   2  -7  129.99   12.40
  -5   2   7  126.89   12.20
   5   2  -7  140.19   15.10
  -4  -2   7   13.20    7.70
   4  -2  -7   31.20    8.80
  -4  -2   7   11.90   12.10
   4   2  -7   34.80    9.90
  -4   2   7   48.50    9.10
   4   2  -7   30.30    6.20
   4   2  -7   29.50   17.00
   4   2  -7   24.30   10.90
  -4   2   7   16.60    9.80
   4   2  -7   40.10    9.80
   3  -2  -7  220.88   15.80
  -3  -2   7  187.28   20.70
  -3  -2   7  203.68   18.30
  -3  -2   7  212.08   18.50
   3   2  -7  214.18   22.70
  -3   2   7  205.88   19.70
   3   2  -7  218.58   21.60
   3   2  -7  203.18   23.10
   3   2  -7  176.98   19.90
   3   2  -7  208.68   16.40
   3   2  -7  201.48   20.80
  -3   2   7  214.58   23.10
   2  -2  -7  152.78   11.70
  -2  -2   7  166.68   15.80
  -2  -2   7  161.08   13.30
  -2  -2   7  124.19   15.60
  -2  -2   7  131.09   15.50
   2   2  -7  117.79   18.30
  -2   2   7  152.58   25.40
   2   2  -7  101.59   20.50
  -2   2   7  150.88   17.40
   2   2  -7  121.49   13.80
   2   2  -7  114.79   14.60
  -1  -2   7  108.29   14.10
  -1  -2   7  109.49   10.50
  -1  -2   7  104.79   16.60
  -1  -2   7  110.19   13.10
   1   2  -7  105.99   12.00
  -1   2   7  111.19   22.00
   1   2  -7  126.89   20.20
   1   2  -7  103.09   11.50
   1   2  -7   92.19   13.10
   1   2  -7  102.19   18.40
   0  -2   7 1402.46   81.49
   0  -2   7 1214.58   79.79
   0  -2   7 1330.97   80.19
   0   2  -7 1341.37   80.19
   0   2  -7 1113.69   82.29
   0   2  -7 1312.67   80.19
   0   2  -7 1390.46   81.09
   1  -2   7   38.40    7.50
  -1  -2  -7   36.20    6.40
   1  -2   7   43.50   10.30
   1  -2   7   49.60    7.20
  -1   2  -7   59.79   11.20
  -1   2  -7   39.20    7.30
   2  -2   7   68.89   10.50
  -2  -2  -7   65.49    7.60
   2  -2   7   81.49   10.80
   2  -2   7   83.09   14.10
  -2   2  -7   64.09   11.70
  -2   2  -7   89.39   19.40
   2   2   7   65.69   12.80
  -2   2  -7   95.29   12.30
  -2   2  -7   87.29   12.20
   3  -2   7  115.49   11.60
  -3  -2  -7  109.29   14.30
   3  -2   7  111.29   18.10
   3  -2   7  105.89   15.10
   3  -2   7  122.19   16.30
  -3  -2  -7  127.79    9.60
  -3   2  -7   88.69   17.30
  -3   2  -7   81.09   15.60
  -3   2  -7   98.59   16.00
   3   2   7  104.99   13.00
  -3   2  -7   86.09   13.30
   3   2   7   88.29   13.30
   4  -2   7  106.19   16.20
  -4  -2  -7  146.39   11.30
  -4  -2  -7  134.99   12.00
  -4  -2  -7  151.88   16.70
   4  -2   7  120.69   17.60
   4   2   7  126.39   13.10
  -4   2  -7  114.89   15.70
   4   2   7  115.99   13.10
  -5  -2  -7  246.08   16.00
  -5  -2  -7  224.78   18.10
  -5  -2  -7  227.88   19.60
  -5   2  -7  236.28   18.10
   5   2   7  264.47   16.60
  -5   2  -7  227.88   18.20
   5  -3  -7   45.50    8.40
  -5  -3   7   56.99    8.70
   5   3  -7   46.90    7.30
  -5   3   7   69.29    7.20
   5   3  -7   63.79    7.90
   4  -3  -7  265.27   18.80
  -4  -3   7  275.17   19.60
   4   3  -7  256.47   20.10
  -4   3   7  250.97   19.30
   4   3  -7  230.18   19.40
   4   3  -7  253.27   19.80
  -3  -3   7  232.08   19.30
  -3  -3   7  243.28   25.30
   3  -3  -7  226.18   18.50
  -3  -3   7  270.87   19.50
   3   3  -7  250.37   19.90
   3   3  -7  248.58   21.50
  -3   3   7  277.17   20.60
   3   3  -7  232.68   40.80
   3   3  -7  256.87   21.00
  -2  -3   7   95.49   15.80
  -2  -3   7  121.39   16.30
  -2  -3   7   89.79   11.20
  -2  -3   7  135.19   14.60
   2   3  -7  101.09   15.20
  -2   3   7  119.29   14.90
   2   3  -7   98.49   18.60
   2   3  -7  110.39   18.50
   2   3  -7  136.09   15.30
  -1  -3   7  188.58   18.00
  -1  -3   7  188.88   18.00
  -1  -3   7  213.38   19.00
  -1  -3   7  191.28   18.30
  -1  -3   7  200.58   15.60
   1   3  -7  194.78   18.70
   1   3  -7  181.68   25.70
  -1   3   7  193.48   19.00
   1   3  -7  190.28   19.10
   1   3  -7  210.98   19.60
   0  -3   7  572.84   40.80
   0  -3   7  559.74   39.80
   0  -3   7  629.84   38.90
   0  -3   7  643.64   40.60
   0   3  -7  635.14   42.20
   0   3  -7  663.63   40.50
   0   3  -7  561.64   41.10
   1  -3   7  273.57   21.00
   1  -3   7  253.97   21.00
  -1  -3  -7  220.18   18.20
   1  -3   7  251.27   20.40
   1  -3   7  257.17   18.70
  -1   3  -7  264.87   26.30
  -1   3  -7  267.17   21.30
  -1   3  -7  255.37   24.00
  -1   3  -7  289.87   21.90
   2  -3   7  435.46   27.80
  -2  -3  -7  411.96   27.50
   2  -3   7  437.26   30.70
   2  -3   7  416.36   30.80
   2  -3   7  425.26   30.10
  -2   3  -7  358.16   35.50
  -2   3  -7  444.96   30.40
  -2   3  -7  442.26   31.60
  -3  -3  -7  170.48   15.90
   3  -3   7  175.08   12.30
   3  -3   7  149.79   14.80
  -3  -3  -7  164.18   12.20
  -3   3  -7  142.49   16.90
   3   3   7  130.09   14.40
  -3   3  -7  118.09   15.10
   4  -3   7   41.10    8.40
  -4  -3  -7   35.90    8.20
  -4  -3  -7   43.90    8.00
  -4   3  -7   51.69   10.90
  -4   3  -7   51.79   10.10
  -4  -4   7   -0.30    5.10
   4   4  -7    5.30    3.60
   4   4  -7    4.20    5.60
  -4   4   7    5.60    3.80
   4   4  -7    2.70    4.30
  -3  -4   7   93.19   11.20
   3   4  -7  106.99   10.40
   3   4  -7  121.09   11.00
  -3   4   7  120.09   11.60
   3   4  -7   92.49   13.60
  -2  -4   7   26.40    7.00
  -2   4   7   19.50    6.00
   2   4  -7   19.10    6.50
   2   4  -7   23.40    6.20
  -1  -4   7   44.70    7.90
  -1  -4   7   41.90    9.30
  -1  -4   7   33.30    7.70
  -1   4   7   25.70    7.30
   0  -4   7  328.77   27.90
   0  -4   7  349.77   32.00
   0  -4   7  435.96   26.20
   0  -4   7  378.76   28.40
   0   4  -7  427.86   29.40
   0   4   7  447.26   28.50
   0   4  -7  401.16   27.80
   1  -4   7   73.79   14.30
   1  -4   7   85.99    9.20
   1  -4   7  102.99   12.90
  -1   4  -7   77.69   12.30
  -1   4  -7  114.09   20.10
   2  -4   7   17.90    7.60
  -2  -4  -7   10.60    5.90
   2  -4   7   14.30    4.50
  -2   4  -7    8.40    7.20
  -2   4  -7   15.60    6.60
   3  -4   7    1.30    5.00
  -3  -4  -7    6.60    6.40
   3  -4   7    3.90    3.70
  -3  -4  -7   11.50    5.40
  -3   4  -7   17.50    6.20
  -3   4  -7   16.10    5.20
  -2  -5   7   44.00    7.70
   2   5  -7   54.19    7.50
  -2   5   7   51.39    8.00
   2   5  -7   68.99    6.70
  -1  -5   7   30.00    5.50
  -1  -5   7   20.70    5.30
  -1   5   7   29.10    5.40
   1   5  -7   20.60    6.30
   1   5  -7   14.30    4.30
   0  -5   7    9.60    3.60
   0  -5   7   -1.10    5.30
   0   5  -7    6.40    8.70
   0   5  -7    7.60    4.20
   1  -5   7  120.89    9.10
   1  -5   7  117.99   12.20
  -1   5  -7   99.99   10.40
   2  -5   7  107.09   10.20
  -2   5  -7  102.59    9.60
   5   0  -8   21.40   10.80
  -5   0   8   -6.50    7.10
   5   0  -8   -2.50    4.50
   5   0  -8   -0.40    8.90
   4   0  -8   23.70   21.50
  -4   0   8   66.39   12.90
   4   0  -8   44.20    7.00
   4   0  -8   53.89    9.50
  -4   0   8   45.60   10.10
   4   0  -8   67.69   14.30
  -3   0   8  238.88   22.10
  -3   0   8  263.77   22.60
   3   0  -8  287.77   19.50
   3   0  -8  265.27   28.30
   2   0  -8  355.86   22.80
   2   0  -8  341.47   28.10
  -2   0   8  366.16   28.70
   2   0  -8  334.67   28.40
  -2   0   8  329.87   25.60
   1   0  -8   12.60    3.80
   1   0  -8   18.00    9.40
  -1   0   8   23.20    9.50
   0   0  -8    3.50    8.40
   0   0  -8    4.90    3.10
   0   0   8    6.00   17.20
  -1   0  -8  435.06   27.60
  -1   0  -8  433.36   34.40
  -1   0  -8  425.06   30.70
  -2   0  -8  244.68   22.00
   2   0   8  240.18   20.00
  -2   0  -8  251.17   19.20
  -2   0  -8  237.48   16.80
  -3   0  -8  240.18   16.80
  -3   0  -8  212.58   24.70
  -3   0  -8  215.68   26.80
  -3   0  -8  227.18   17.20
   3   0   8  220.68   18.60
   4   0   8  108.59   12.60
  -4   0  -8   95.69   10.00
  -4   0  -8   88.99   13.30
  -4   0  -8  126.09   16.70
  -4   0  -8  127.59   26.40
  -5   0  -8   10.50    7.50
  -5   0  -8    3.80    3.90
   5  -1  -8   75.29   11.30
  -5  -1   8   81.79   11.20
   5  -1  -8   84.19    9.00
  -5   1   8   80.79   10.30
   5   1  -8   73.99    8.30
   5   1  -8   77.79   11.30
  -5   1   8   72.19   11.60
   4  -1  -8   54.79   11.30
  -4  -1   8   34.30   10.00
   4  -1  -8   53.19    8.90
  -4  -1   8   37.10    9.40
  -4   1   8   65.09   10.10
   4   1  -8   80.99   14.70
  -4   1   8   55.99   10.20
   4   1  -8   50.79   17.40
   4   1  -8   77.99   12.30
   4   1  -8   74.79    9.40
  -3  -1   8  769.12   51.39
   3  -1  -8  792.02   49.80
  -3  -1   8  792.12   51.59
  -3   1   8  780.42   51.89
  -3   1   8  754.62   52.09
   3   1  -8  828.52   53.59
   3   1  -8  818.22   50.19
  -2  -1   8    6.50    9.20
   2  -1  -8   -1.70    3.20
  -2  -1   8   -3.30    7.70
  -2   1   8   -7.50    8.90
   2   1  -8  -19.30   14.10
   2   1  -8   -0.90    4.10
   2   1  -8    6.70    8.10
  -2   1   8   26.00   14.40
   2   1  -8   -8.10    6.80
   1  -1  -8   37.50    6.30
  -1  -1   8   40.90   12.70
  -1  -1   8   40.60    8.90
   1   1  -8   45.70   10.80
   1   1  -8   54.79    7.20
   1   1  -8   68.19   12.10
  -1   1   8   45.20   14.00
   0  -1   8 1249.68   79.59
   0  -1  -8 1331.67   77.49
   0   1  -8 1272.97   77.99
   0   1  -8 1202.28   78.59
   0   1  -8 1317.67   79.89
   1  -1   8  117.29   10.90
  -1   1  -8  130.29   11.30
  -1   1  -8  153.38   14.50
  -1   1  -8  152.08   13.80
  -2  -1  -8  117.49    9.80
  -2  -1  -8  140.29   16.00
   2  -1   8  103.79   17.80
   2  -1   8  121.09   15.50
  -2   1  -8  115.39   15.40
  -2   1  -8  125.99   12.00
  -2   1  -8  140.39   12.80
  -2   1  -8  118.69   27.20
   2   1   8  117.79   14.70
   3  -1   8  247.28   24.30
  -3  -1  -8  249.97   18.80
   3  -1   8  266.77   21.60
  -3  -1  -8  271.57   33.40
  -3  -1  -8  222.98   26.60
  -3  -1  -8  239.88   17.70
   3   1   8  246.58   19.60
  -3   1  -8  270.27   23.80
  -3   1  -8  237.78   21.00
  -3   1  -8  258.87   26.10
  -3   1  -8  260.47   18.50
  -4  -1  -8   86.59   16.10
  -4  -1  -8  109.69   11.40
   4  -1   8  143.19   14.60
  -4  -1  -8  115.29   10.90
   4   1   8  103.49   11.80
  -4   1  -8  112.09   10.50
  -4   1  -8  111.19   17.10
  -5  -1  -8  186.08   12.30
   5  -1   8  169.08   13.80
  -5  -1  -8  163.18   16.10
   5   1   8  178.78   13.40
  -5   1  -8  164.28   18.80
  -5   1  -8  171.98   15.60
   5  -2  -8   25.40    4.90
   5  -2  -8   23.80    7.00
  -5  -2   8   27.60    6.40
   5   2  -8   28.10    9.20
   5   2  -8   20.00    5.90
  -5   2   8   23.60    5.10
  -4  -2   8   53.59   12.30
   4  -2  -8   71.49    9.70
   4  -2  -8   65.99   10.40
  -4  -2   8   90.19   12.20
   4   2  -8   74.29   13.10
  -4   2   8  101.19   13.10
  -4   2   8   78.39   14.90
   4   2  -8   65.49   13.10
   4   2  -8   65.99   10.40
  -3  -2   8  117.79   16.60
  -3  -2   8  125.49   13.20
   3   2  -8  108.19   16.40
  -3   2   8  107.09   19.70
   3   2  -8   82.39   17.80
   3   2  -8   94.89   19.60
   3   2  -8  114.89   16.40
   3   2  -8  103.79   15.00
  -3   2   8  123.49   15.40
   3   2  -8   94.19   11.20
   2  -2  -8  692.93   45.70
  -2  -2   8  700.03   46.60
  -2  -2   8  720.33   47.30
  -2  -2   8  704.93   47.80
   2   2  -8  743.13   47.20
   2   2  -8  804.92   50.69
   2   2  -8  783.82   49.10
  -2   2   8  736.03   48.40
  -2   2   8  677.53   54.09
   2   2  -8  757.62   48.70
  -1  -2   8  393.66   25.30
   1  -2  -8  376.76   26.30
  -1  -2   8  368.36   27.80
   1   2  -8  366.86   31.70
   1   2  -8  381.46   25.90
   1   2  -8  348.07   26.80
   1   2  -8  365.56   28.90
   1   2  -8  352.86   25.70
   0  -2   8  142.39   16.60
   0  -2  -8  158.98   12.30
   0  -2   8  146.49   16.00
   0  -2   8  171.78   13.70
   0   2  -8  186.28   15.50
   0   2  -8  173.48   14.90
   0   2  -8  166.88   15.40
   0   2  -8  148.59   21.70
   1  -2   8    3.10    5.50
  -1  -2  -8    2.20    3.50
   1  -2   8   15.20    7.50
   1  -2   8   10.70    8.50
  -1   2  -8    2.90    6.70
  -1   2  -8    6.40    6.20
  -1   2  -8    7.20    9.00
   2  -2   8  224.58   17.40
   2  -2   8  209.88   18.70
  -2  -2  -8  214.78   14.30
   2  -2   8  199.38   20.80
  -2   2  -8  195.18   24.20
  -2   2  -8  165.88   18.30
  -2   2  -8  182.38   16.20
  -2   2  -8  147.59   19.90
  -3  -2  -8  388.06   34.20
   3  -2   8  397.46   32.10
   3  -2   8  448.86   30.60
  -3  -2  -8  450.15   27.90
  -3  -2  -8  433.06   29.20
  -3   2  -8  446.16   30.00
   3   2   8  444.56   29.20
  -3   2  -8  409.96   32.80
  -3   2  -8  421.26   31.40
  -3   2  -8  435.76   32.80
   4  -2   8   47.30    9.80
  -4  -2  -8   56.49    9.10
  -4  -2  -8   67.79    8.80
  -4  -2  -8   59.49   11.50
  -4   2  -8   65.49   13.00
  -5  -2  -8   40.10    5.00
  -5  -2  -8   21.50    7.30
  -5   2  -8   39.80    8.70
  -5   2  -8   28.60    5.70
  -4  -3   8  152.98   13.50
   4  -3  -8  193.58   15.10
   4   3  -8  149.88   14.40
   4   3  -8  170.88   14.70
   4   3  -8  162.98   14.50
  -4   3   8  174.48   14.30
  -3  -3   8    2.40    6.90
   3  -3  -8   -5.30    7.10
  -3  -3   8   -5.30   11.30
   3   3  -8   18.60    7.50
   3   3  -8   11.80    9.50
  -3   3   8   10.20    5.90
  -2  -3   8   84.59   14.20
  -2  -3   8  127.49   15.10
  -2  -3   8  116.09   13.80
  -2  -3   8   87.29   18.00
   2   3  -8  120.69   15.10
  -2   3   8  121.59   14.30
   2   3  -8  118.59   15.40
   2   3  -8   98.89   17.90
   2   3  -8  145.99   21.70
  -1  -3   8  355.06   24.80
  -1  -3   8  360.16   23.20
  -1  -3   8  315.57   26.20
  -1  -3   8  347.07   25.70
   1   3  -8  317.57   27.30
   1   3  -8  374.36   26.70
   1   3  -8  362.46   26.10
  -1   3   8  332.27   26.40
   1   3  -8  282.57   30.10
   0  -3   8  127.29   12.60
   0  -3   8  111.89   15.00
   0  -3   8  135.99   15.50
   0   3  -8  168.38   17.10
   0   3  -8  161.88   18.40
   0   3  -8  147.99   17.30
   1  -3   8   72.59   14.30
   1  -3   8   86.39    9.70
   1  -3   8   63.99   12.30
  -1  -3  -8   77.59    9.40
  -1   3  -8   82.29   15.80
   2  -3   8   43.20    8.20
   2  -3   8   66.89   17.30
  -2  -3  -8   50.39    7.60
  -2   3  -8   46.20   11.20
  -2   3  -8   19.50   13.60
  -2   3  -8   38.10    8.30
  -3  -3  -8  296.27   23.40
   3  -3   8  314.17   23.30
   3  -3   8  307.67   23.00
  -3  -3  -8  300.57   21.50
  -3   3  -8  337.57   25.30
  -3   3  -8  357.56   24.60
  -4  -3  -8    3.10    3.60
   4  -3   8    5.60    5.20
  -4  -3  -8   -3.60    8.90
  -4  -3  -8    2.50    6.20
  -4   3  -8    8.70    4.30
  -4   3  -8    7.50    6.20
  -3  -4   8   16.70    5.50
   3   4  -8   -1.40    7.90
   3   4  -8    7.20    3.90
  -3   4   8   15.00    5.10
   3   4  -8    8.70    3.70
  -2  -4   8  335.67   24.00
   2   4  -8  351.26   24.40
  -2   4   8  375.36   24.40
   2   4  -8  351.56   24.40
   2   4  -8  335.77   34.80
  -1  -4   8   71.89    8.60
  -1  -4   8   78.59   12.70
  -1   4   8   50.99    8.80
   1   4  -8   61.09   12.00
   0  -4   8   91.79    9.30
   0  -4   8   88.09   12.70
   0  -4   8   65.59   12.10
   0   4  -8  109.09   15.40
   0   4  -8   82.19   12.50
   1  -4   8    7.50    6.50
   1  -4   8    1.00    4.60
  -1   4  -8    5.70    6.10
  -2  -4  -8   11.20    6.60
   2  -4   8    8.60    5.80
   2  -4   8    0.70    4.20
  -2   4  -8    5.70    5.60
  -3  -4  -8  546.65   35.00
   3  -4   8  525.65   34.90
  -3   4  -8  579.24   36.00
  -3   4  -8  548.15   35.10
  -1  -5   8   48.20    7.00
   1   5  -8   38.40    6.60
   1   5  -8   43.50    8.00
   0  -5   8  133.99   11.00
   0   5  -8  123.59   10.50
   0   5  -8  114.39   12.90
   1  -5   8  105.79   10.10
   1  -5   8   94.49    9.00
  -1   5  -8   73.69    7.80
   5   0  -9    0.60    9.20
   5   0  -9   24.90   13.80
  -5   0   9   -2.30    4.90
  -5   0   9   -5.00    5.70
   5   0  -9   -0.90    3.50
  -4   0   9  229.98   20.90
   4   0  -9  278.37   19.40
   4   0  -9  298.17   20.20
   4   0  -9  297.37   24.00
  -4   0   9  243.98   20.60
  -3   0   9   28.20   10.30
  -3   0   9    1.10    7.90
   3   0  -9   16.80    5.50
   2   0  -9   45.20    9.70
  -2   0   9   19.60    8.40
   2   0  -9   25.80    4.90
   2   0  -9   43.60   17.50
  -2   0   9   30.00   12.90
  -1   0   9  466.75   34.50
   1   0  -9  463.45   35.70
   1   0  -9  502.65   35.10
   1   0  -9  514.25   31.10
   0   0  -9  210.08   20.90
   0   0  -9  190.38   20.70
   0   0   9  159.88   20.80
   0   0  -9  196.78   13.80
  -1   0  -9  175.58   20.60
   1   0   9  185.28   24.20
  -1   0  -9  186.38   17.90
  -1   0  -9  197.38   13.80
  -2   0  -9  293.37   22.50
   2   0   9  333.67   24.60
  -2   0  -9  370.36   29.90
  -2   0  -9  348.07   23.50
  -3   0  -9  102.69   11.00
  -3   0  -9  138.59   25.00
   3   0   9   98.49   13.30
  -3   0  -9   79.89   10.40
   4   0   9  214.28   17.20
  -4   0  -9  211.28   19.20
  -4   0  -9  189.58   15.20
  -4   0  -9  254.57   22.70
   5   0   9   24.20    4.70
  -5   0  -9   22.60    4.60
  -5   0  -9   43.90   10.40
   5  -1  -9  248.78   15.90
  -5  -1   9  215.18   16.80
   5  -1  -9  202.18   18.10
  -5   1   9  225.98   17.40
   5   1  -9  221.18   15.20
  -5   1   9  237.58   16.70
   4  -1  -9  308.37   21.40
   4  -1  -9  274.07   20.40
  -4  -1   9  271.07   23.40
  -4  -1   9  284.47   21.50
   4   1  -9  287.27   23.50
   4   1  -9  295.57   22.50
  -4   1   9  291.87   22.00
   4   1  -9  303.87   20.20
  -4   1   9  266.17   23.20
  -3  -1   9  130.39   15.50
   3  -1  -9  123.69   11.60
  -3  -1   9  123.19   15.80
   3   1  -9  105.69   21.30
   3   1  -9  124.39   12.60
  -3   1   9  116.79   16.20
  -3   1   9  103.59   18.80
  -3   1   9   86.19   15.00
  -2  -1   9  299.87   23.80
  -2  -1   9  268.37   22.50
   2  -1  -9  274.67   19.00
  -2   1   9  295.37   24.50
   2   1  -9  280.17   24.60
   2   1  -9  259.37   26.20
  -2   1   9  267.07   29.30
  -2   1   9  270.37   23.70
   2   1  -9  242.78   19.80
   2   1  -9  276.97   20.90
  -1  -1   9  188.58   21.60
   1  -1  -9  168.78   12.10
  -1  -1   9  145.99   15.50
   1   1  -9  162.28   14.80
   1   1  -9  134.49   12.30
   1   1  -9  135.59   17.70
  -1   1   9  125.99   21.60
   0   1  -9  197.58   17.40
   0   1  -9  200.58   15.40
   0   1  -9  242.78   20.50
   1  -1   9  776.32   48.10
  -1  -1  -9  759.42   45.70
  -1   1  -9  754.62   49.20
  -1   1  -9  662.73   46.20
  -1   1  -9  724.93   46.70
  -2  -1  -9   34.90    6.70
   2  -1   9   27.60   10.00
  -2  -1  -9   25.40    7.90
  -2   1  -9   48.40    9.30
   2   1   9   39.60    8.10
  -2   1  -9   56.69   12.20
  -3  -1  -9   85.09    9.20
   3  -1   9  114.29   18.00
   3  -1   9   63.69   13.60
  -3  -1  -9   69.69   10.60
  -3   1  -9   82.39   14.80
  -3   1  -9  103.39   20.50
  -3   1  -9   99.09   21.50
   3   1   9  105.39   12.30
  -3   1  -9   92.29   14.60
  -3   1  -9   84.69    9.80
  -4  -1  -9  212.08   14.60
  -4  -1  -9  229.88   16.30
  -4  -1  -9  155.98   22.50
   4  -1   9  195.18   16.80
   4   1   9  201.58   16.10
  -4   1  -9  173.78   20.40
  -4   1  -9  206.88   24.00
  -4   1  -9  168.38   14.20
  -5  -1  -9   61.99    6.30
  -5  -1  -9   79.39   19.20
  -5  -2   9   42.60    7.70
   5  -2  -9   55.59    7.00
   5   2  -9   50.69    7.50
  -5   2   9   35.30    7.00
  -4  -2   9  120.29   12.70
   4  -2  -9  111.59   14.60
   4  -2  -9  118.79   11.50
   4   2  -9  146.59   19.20
   4   2  -9  108.99   10.90
  -4   2   9  129.49   13.50
   4   2  -9   88.89   13.10
  -3  -2   9  111.49   15.30
  -3   2   9   89.49   18.90
   3   2  -9   72.09   12.60
   3   2  -9   91.09   15.10
   3   2  -9  132.59   22.30
  -3   2   9   97.69   14.30
   3   2  -9  101.99   14.90
   3   2  -9   87.49   10.20
   2  -2  -9  290.17   21.70
  -2  -2   9  290.57   24.30
  -2  -2   9  297.07   24.40
   2   2  -9  339.87   24.50
  -2   2   9  312.17   25.30
   2   2  -9  353.16   30.30
   2   2  -9  335.67   25.50
  -1  -2   9  331.77   23.90
   1  -2  -9  305.77   21.70
  -1  -2   9  332.67   25.20
   1   2  -9  317.57   24.10
   1   2  -9  310.47   22.90
   1   2  -9  302.67   25.60
   1   2  -9  320.67   29.70
   1   2  -9  306.77   26.30
   0  -2   9  351.76   25.00
   0  -2   9  295.27   26.60
   0  -2   9  303.37   22.80
   0  -2  -9  317.37   21.30
   0   2  -9  343.57   23.00
   0   2  -9  259.27   29.40
   0   2  -9  336.07   25.20
   0   2  -9  328.77   27.30
   0   2  -9  328.57   23.80
  -1  -2  -9  498.25   32.00
   1  -2   9  474.65   34.80
  -1   2  -9  557.64   37.20
  -1   2  -9  493.85   35.60
  -1   2  -9  515.45   35.40
  -1   2  -9  497.05   33.30
   2  -2   9  107.69   17.10
   2  -2   9  145.99   15.80
  -2  -2  -9  118.49   10.50
  -2   2  -9  140.09   12.80
  -2   2  -9  157.48   19.50
  -2   2  -9   96.99   18.00
   3  -2   9  119.79   14.10
  -3  -2  -9   80.39    9.60
  -3  -2  -9   87.79   11.20
  -3   2  -9   99.69   15.80
  -3   2  -9  109.99   19.10
  -3   2  -9  135.09   17.90
  -4  -2  -9  125.09   11.40
  -4  -2  -9  112.29    9.90
  -4   2  -9   93.39   14.30
  -4  -3   9   68.79    8.60
   4   3  -9   92.69   10.60
   4   3  -9   66.99    8.70
  -4   3   9   71.39    9.00
   4   3  -9   92.89   10.70
   3  -3  -9   25.90    8.90
  -3  -3   9   31.60    7.30
  -3  -3   9   20.50    9.30
   3   3  -9   33.90    7.60
   3   3  -9   33.40    7.80
   3   3  -9   19.20    8.90
  -3   3   9   39.70    7.40
  -2  -3   9   84.19   14.10
  -2  -3   9   72.19   11.00
  -2   3   9   97.79   14.40
   2   3  -9   76.39   16.30
   2   3  -9  101.09   14.30
   2   3  -9  109.49   13.40
  -1  -3   9   22.50   12.50
  -1  -3   9   10.30    7.80
   1   3  -9   10.20    8.90
   1   3  -9   -1.00   13.90
   1   3  -9    5.10    8.70
   1   3  -9    0.60   15.50
   0  -3   9   58.69   11.30
   0  -3   9   52.29   10.80
   0  -3   9   61.39   16.10
   0  -3   9   61.79   10.70
   0   3  -9   31.40   11.00
   0   3  -9   30.40   13.60
   0   3  -9   33.00    9.80
   1  -3   9  452.05   35.80
   1  -3   9  623.34   36.80
   1  -3   9  496.35   38.60
  -1  -3  -9  561.34   34.60
  -1   3  -9  619.34   37.50
  -1   3  -9  536.95   40.60
  -1   3  -9  521.15   38.30
  -2  -3  -9   76.89    9.20
   2  -3   9   91.49   12.20
  -2   3  -9  110.29   20.60
  -2   3  -9   73.59   13.90
  -3  -3  -9   58.49    8.40
   3  -3   9   51.39   10.00
  -3   3  -9   38.40   10.30
  -3   3  -9   46.70    7.50
   4  -3   9   50.09    8.40
  -4  -3  -9   46.90    6.60
  -4   3  -9   38.10    7.40
  -4   3  -9   47.60    9.60
   3   4  -9  122.49   10.10
  -3   4   9  118.69   10.80
   3   4  -9  124.19    9.80
   3   4  -9   95.39   12.80
  -2  -4   9   87.29   10.00
   2   4  -9   67.39    9.20
  -2   4   9   89.59   11.30
   2   4  -9   79.19    9.70
  -1  -4   9   33.90    7.80
  -1  -4   9   48.00    9.50
   1   4  -9   46.80   10.00
   1   4  -9   58.99   10.30
   0  -4   9   45.90   10.40
   0  -4   9   50.49   10.00
   0   4  -9   35.00    6.60
   0   4  -9   55.49   11.90
   1  -4   9   64.19   10.40
   1  -4   9   89.39   10.70
  -1   4  -9   83.19   10.10
  -1   4  -9   68.79   12.20
   2  -4   9  156.58   14.40
   2  -4   9  159.48   12.40
  -2   4  -9  149.29   13.30
   5   0 -10   11.60    3.40
  -5   0  10    6.10    4.90
  -5   0  10   18.30    5.20
   4   0 -10   46.00   11.00
   4   0 -10   56.89    9.30
  -4   0  10   43.00    9.50
   4   0 -10   56.19   10.10
  -3   0  10  184.18   17.80
  -3   0  10  187.88   19.70
   3   0 -10  218.88   16.20
  -2   0  10  543.65   36.90
   2   0 -10  508.75   34.30
  -2   0  10  523.25   38.30
   2   0 -10  542.65   36.00
   1   0 -10   41.30    9.40
  -1   0  10   62.39   14.30
   0   0 -10   38.30    8.90
   0   0  10   17.90   10.50
   0   0 -10   26.30    5.20
  -1   0 -10  201.08   16.70
  -1   0 -10  148.29   26.30
  -1   0 -10  217.78   14.90
   1   0  10  155.68   23.30
  -2   0 -10  267.97   30.30
  -2   0 -10  227.28   17.20
  -2   0 -10  218.78   17.80
  -3   0 -10   69.19   10.60
  -3   0 -10   64.09    8.70
  -3   0 -10   86.49   29.70
  -4   0 -10   32.30   11.40
   5  -1 -10   39.70    6.00
  -5   1  10   41.40    6.20
   5   1 -10   38.30    6.30
   5   1 -10   55.09    8.30
  -4  -1  10   46.20    9.70
   4  -1 -10   30.40    6.30
   4  -1 -10   33.10    6.60
  -4  -1  10   45.80    8.60
   4   1 -10   25.40    8.40
  -4   1  10   43.00    8.10
   4   1 -10   25.60    4.90
  -4   1  10   22.70    9.30
   4   1 -10   12.70    9.70
  -3  -1  10   37.20    8.80
   3  -1 -10   41.40    6.80
  -3  -1  10   26.40    9.70
   3   1 -10   60.29    9.20
   3   1 -10   41.40    8.30
  -3   1  10   43.00    9.90
  -3   1  10   46.50    9.80
   3   1 -10   30.20   19.30
  -3   1  10   43.90   12.10
  -2  -1  10  322.07   23.50
   2  -1 -10  331.87   20.80
  -2  -1  10  341.67   25.00
   2   1 -10  261.67   21.70
   2   1 -10  266.97   29.00
   2   1 -10  290.47   21.50
  -2   1  10  278.37   24.70
   2   1 -10  257.47   26.50
  -1  -1  10  662.83   44.90
   1  -1 -10  635.64   40.30
  -1  -1  10  676.43   43.00
  -1   1  10  632.04   44.60
   1   1 -10  558.64   45.00
   1   1 -10  637.94   44.20
   1   1 -10  679.13   41.10
   1   1 -10  641.94   41.40
   0  -1  10  133.39   15.80
   0  -1 -10  120.79   10.60
   0   1 -10  134.59   20.00
   0   1 -10   90.19   12.50
   1  -1  10  218.68   21.00
  -1  -1 -10  213.98   16.20
  -1   1 -10  222.18   23.30
  -1   1 -10  238.18   17.50
  -1   1 -10  234.38   17.70
  -2  -1 -10    9.30    4.50
   2  -1  10   18.50    9.90
  -2  -1 -10    7.80    6.60
  -2   1 -10   18.70    5.30
  -2   1 -10    8.80    7.70
  -2   1 -10   10.40   13.50
  -3  -1 -10  126.09   11.50
  -3  -1 -10  137.29   11.20
  -3   1 -10   84.19   17.70
  -3   1 -10  112.49   10.70
  -4  -1 -10  259.87   17.10
  -4  -1 -10  238.28   19.30
  -4   1 -10  252.47   16.80
   4  -2 -10   25.40    6.50
  -4  -2  10   18.50    7.90
   4  -2 -10   13.40    6.40
  -4  -2  10   20.30    6.40
   4   2 -10   27.60    6.90
  -4   2  10   15.10    5.40
   4   2 -10   10.20    6.80
  -3  -2  10  275.77   23.00
   3  -2 -10  290.87   21.10
  -3  -2  10  284.67   22.20
   3   2 -10  308.07   20.40
   3   2 -10  331.77   24.00
   3   2 -10  274.97   23.40
  -3   2  10  311.17   23.00
  -2  -2  10  330.07   23.20
   2  -2 -10  275.57   20.60
  -2  -2  10  306.67   22.00
   2   2 -10  263.87   23.80
   2   2 -10  277.97   23.20
   2   2 -10  283.07   29.70
  -1  -2  10   17.40    8.00
  -1  -2  10    3.00    9.80
   1   2 -10    6.80   13.00
   1   2 -10   28.50    7.00
   1   2 -10   17.80    8.90
   1   2 -10   38.60   13.50
   1   2 -10   24.50   10.90
   0  -2 -10  307.67   21.80
   0  -2  10  296.47   26.70
   0  -2  10  310.77   24.70
   0   2 -10  331.97   22.80
   0   2 -10  317.97   27.40
   0   2 -10  367.56   27.10
   0   2 -10  293.77   30.80
   0   2 -10  356.56   25.10
  -1  -2 -10   92.99   10.10
   1  -2  10  117.29   13.30
  -1   2 -10  108.39   12.30
  -1   2 -10  107.09   21.70
  -1   2 -10  135.59   17.70
  -1   2 -10  119.79   18.60
   2  -2  10  110.89   13.60
  -2  -2 -10  132.59   10.30
  -2  -2 -10   96.99   15.70
  -2   2 -10  102.29   11.80
  -2   2 -10   95.99   18.30
  -3  -2 -10   89.69    9.60
   3  -2  10   93.09   13.10
  -3  -2 -10   74.29   10.40
  -3   2 -10  104.09   16.50
  -3   2 -10   72.99   16.20
  -4  -2 -10  133.69   13.30
  -4  -2 -10  138.79   10.10
  -4   2 -10  127.39   14.40
  -3  -3  10    2.60    8.10
  -3  -3  10   -0.50    5.90
   3   3 -10   13.50    6.20
  -3   3  10    8.30    6.40
   3   3 -10    8.00    6.10
   3   3 -10    0.90    6.90
  -2  -3  10   70.69   11.50
  -2  -3  10   86.19   12.50
   2   3 -10   60.99    9.70
   2   3 -10   54.89   10.00
  -1  -3  10  374.56   26.50
  -1  -3  10  339.87   26.30
   1   3 -10  340.17   30.70
   1   3 -10  405.96   27.90
   1   3 -10  404.06   26.80
   0  -3  10  247.28   21.50
   0  -3  10  278.87   20.40
   0   3 -10  273.97   21.80
   0   3 -10  241.18   22.10
   1  -3  10   -2.30   11.20
  -1  -3 -10    2.40    6.40
   1  -3  10   11.10    6.70
  -1   3 -10   10.60    8.10
   2  -3  10    7.80    5.10
  -2  -3 -10    1.60    5.50
  -2   3 -10   17.30   10.70
  -2   3 -10   -0.20    6.90
  -3  -3 -10   32.80    6.10
  -3  -3 -10   46.00    8.40
  -3   3 -10   43.40    7.00
  -2  -4  10   20.40    5.00
   2   4 -10   20.30    4.00
  -1  -4  10   35.40    7.20
  -1  -4  10   21.60    6.60
   1   4 -10   32.80    6.80
   1   4 -10   41.70    8.20
   0  -4  10   19.70    5.90
   0   4 -10   17.70    4.70
   0   4 -10   23.50    6.40
   1  -4  10  156.78   12.30
  -1   4 -10  146.39   12.90
  -1   4 -10  146.99   13.80
   2  -4  10  152.78   12.10
  -2   4 -10  160.58   12.20
   4   0 -11  296.77   21.90
   4   0 -11  278.27   20.10
  -4   0  11  339.07   22.00
  -4   0  11  294.87   22.10
  -3   0  11   62.79   11.70
  -3   0  11   53.29    9.50
  -3   0  11   50.29   11.90
   3   0 -11   54.19    9.20
  -2   0  11   12.90   14.30
   2   0 -11   24.60    5.90
  -2   0  11   19.00    8.30
   2   0 -11   16.50    7.30
   1   0 -11   11.40    7.50
  -1   0  11   10.30    9.10
   0   0  11   99.99   17.60
   0   0 -11  129.39   13.60
   0   0 -11  101.09   10.60
  -1   0 -11   50.49   10.50
   1   0  11   32.90   13.60
  -1   0 -11   42.80    8.00
  -2   0 -11  742.13   45.80
  -2   0 -11  727.13   46.00
  -2   0 -11  702.23   58.89
  -3   0 -11    6.10    4.10
  -3   0 -11   -0.30    7.10
  -4   0 -11    4.60    3.10
   4  -1 -11   26.80    7.30
  -4  -1  11   14.90    5.70
  -4  -1  11   11.40    6.90
   4  -1 -11   21.80    4.90
   4   1 -11   28.80    5.50
   4   1 -11   19.80    6.70
  -4   1  11   29.20    8.10
  -4   1  11   15.40    7.20
   3  -1 -11  173.08   14.30
  -3  -1  11  184.48   17.30
  -3  -1  11  185.98   16.70
  -3   1  11  166.88   21.70
   3   1 -11  162.58   13.90
   3   1 -11  133.99   16.20
  -3   1  11  195.58   19.90
  -2  -1  11  177.68   16.80
   2  -1 -11  202.58   20.60
   2  -1 -11  203.38   14.90
  -2  -1  11  202.18   19.90
   2   1 -11  164.78   15.80
   2   1 -11  134.79   30.50
   2   1 -11  198.78   20.20
   2   1 -11  177.88   15.90
  -2   1  11  176.48   19.30
  -1  -1  11   86.99   14.40
   1   1 -11  103.59   20.60
   1   1 -11  116.49   12.20
   1   1 -11  131.59   18.60
   1   1 -11  102.79   11.30
   0  -1  11  431.06   30.40
   0  -1 -11  400.06   27.40
   0   1 -11  436.26   37.10
   0   1 -11  416.86   28.20
  -1  -1 -11   54.09    8.10
  -1  -1 -11   54.09    9.00
   1  -1  11   66.89   13.50
  -1   1 -11   61.89    7.60
  -1   1 -11   84.89   22.00
  -1   1 -11   59.79   10.70
  -2  -1 -11  300.17   20.90
  -2  -1 -11  289.87   21.40
   2  -1  11  307.27   24.60
  -2   1 -11  314.17   22.80
  -2   1 -11  316.97   21.00
  -2   1 -11  293.37   37.60
  -3  -1 -11  195.38   16.00
  -3  -1 -11  216.18   15.20
  -3   1 -11  215.48   15.00
  -4  -1 -11    7.60    3.50
   4  -2 -11  166.68   13.70
  -4  -2  11  163.58   13.40
   3  -2 -11  208.88   16.70
  -3  -2  11  232.28   17.90
  -3  -2  11  218.18   17.60
   3   2 -11  191.48   17.90
   3   2 -11  212.08   15.30
  -3   2  11  198.18   20.30
   2  -2 -11  103.29   11.90
  -2  -2  11  106.09   13.40
  -2  -2  11  108.99   15.00
   2   2 -11   75.79   13.80
  -1  -2  11  110.99   13.60
  -1  -2  11  133.79   16.00
   1   2 -11  122.69   12.40
   1   2 -11  103.29   14.80
   1   2 -11   85.39   17.70
   1   2 -11  113.89   24.30
   0  -2 -11  123.49   12.60
   0  -2  11  136.49   15.00
   0   2 -11  162.28   23.90
   0   2 -11  138.79   18.70
   0   2 -11  140.39   23.10
   0   2 -11  157.88   17.70
   0   2 -11  138.29   13.00
   1  -2  11  250.47   18.60
  -1   2 -11  205.58   20.50
  -1   2 -11  189.98   16.10
  -1   2 -11  228.28   32.00
  -1   2 -11  191.18   25.10
   2  -2  11  224.68   19.40
  -2  -2 -11  240.78   18.50
  -2  -2 -11  226.68   16.70
  -2   2 -11  210.68   17.10
  -2   2 -11  279.07   25.50
  -2   2 -11  228.08   21.60
   3  -2  11   66.29   12.30
  -3  -2 -11   88.39    8.70
  -3  -2 -11   76.99    9.90
  -3   2 -11   70.69   13.60
  -3   2 -11   92.49   15.70
  -3  -3  11  146.39   11.90
  -3  -3  11  123.89   14.00
   3   3 -11  113.39   13.80
   3   3 -11  144.99   11.60
   3   3 -11  119.09   11.50
  -2  -3  11   17.70    6.90
  -2  -3  11   16.20    6.00
   2   3 -11   26.10    8.90
   2   3 -11   11.10    7.50
  -1  -3  11  125.99   14.60
  -1  -3  11  163.18   14.20
   1   3 -11  144.99   14.10
   1   3 -11  160.48   17.60
   0  -3  11   66.19   10.00
   0   3 -11   61.09    9.80
   1  -3  11   82.39   10.20
  -1  -3 -11   79.19   13.80
  -1   3 -11   72.89   12.80
  -1   3 -11   92.79   13.40
  -2  -3 -11   64.99   10.80
   2  -3  11   74.59    9.20
  -2   3 -11   77.69   12.50
  -2   3 -11   62.89   12.20
  -3  -3 -11   85.99    8.90
   3  -3  11   81.09    9.10
  -3   3 -11   86.89    9.50
  -1  -4  11   39.70    7.50
  -1  -4  11   57.49    8.90
   1   4 -11   45.90    6.20
   1   4 -11   42.30    7.10
   0  -4  11   39.80    8.40
   0  -4  11   46.10    7.20
   0   4 -11   46.00    8.10
   0   4 -11   48.70    8.40
  -4   0  12   12.90    7.20
   4   0 -12    7.40    6.70
  -3   0  12   -1.10    7.50
   3   0 -12    0.80    4.60
   3   0 -12   -8.90    6.10
  -3   0  12   15.80   10.30
  -2   0  12   33.00    8.40
   2   0 -12   56.59   11.00
   2   0 -12   45.70    9.30
   1   0 -12    6.00    4.30
   1   0 -12   14.20   12.30
  -1   0  12   -2.70    8.10
   1   0 -12   12.20    6.50
   0   0 -12  620.74   38.20
   0   0  12  561.14   40.40
  -1   0 -12  541.85   35.00
  -1   0 -12  542.65   35.10
  -2   0 -12    9.60    4.30
  -2   0 -12    0.30    6.20
  -3   0 -12   -5.20    8.80
  -3   0 -12   11.40    3.60
   4  -1 -12   25.00    4.40
  -4  -1  12   23.40    6.40
   4   1 -12   34.10    7.10
   4   1 -12   33.80    5.10
   3  -1 -12   10.60    6.50
  -3  -1  12   10.30    6.30
  -3  -1  12   13.10    8.20
   3  -1 -12   14.60    5.90
   3   1 -12    9.70    7.10
   3   1 -12   30.80    9.20
   3   1 -12    9.80    4.00
  -2  -1  12  276.37   21.50
   2  -1 -12  261.97   22.60
  -2  -1  12  267.47   24.20
   2  -1 -12  245.98   19.50
   2   1 -12  264.57   20.90
   2   1 -12  292.87   19.90
   2   1 -12  301.57   23.70
  -2   1  12  248.78   23.70
  -1  -1  12  229.78   18.80
   1  -1 -12  210.28   16.00
   1  -1 -12  219.68   21.30
   1   1 -12  193.98   16.30
   1   1 -12  208.58   17.50
   1   1 -12  222.48   20.60
  -1   1  12  206.08   22.70
   0  -1  12   29.70    8.60
   0  -1 -12   49.30    8.10
   0  -1 -12   44.40    8.50
   0   1 -12   48.60   33.80
   0   1 -12   50.29    8.90
   0   1 -12   49.60    9.90
  -1  -1 -12  260.97   18.40
   1  -1  12  263.87   21.70
  -1  -1 -12  250.37   20.10
  -1   1 -12  270.37   18.50
   2  -1  12   -5.40    9.60
  -2  -1 -12    1.90    5.30
  -2  -1 -12   -1.00    4.80
  -2   1 -12    7.00    3.90
  -3  -1 -12  106.19    8.60
  -3  -1 -12   97.29   11.70
  -3   1 -12  100.09    8.80
  -3  -2  12    7.30    5.10
  -3  -2  12   16.50    6.00
   3   2 -12    4.80    6.80
   3   2 -12    4.80    4.30
  -2  -2  12   96.59   13.80
  -2  -2  12   96.39   11.30
   2  -2 -12  100.39   12.70
   2   2 -12  102.19   12.70
   2   2 -12   98.29    9.40
  -1  -2  12  112.19   17.60
  -1  -2  12  115.59   13.70
   1  -2 -12  119.69   11.90
   1   2 -12   96.89   13.50
   0  -2  12  190.18   16.10
   0  -2 -12  160.78   14.20
   0   2 -12  181.18   16.90
   0   2 -12  148.29   14.00
  -1  -2 -12  118.29   12.10
   1  -2  12  136.29   13.90
  -1   2 -12  116.19   16.20
  -1   2 -12  150.38   12.00
   2  -2  12   15.70    7.00
  -2  -2 -12    3.00    6.30
  -2  -2 -12    4.50    5.30
  -2   2 -12   16.40    5.90
  -2   2 -12   14.90    8.70
  -3  -2 -12   -0.20    3.60
  -3   2 -12   10.40    5.10
  -2  -3  12  252.27   18.10
  -2  -3  12  263.37   18.60
   2   3 -12  277.97   20.10
   2   3 -12  214.78   18.50
   2   3 -12  274.87   17.80
  -1  -3  12  197.18   14.70
  -1  -3  12  151.58   15.50
   1   3 -12  190.18   16.90
   1   3 -12  164.28   13.70
   0  -3  12    6.50    4.80
   0   3 -12    7.40    5.00
   0   3 -12    2.70    7.40
   1  -3  12   43.10    8.10
  -1   3 -12   39.30    7.90
  -1   3 -12   47.60    8.50
  -2   3 -12  113.09    9.30
   3   0 -13   13.30    6.90
   3   0 -13    6.80    7.90
  -3   0  13    9.80    5.70
   3   0 -13   14.20    3.70
  -2   0  13   82.99   12.30
   2   0 -13   67.29   10.20
   2   0 -13   53.69   11.40
   1   0 -13  895.11   54.39
  -1   0  13  876.51   55.89
   1   0 -13  829.22   54.49
   1   0 -13  880.31   56.19
   0   0 -13    2.60    5.50
   0   0  13   -5.60    9.40
  -1   0 -13  268.57   18.60
  -2   0 -13  226.78   17.70
  -2   0 -13  217.48   15.40
  -3   0 -13   70.49    6.50
   3  -1 -13  262.97   17.60
   3   1 -13  253.77   16.90
   2  -1 -13   27.60    6.80
   2  -1 -13   36.10    7.30
  -2  -1  13   17.60    6.40
   2   1 -13   32.30   11.40
   2   1 -13   57.19   12.40
  -1  -1  13    8.70    6.90
   1  -1 -13    4.30    7.30
   1  -1 -13   -0.30    4.90
   1   1 -13   10.80    4.90
   1   1 -13   13.80    7.80
  -1   1  13   -0.50   10.80
   1   1 -13   -3.20    8.70
   0  -1  13   -4.30    7.40
   0  -1 -13   11.80    6.60
   0   1 -13   -1.90   10.00
   0   1 -13    8.20    7.00
   0   1 -13    0.20    4.50
  -1  -1 -13   31.50    6.90
   1  -1  13   26.30    8.20
  -1  -1 -13   21.00    5.60
  -1   1 -13   42.40    8.90
  -2  -1 -13  127.49   12.10
  -2  -1 -13  119.49   10.00
  -2   1 -13  105.79    9.60
  -3  -1 -13  221.88   13.80
  -3   1 -13  186.28   15.00
  -3   1 -13  199.58   14.10
   2   2 -13   60.29    6.90
   2   2 -13   41.20    8.10
  -1  -2  13   87.69   10.50
   1  -2 -13   58.09   12.70
   1   2 -13   87.99   10.60
   0   2 -13   36.60    7.20
   0   2 -13   40.40    7.60
   1  -2  13  103.99   11.10
  -1  -2 -13  108.59   11.90
  -1  -2 -13  116.29   12.20
  -1   2 -13   91.29    9.70
  -2  -2 -13   44.40    7.90
   2  -2  13   44.20    9.10
  -2   2 -13   43.90    8.20
   0  -3  13   44.10    7.50
   0   3 -13   50.39    7.10
   0   3 -13   63.89   13.20
   2   0 -14   33.60    8.40
   1   0 -14   89.49   15.10
   1   0 -14   59.39    8.10
  -1   0  14   54.89   11.90
   1   0 -14   48.10   10.70
   0   0 -14  103.89   11.40
   0   0  14   94.69   16.50
   0   0 -14  126.39   10.00
  -1   0 -14   77.09   10.80
  -1   0 -14   70.69    7.70
  -2   0 -14  123.59    9.40
  -2  -1  14   10.30    5.20
   2   1 -14   15.60    3.50
   1  -1 -14   -0.60    5.30
  -1  -1  14   -0.30    5.20
   1   1 -14    0.90    6.30
   1   1 -14    4.60    5.00
   1   1 -14  -15.30   13.50
   0  -1 -14   70.09   12.30
   0  -1 -14   59.39    9.40
   0  -1 -14   54.29    9.00
   0  -1  14   67.99   10.90
   0   1 -14   66.79    7.40
   0   1 -14   53.59    8.40
   0   1 -14   76.69   14.70
   1  -1  14  158.78   16.00
  -1  -1 -14  171.78   12.40
  -1   1 -14  174.28   11.70
  -1   1 -14  133.39   13.10
  -2  -1 -14  292.37   18.50
  -2   1 -14  266.27   19.60
  -2   1 -14  302.07   18.50
  -1  -2  14  178.68   14.60
   1   2 -14  185.08   13.70
   1   2 -14  207.48   21.20
   0  -2  14  116.49   10.40
   0   2 -14   92.89    9.60
   0   0 -15   19.70    7.10
_computing_structure_solution     'SHELXT 2014/4 (Sheldrick, 2014)'
;
_shelx_hkl_checksum              96977
_shelx_res_file
;
TITL UMD633_a.res in P2(1)
REM Old TITL UMD633 in P2(1)
REM SHELXT solution in P2(1)
REM R1 0.053, Rweak 0.021, Alpha 0.003, Orientation as input
REM Flack x = 0.127 ( 0.014 ) from Parsons' quotients
REM Formula found by SHELXT: C8 N O2 Cl
REM ORANGE COLOR
CELL 1.54178 5.6231 4.993 12.5145 90 91.916 90
ZERR 2 0.0006 0.0006 0.0014 0 0.007 0
LATT -1
SYMM -X,0.5+Y,-Z
SFAC C H Cl N O
UNIT 16 8 2 2 4
EQIV $1 -X,-0.5+Y,1-Z
EQIV $2 -1+X,-1+Y,+Z
DFIX 0.87 0.01 N1 H1
L.S. 10
PLAN  20
SIZE 0.04 0.06 0.22
TEMP -153
HTAB N1 O1_$1
HTAB C7 O2_$2
CONF
BOND $H
HTAB 2
MORE -1
fmap 2
ACTA
TWIN -1 0 0 0 -1 0 0 0 -1 2
REM <olex2.extras>
REM <HklSrc "%.\\UMD633_a.hkl">
REM </olex2.extras>
WGHT    0.017600    0.069300
BASF   0.09145
FVAR       1.33091
CL1   3    0.098340   -0.018350    0.081600    11.00000    0.02806    0.02177 =
         0.02285   -0.00202   -0.00182   -0.00251
O1    5    0.277699    1.017501    0.499077    11.00000    0.02229    0.02367 =
         0.02381   -0.00286    0.00453    0.00337
O2    5    0.676227    1.007271    0.351846    11.00000    0.02224    0.02250 =
         0.02574    0.00172    0.00091   -0.00394
N1    4    0.157483    0.651515    0.397545    11.00000    0.01803    0.02244 =
         0.02042    0.00023    0.00664   -0.00051
H1    2    0.035111    0.614349    0.434093    11.00000    0.03514
C1    1    0.302733    0.854932    0.427809    11.00000    0.02068    0.01783 =
         0.01921    0.00353    0.00051    0.00416
C2    1    0.511380    0.853139    0.348143    11.00000    0.01892    0.01832 =
         0.01977    0.00444   -0.00020    0.00353
C3    1    0.450313    0.635096    0.273249    11.00000    0.01709    0.01706 =
         0.02125    0.00125    0.00006    0.00151
C4    1    0.556890    0.544085    0.182187    11.00000    0.01893    0.02250 =
         0.02042    0.00390    0.00345    0.00010
AFIX  43
H4    2    0.701892    0.620847    0.160189    11.00000   -1.20000
AFIX   0
C5    1    0.449413    0.339149    0.123289    11.00000    0.02381    0.02347 =
         0.02157    0.00113    0.00497    0.00456
AFIX  43
H5    2    0.519512    0.272926    0.060518    11.00000   -1.20000
AFIX   0
C6    1    0.236327    0.232440    0.158179    11.00000    0.02170    0.01651 =
         0.02093    0.00246   -0.00345    0.00151
C7    1    0.125877    0.315847    0.249417    11.00000    0.01649    0.01860 =
         0.02377    0.00575    0.00096    0.00083
AFIX  43
H7    2   -0.017350    0.236183    0.272071    11.00000   -1.20000
AFIX   0
C8    1    0.236330    0.522576    0.305944    11.00000    0.01812    0.01837 =
         0.01412    0.00308    0.00139    0.00126
HKLF 4
REM  UMD633_a.res in P2(1)
REM R1 =  0.0305 for    1183 Fo > 4sig(Fo)  and  0.0342 for all    1262 data
REM    114 parameters refined using      2 restraints
END
WGHT      0.0176      0.0693
REM Instructions for potential hydrogen bonds
HTAB N1 O1_$1
HTAB C7 O2_$2
REM Highest difference peak  0.219,  deepest hole -0.198,  1-sigma level  0.060
Q1    1   0.5503  0.5083  0.2578  11.00000  0.05    0.22
Q2    1   0.6048  0.4640  0.3437  11.00000  0.05    0.19
Q3    1  -0.1680  0.4187  0.2944  11.00000  0.05    0.19
Q4    1   0.1202  0.5064  0.0916  11.00000  0.05    0.19
Q5    1   0.2379  0.4856  0.4716  11.00000  0.05    0.18
Q6    1  -0.1601  0.3101  0.2630  11.00000  0.05    0.18
Q7    1   0.4156  0.9834  0.2506  11.00000  0.05    0.17
Q8    1  -0.0561  0.3207  0.3155  11.00000  0.05    0.17
Q9    1   0.4105  0.8048  0.1317  11.00000  0.05    0.16
Q10   1   0.3913  0.5027  0.2977  11.00000  0.05    0.16
Q11   1   0.0988  0.9876  0.3798  11.00000  0.05    0.16
Q12   1  -0.1660  0.1410  0.3005  11.00000  0.05    0.16
Q13   1  -0.2158  0.4856  0.3135  11.00000  0.05    0.16
Q14   1   0.2763  0.5036  0.0381  11.00000  0.05    0.16
Q15   1   0.6791  0.9812  0.4689  11.00000  0.05    0.16
Q16   1   0.0137  0.6217  0.5640  11.00000  0.05    0.15
Q17   1   0.3524  0.2666  0.1552  11.00000  0.05    0.15
Q18   1   0.7446  0.0326 -0.0090  11.00000  0.05    0.15
Q19   1   0.5006  0.6906  0.3056  11.00000  0.05    0.14
Q20   1   0.2488  0.0204  0.2520  11.00000  0.05    0.14
;
_shelx_res_checksum              84005
loop_
_space_group_symop_operation_xyz
'x, y, z'
'-x, y+1/2, -z'
loop_
_atom_site_type_symbol
_atom_site_label
_atom_site_fract_x
_atom_site_fract_y
_atom_site_fract_z
_atom_site_U_iso_or_equiv
_atom_site_adp_type
_atom_site_calc_flag
_atom_site_occupancy
Cl Cl1 0.09834(14) -0.01835(18) 0.08160(7) 0.0243(2) Uani d 1
O O1 0.2777(4) 1.0175(6) 0.49908(19) 0.0232(6) Uani d 1
O O2 0.6762(4) 1.0073(6) 0.35185(18) 0.0235(5) Uani d 1
N N1 0.1575(5) 0.6515(6) 0.3975(2) 0.0202(7) Uani d 1
H H1 0.035(5) 0.614(9) 0.434(3) 0.035(13) Uiso d 1
C C1 0.3027(6) 0.8549(8) 0.4278(3) 0.0192(7) Uani d 1
C C2 0.5114(6) 0.8531(8) 0.3481(3) 0.0190(7) Uani d 1
C C3 0.4503(6) 0.6351(7) 0.2732(3) 0.0185(7) Uani d 1
C C4 0.5569(6) 0.5441(7) 0.1822(3) 0.0206(8) Uani d 1
H H4 0.7019 0.6208 0.1602 0.025 Uiso calc 1
C C5 0.4494(6) 0.3391(8) 0.1233(3) 0.0229(8) Uani d 1
H H5 0.5195 0.2729 0.0605 0.027 Uiso calc 1
C C6 0.2363(6) 0.2324(7) 0.1582(3) 0.0198(8) Uani d 1
C C7 0.1259(6) 0.3158(7) 0.2494(3) 0.0196(8) Uani d 1
H H7 -0.0174 0.2362 0.2721 0.024 Uiso calc 1
C C8 0.2363(5) 0.5226(8) 0.3059(3) 0.0169(7) Uani d 1
loop_
_atom_site_aniso_label
_atom_site_aniso_U_11
_atom_site_aniso_U_22
_atom_site_aniso_U_33
_atom_site_aniso_U_12
_atom_site_aniso_U_13
_atom_site_aniso_U_23
Cl1 0.0281(4) 0.0218(4) 0.0229(4) -0.0025(4) -0.0018(3) -0.0020(5)
O1 0.0223(11) 0.0237(15) 0.0238(13) 0.0034(12) 0.0045(9) -0.0029(13)
O2 0.0222(11) 0.0225(13) 0.0257(13) -0.0039(13) 0.0009(9) 0.0017(14)
N1 0.0180(15) 0.0224(16) 0.0204(17) -0.0005(12) 0.0066(12) 0.0002(13)
C1 0.0207(17) 0.0178(16) 0.019(2) 0.0042(15) 0.0005(14) 0.0035(17)
C2 0.0189(16) 0.0183(16) 0.0198(19) 0.0035(15) -0.0002(13) 0.0044(16)
C3 0.0171(16) 0.0171(18) 0.0213(19) 0.0015(13) 0.0001(13) 0.0012(14)
C4 0.0189(15) 0.023(2) 0.0204(18) 0.0001(13) 0.0034(12) 0.0039(14)
C5 0.0238(18) 0.0235(19) 0.022(2) 0.0046(15) 0.0050(14) 0.0011(17)
C6 0.0217(17) 0.0165(17) 0.0209(19) 0.0015(13) -0.0035(14) 0.0025(14)
C7 0.0165(16) 0.019(2) 0.024(2) 0.0008(13) 0.0010(13) 0.0058(15)
C8 0.0181(15) 0.018(2) 0.0141(15) 0.0013(15) 0.0014(11) 0.0031(15)
loop_
_atom_type_symbol
_atom_type_description
_atom_type_scat_dispersion_real
_atom_type_scat_dispersion_imag
_atom_type_scat_source
C C 0.0181 0.0091 'International Tables Vol C Tables 4.2.6.8 and 6.1.1.4'
H H 0.0000 0.0000 'International Tables Vol C Tables 4.2.6.8 and 6.1.1.4'
Cl Cl 0.3639 0.7018 'International Tables Vol C Tables 4.2.6.8 and 6.1.1.4'
N N 0.0311 0.0180 'International Tables Vol C Tables 4.2.6.8 and 6.1.1.4'
O O 0.0492 0.0322 'International Tables Vol C Tables 4.2.6.8 and 6.1.1.4'
loop_
_geom_angle_atom_site_label_1
_geom_angle_atom_site_label_2
_geom_angle_atom_site_label_3
_geom_angle
C1 N1 H1 120(3)
C1 N1 C8 111.8(3)
C8 N1 H1 128(3)
O1 C1 N1 128.6(3)
O1 C1 C2 125.3(3)
N1 C1 C2 106.1(3)
O2 C2 C1 124.4(3)
O2 C2 C3 131.4(3)
C3 C2 C1 104.3(3)
C4 C3 C2 132.1(3)
C4 C3 C8 120.6(3)
C8 C3 C2 107.2(3)
C3 C4 H4 120.4
C3 C4 C5 119.2(3)
C5 C4 H4 120.4
C4 C5 H5 120.7
C4 C5 C6 118.6(3)
C6 C5 H5 120.7
C5 C6 Cl1 118.3(3)
C7 C6 Cl1 117.8(3)
C7 C6 C5 123.9(3)
C6 C7 H7 122.0
C6 C7 C8 116.1(3)
C8 C7 H7 122.0
N1 C8 C3 110.7(3)
C7 C8 N1 127.7(3)
C7 C8 C3 121.6(3)
loop_
_geom_bond_atom_site_label_1
_geom_bond_atom_site_label_2
_geom_bond_distance
Cl1 C6 1.743(4)
O1 C1 1.218(4)
O2 C2 1.204(4)
N1 H1 0.859(14)
N1 C1 1.350(5)
N1 C8 1.400(5)
C1 C2 1.565(5)
C2 C3 1.470(5)
C3 C4 1.382(5)
C3 C8 1.401(5)
C4 H4 0.9500
C4 C5 1.388(5)
C5 H5 0.9500
C5 C6 1.395(5)
C6 C7 1.382(5)
C7 H7 0.9500
C7 C8 1.386(5)
loop_
_geom_hbond_atom_site_label_D
_geom_hbond_atom_site_label_H
_geom_hbond_atom_site_label_A
_geom_hbond_site_symmetry_A
_geom_hbond_distance_DH
_geom_hbond_distance_HA
_geom_hbond_distance_DA
_geom_hbond_angle_DHA
N1 H1 O1 2_546 0.859(14) 2.031(16) 2.885(4) 172(4)
C7 H7 O2 1_445 0.95 2.32 3.260(4) 170
loop_
_geom_torsion_atom_site_label_1
_geom_torsion_atom_site_label_2
_geom_torsion_atom_site_label_3
_geom_torsion_atom_site_label_4
_geom_torsion
Cl1 C6 C7 C8 -177.6(3)
O1 C1 C2 O2 3.3(6)
O1 C1 C2 C3 -175.3(3)
O2 C2 C3 C4 -2.5(7)
O2 C2 C3 C8 -179.3(4)
N1 C1 C2 O2 -179.4(3)
N1 C1 C2 C3 2.0(4)
C1 N1 C8 C3 2.2(4)
C1 N1 C8 C7 -176.4(3)
C1 C2 C3 C4 176.0(3)
C1 C2 C3 C8 -0.7(4)
C2 C3 C4 C5 -176.4(4)
C2 C3 C8 N1 -0.7(4)
C2 C3 C8 C7 177.9(3)
C3 C4 C5 C6 0.2(5)
C4 C3 C8 N1 -177.9(3)
C4 C3 C8 C7 0.7(5)
C4 C5 C6 Cl1 178.2(3)
C4 C5 C6 C7 -1.0(5)
C5 C6 C7 C8 1.6(5)
C6 C7 C8 N1 177.0(3)
C6 C7 C8 C3 -1.4(5)
C8 N1 C1 O1 174.7(4)
C8 N1 C1 C2 -2.5(4)
C8 C3 C4 C5 0.0(5)

_cod_database_fobs_code 1543233
