#------------------------------------------------------------------------------
#$Date: 2016-06-18 04:40:44 +0300 (Sat, 18 Jun 2016) $
#$Revision: 183690 $
#$URL: file:///home/coder/svn-repositories/cod/cif/1/54/34/1543478.cif $
#------------------------------------------------------------------------------
#
# This file is available in the Crystallography Open Database (COD),
# http://www.crystallography.net/. The original data for this entry
# were provided by IUCr Journals, http://journals.iucr.org/.
#
# The file may be used within the scientific community so long as
# proper attribution is given to the journal article from which the
# data were obtained.
#
data_1543478
loop_
_publ_author_name
'Gomes, Ralph C.'
'de Simoni, Deborah'
'Coelho, Fernando'
_publ_section_title
;
 Methyl 8-oxo-2-phenyl-1-oxaspiro[4.5]deca-2,6,9-triene-3-carboxylate
;
_journal_issue                   6
_journal_name_full               IUCrData
_journal_page_first              x160925
_journal_paper_doi               10.1107/S2414314616009251
_journal_volume                  1
_journal_year                    2016
_chemical_formula_iupac          'C17 H14 O4'
_chemical_formula_moiety         'C17 H14 O4'
_chemical_formula_sum            'C17 H14 O4'
_chemical_formula_weight         282.28
_chemical_name_systematic
;
Methyl
8-oxo-2-phenyl-1-oxaspiro[4.5]deca-2,6,9-triene-3-carboxylate
;
_space_group_crystal_system      triclinic
_space_group_IT_number           2
_space_group_name_Hall           '-P 1'
_space_group_name_H-M_alt        'P -1'
_symmetry_space_group_name_Hall  '-P 1'
_symmetry_space_group_name_H-M   'P -1'
_atom_sites_solution_hydrogens   geom
_audit_creation_method           SHELXL-2014/7
_cell_angle_alpha                74.168(2)
_cell_angle_beta                 84.636(2)
_cell_angle_gamma                78.731(2)
_cell_formula_units_Z            2
_cell_length_a                   8.0416(8)
_cell_length_b                   9.4577(10)
_cell_length_c                   9.7397(10)
_cell_measurement_reflns_used    93
_cell_measurement_temperature    150(2)
_cell_measurement_theta_max      26.65
_cell_measurement_theta_min      3.25
_cell_volume                     698.28(12)
_computing_cell_refinement
;
<i>SAINT</i> (Bruker, 2010)
;
_computing_data_collection
;
<i>APEX2</i> (Bruker, 2010)
;
_computing_data_reduction
;
<i>SAINT</i> (Bruker, 2010)
;
_computing_molecular_graphics
;
<i>MERCURY</i> (Macrae <i>et al.</i>,  2006)
;
_computing_publication_material
;
publCIF (Westrip, 2010)
;
_computing_structure_refinement
;
<i>SHELXL2014/7</i> (Sheldrick, 2015)
;
_computing_structure_solution
;
<i>SHELXS97</i> (Sheldrick, 2008)
;
_diffrn_ambient_temperature      150(2)
_diffrn_detector_area_resol_mean 8.3333
_diffrn_measured_fraction_theta_full 1.000
_diffrn_measured_fraction_theta_max 1.000
_diffrn_measurement_device_type  'Bruker APEX CCD detector'
_diffrn_measurement_method       'phi and omega scans'
_diffrn_radiation_source         'fine-focus sealed tube'
_diffrn_radiation_type           MoK\a
_diffrn_radiation_wavelength     0.71073
_diffrn_reflns_av_R_equivalents  0.0203
_diffrn_reflns_limit_h_max       10
_diffrn_reflns_limit_h_min       -10
_diffrn_reflns_limit_k_max       11
_diffrn_reflns_limit_k_min       -11
_diffrn_reflns_limit_l_max       12
_diffrn_reflns_limit_l_min       -12
_diffrn_reflns_number            30763
_diffrn_reflns_theta_full        25.242
_diffrn_reflns_theta_max         26.371
_diffrn_reflns_theta_min         2.175
_exptl_absorpt_coefficient_mu    0.096
_exptl_absorpt_correction_T_max  0.7461
_exptl_absorpt_correction_T_min  0.6798
_exptl_absorpt_correction_type   multi-scan
_exptl_absorpt_process_details
;
(SADABS; Bruker, 2010)
;
_exptl_crystal_colour            'light yellow'
_exptl_crystal_density_diffrn    1.343
_exptl_crystal_description       block
_exptl_crystal_F_000             296
_exptl_crystal_size_max          0.365
_exptl_crystal_size_mid          0.207
_exptl_crystal_size_min          0.205
_refine_diff_density_max         0.489
_refine_diff_density_min         -0.372
_refine_ls_extinction_method     none
_refine_ls_goodness_of_fit_ref   1.048
_refine_ls_hydrogen_treatment    constr
_refine_ls_matrix_type           full
_refine_ls_number_parameters     191
_refine_ls_number_reflns         2846
_refine_ls_number_restraints     0
_refine_ls_restrained_S_all      1.048
_refine_ls_R_factor_all          0.0418
_refine_ls_R_factor_gt           0.0391
_refine_ls_shift/su_max          0.000
_refine_ls_shift/su_mean         0.000
_refine_ls_structure_factor_coef Fsqd
_refine_ls_weighting_details
'w=1/[\s^2^(Fo^2^)+(0.0413P)^2^+0.3344P] where P=(Fo^2^+2Fc^2^)/3'
_refine_ls_weighting_scheme      calc
_refine_ls_wR_factor_gt          0.0960
_refine_ls_wR_factor_ref         0.0985
_reflns_number_gt                2638
_reflns_number_total             2846
_reflns_threshold_expression     'I > 2\s(I)'
_cod_data_source_file            sj4046sup1.cif
_cod_data_source_block           I
_cod_database_code               1543478
_shelx_space_group_comment
;
The symmetry employed for this shelxl refinement is uniquely defined
by the following loop, which should always be used as a source of
symmetry information in preference to the above space-group names.
They are only intended as comments.
;
_shelx_estimated_absorpt_t_min   0.966
_shelx_estimated_absorpt_t_max   0.981
_shelx_hkl_file
;
  -1   0   0   86.62    1.65
  -1   0   0   84.78    1.65
  -1   0   0   85.50    1.64
  -1   0   0   86.59    1.63
   1   0   0   85.45    1.64
   1   0   0   85.98    1.65
   1   0   0   85.99    1.66
   1   0   0   85.72    1.64
   1   0   0   85.88    1.63
  -2   0   0  271.24    5.08
  -2   0   0  268.16    5.09
  -2   0   0  269.33    5.09
  -2   0   0  269.15    5.08
  -2   0   0  261.39    5.06
  -2   0   0  273.07    5.14
  -2   0   0  271.61    5.10
   2   0   0  273.97    5.06
   2   0   0  265.74    5.09
   2   0   0  260.26    5.09
   2   0   0  271.22    5.10
   2   0   0  266.71    5.77
   2   0   0  262.44    5.08
   2   0   0  270.36    5.12
   2   0   0  265.62    5.08
  -3   0   0   86.48    1.63
  -3   0   0   86.52    1.64
  -3   0   0   85.69    1.64
  -3   0   0   85.87    1.63
  -3   0   0   85.31    1.63
  -3   0   0   85.16    1.64
  -3   0   0   85.55    1.64
  -3   0   0   84.48    1.63
  -3   0   0   86.11    1.64
  -3   0   0   86.52    1.63
   3   0   0   84.86    1.64
   3   0   0   85.80    1.72
   3   0   0   85.43    1.63
   3   0   0   84.08    1.63
   3   0   0   87.12    2.00
   3   0   0   84.94    1.64
   3   0   0   86.88    1.63
   3   0   0   86.22    1.63
   3   0   0   84.21    1.63
   3   0   0   85.55    1.64
  -4   0   0   14.10    0.32
  -4   0   0   14.69    0.32
  -4   0   0   14.35    0.32
  -4   0   0   14.33    0.32
  -4   0   0   14.52    0.32
  -4   0   0   14.15    0.32
  -4   0   0   14.26    0.32
  -4   0   0   14.33    0.33
  -4   0   0   14.05    0.32
   4   0   0   14.17    0.32
   4   0   0   14.30    0.32
   4   0   0   14.27    0.32
   4   0   0   14.14    0.32
   4   0   0   14.54    0.28
   4   0   0   14.30    0.63
   4   0   0   14.22    0.32
   4   0   0   14.55    0.32
   4   0   0   14.59    0.32
   4   0   0   14.22    0.38
   4   0   0   13.55    0.38
   4   0   0   14.26    0.32
   4   0   0   13.09    0.63
  -5   0   0    0.55    0.05
  -5   0   0    0.56    0.06
  -5   0   0    0.47    0.06
  -5   0   0    0.49    0.05
  -5   0   0    0.54    0.06
  -5   0   0    0.47    0.05
  -5   0   0    0.55    0.06
  -5   0   0    0.54    0.06
   5   0   0    0.41    0.07
   5   0   0    0.48    0.05
   5   0   0    0.55    0.06
   5   0   0    0.51    0.03
   5   0   0    0.43    0.05
   5   0   0    0.49    0.07
   5   0   0    0.63    0.06
   5   0   0    0.63    0.20
   5   0   0    0.53    0.05
   5   0   0    0.46    0.15
   5   0   0    0.51    0.05
   5   0   0    0.60    0.06
   5   0   0    0.48    0.05
  -6   0   0    2.06    0.10
  -6   0   0    1.93    0.11
  -6   0   0    2.14    0.10
  -6   0   0    1.86    0.10
  -6   0   0    1.97    0.11
  -6   0   0    2.06    0.11
  -6   0   0    2.06    0.11
  -6   0   0    2.07    0.10
   6   0   0    2.05    0.11
   6   0   0    1.93    0.10
   6   0   0    2.02    0.10
   6   0   0    1.87    0.32
   6   0   0    2.10    0.10
   6   0   0    2.03    0.11
   6   0   0    1.96    0.10
   6   0   0    1.96    0.10
   6   0   0    2.05    0.10
  -7   0   0   28.58    0.64
  -7   0   0   28.33    0.63
  -7   0   0   28.92    0.65
  -7   0   0   28.31    0.64
  -7   0   0   28.61    0.64
  -7   0   0   28.47    0.64
   7   0   0   29.52    0.64
   7   0   0   29.73    0.65
   7   0   0   28.03    0.63
   7   0   0   28.41    0.63
   7   0   0   28.08    0.63
   7   0   0   28.79    0.63
   7   0   0   27.81    0.63
   7   0   0   28.09    0.63
  -8   0   0    0.07    0.05
  -8   0   0    0.01    0.05
  -8   0   0    0.04    0.05
  -8   0   0    0.13    0.06
  -8   0   0    0.03    0.05
   8   0   0    0.04    0.04
   8   0   0    0.03    0.04
   8   0   0    0.07    0.05
   8   0   0    0.02    0.04
   8   0   0   -0.02    0.04
   8   0   0    0.09    0.05
   8   0   0    0.05    0.05
   8   0   0    0.06    0.04
  -9   0   0    0.67    0.09
  -9   0   0    0.65    0.10
  -9   0   0    0.66    0.09
  -9   0   0    0.81    0.10
   9   0   0    0.69    0.09
   9   0   0    0.68    0.10
   9   0   0    0.62    0.09
   9   0   0    0.63    0.09
   9   0   0    0.54    0.09
   9   0   0    0.51    0.08
   9   0   0    0.75    0.10
   9   0   0    0.67    0.10
   9  -1   0    0.64    0.10
   9  -1   0    0.69    0.08
   9  -1   0    0.73    0.09
   9  -1   0    0.61    0.09
   9  -1   0    0.62    0.10
   9  -1   0    0.64    0.09
   9  -1   0    0.67    0.09
   9  -1   0    0.67    0.09
  -9   1   0    0.70    0.10
  -9   1   0    0.52    0.09
  -9   1   0    0.53    0.09
   8  -1   0    0.26    0.06
   8  -1   0    0.25    0.06
   8  -1   0    0.23    0.06
   8  -1   0    0.15    0.06
   8  -1   0    0.19    0.05
   8  -1   0    0.19    0.06
   8  -1   0    0.19    0.06
   8  -1   0    0.17    0.05
  -8   1   0    0.27    0.07
  -8   1   0    0.22    0.06
  -8   1   0    0.17    0.06
  -8   1   0    0.22    0.06
  -8   1   0    0.22    0.06
   7  -1   0    9.71    0.28
   7  -1   0    9.57    0.27
   7  -1   0    9.39    0.27
   7  -1   0    9.75    0.28
   7  -1   0    9.47    0.27
   7  -1   0    8.90    0.28
   7  -1   0    9.33    0.27
   7  -1   0    9.61    0.27
  -7   1   0   10.14    0.28
  -7   1   0    9.44    0.28
  -7   1   0    9.78    0.28
  -7   1   0    9.48    0.28
  -7   1   0    9.85    0.29
  -7   1   0    9.77    0.28
  -7   1   0    9.66    0.27
   6  -1   0   11.87    0.30
   6  -1   0   12.40    0.32
   6  -1   0   12.25    0.31
   6  -1   0   12.04    0.31
   6  -1   0   12.27    0.30
   6  -1   0   12.43    0.32
   6  -1   0   11.96    0.31
   6  -1   0   11.69    0.39
   6  -1   0   11.96    0.31
   6  -1   0   12.01    0.73
  -6   1   0   11.79    0.32
  -6   1   0   11.69    0.31
  -6   1   0   12.03    0.31
  -6   1   0   11.88    0.31
  -6   1   0   12.13    0.30
  -6   1   0   12.13    0.31
  -6   1   0   12.42    0.32
  -6   1   0   12.57    0.31
   5  -1   0    2.82    0.11
   5  -1   0    3.05    0.11
   5  -1   0    2.92    0.17
   5  -1   0    2.82    0.08
   5  -1   0    2.94    0.12
   5  -1   0    2.74    0.16
   5  -1   0    2.77    0.12
   5  -1   0    2.99    0.11
   5  -1   0    2.84    0.11
   5  -1   0    3.14    0.33
   5  -1   0    2.93    0.11
   5  -1   0    2.77    0.11
   5  -1   0    2.80    0.11
  -5   1   0    2.81    0.12
  -5   1   0    2.84    0.11
  -5   1   0    2.96    0.11
  -5   1   0    2.81    0.11
  -5   1   0    3.22    0.13
  -5   1   0    2.93    0.11
  -5   1   0    3.10    0.12
  -5   1   0    2.96    0.12
  -5   1   0    2.82    0.12
   4  -1   0    9.79    0.24
   4  -1   0   10.02    0.24
   4  -1   0   10.09    0.24
   4  -1   0   10.13    0.31
   4  -1   0   10.08    0.25
   4  -1   0   10.54    0.24
   4  -1   0   10.19    0.25
   4  -1   0   10.22    0.30
   4  -1   0   10.16    0.25
   4  -1   0   10.14    0.25
   4  -1   0   10.17    0.24
   4  -1   0    9.91    0.53
  -4   1   0   10.25    0.24
  -4   1   0   10.22    0.24
  -4   1   0   10.02    0.25
  -4   1   0   10.26    0.25
  -4   1   0   10.20    0.25
  -4   1   0   10.20    0.25
  -4   1   0   10.30    0.25
  -4   1   0   10.07    0.24
   3  -1   0    0.35    0.04
   3  -1   0    0.45    0.04
   3  -1   0    0.39    0.06
   3  -1   0    0.48    0.07
   3  -1   0    0.42    0.04
   3  -1   0    0.40    0.04
   3  -1   0    0.37    0.04
   3  -1   0    0.42    0.04
   3  -1   0    0.48    0.04
   3  -1   0    0.38    0.04
   3  -1   0    0.38    0.11
   3  -1   0    0.45    0.04
  -3   1   0    0.43    0.04
  -3   1   0    0.35    0.04
  -3   1   0    0.42    0.04
  -3   1   0    0.37    0.04
  -3   1   0    0.44    0.04
  -3   1   0    0.47    0.04
  -3   1   0    0.40    0.04
   2  -1   0  175.27    3.32
   2  -1   0  175.62    3.32
   2  -1   0  181.11    3.47
   2  -1   0  174.02    3.32
   2  -1   0  179.43    3.34
   2  -1   0  176.62    3.33
   2  -1   0  178.50    3.31
   2  -1   0  174.94    3.36
   2  -1   0  170.06    3.36
   2  -1   0  176.59    3.38
   2  -1   0  175.02    3.36
   2  -1   0  175.71    3.59
   2  -1   0  185.30    3.75
  -2   1   0  173.20    3.37
  -2   1   0  175.01    3.32
  -2   1   0  175.98    3.38
  -2   1   0  178.32    3.31
  -2   1   0  178.74    3.37
  -2   1   0  174.72    3.34
  -2   1   0  175.58    3.37
  -2   1   0  176.82    3.36
   1  -1   0    1.80    0.05
   1  -1   0    1.81    0.05
   1  -1   0    1.81    0.05
   1  -1   0    1.78    0.05
   1  -1   0    1.83    0.06
   1  -1   0    1.75    0.05
   1  -1   0    1.81    0.06
   1  -1   0    2.05    0.15
   1  -1   0    1.78    0.05
  -1   1   0    1.84    0.06
  -1   1   0    1.77    0.05
  -1   1   0    1.82    0.05
  -1   1   0    1.79    0.05
  -1   1   0    1.74    0.05
   0  -1   0    0.48    0.02
   0  -1   0    0.47    0.02
   0  -1   0    0.50    0.02
   0  -1   0    0.48    0.02
   0  -1   0    0.50    0.02
   0   1   0    0.50    0.02
   0   1   0    0.57    0.02
   0   1   0    0.46    0.02
   0   1   0    0.50    0.02
  -1  -1   0   -0.22    0.02
   1   1   0   -0.24    0.03
   1   1   0   -0.27    0.02
   1   1   0   -0.31    0.02
  -2  -1   0  224.51    4.37
  -2  -1   0  234.94    4.39
  -2  -1   0  229.54    4.37
  -2  -1   0  233.31    4.40
  -2  -1   0  235.29    4.41
  -2  -1   0  231.19    4.41
  -2  -1   0  226.64    4.41
  -2  -1   0  232.33    4.38
   2   1   0  234.79    4.42
   2   1   0  228.18    4.42
   2   1   0  233.40    4.39
   2   1   0  232.31    4.38
   2   1   0  229.67    4.38
   2   1   0  221.26    4.37
  -3  -1   0    8.45    0.20
  -3  -1   0    8.20    0.19
  -3  -1   0    8.22    0.20
  -3  -1   0    8.01    0.20
  -3  -1   0    8.40    0.20
  -3  -1   0    8.36    0.20
  -3  -1   0    8.01    0.20
  -3  -1   0    8.83    0.20
   3   1   0    8.34    0.19
   3   1   0    8.33    0.19
   3   1   0    8.30    0.20
   3   1   0    8.65    0.20
   3   1   0    8.32    0.19
   3   1   0    8.26    0.19
   3   1   0    8.44    0.20
   3   1   0    8.18    0.20
  -4  -1   0    5.08    0.15
  -4  -1   0    5.38    0.15
  -4  -1   0    5.10    0.15
  -4  -1   0    5.35    0.15
  -4  -1   0    5.36    0.15
  -4  -1   0    5.24    0.15
  -4  -1   0    5.12    0.15
  -4  -1   0    5.13    0.15
   4   1   0    5.12    0.14
   4   1   0    4.80    0.38
   4   1   0    4.96    0.15
   4   1   0    5.23    0.15
   4   1   0    5.29    0.15
   4   1   0    5.17    0.14
   4   1   0    5.31    0.15
   4   1   0    5.06    0.14
  -5  -1   0   16.28    0.38
  -5  -1   0   16.69    0.37
  -5  -1   0   16.39    0.38
  -5  -1   0   15.96    0.38
  -5  -1   0   16.40    0.37
  -5  -1   0   16.32    0.37
  -5  -1   0   16.96    0.38
  -5  -1   0   16.77    0.39
  -5  -1   0   16.02    0.37
   5   1   0   15.52    0.45
   5   1   0   17.09    0.80
   5   1   0   16.31    0.37
   5   1   0   16.47    0.37
   5   1   0   16.44    0.38
   5   1   0   16.30    0.38
   5   1   0   16.49    0.37
   5   1   0   16.44    0.37
   5   1   0   16.26    0.37
   5   1   0   16.35    0.37
  -6  -1   0   12.98    0.32
  -6  -1   0   13.53    0.34
  -6  -1   0   13.04    0.32
  -6  -1   0   12.69    0.32
  -6  -1   0   13.14    0.33
  -6  -1   0   12.86    0.33
  -6  -1   0   13.43    0.33
  -6  -1   0   12.97    0.33
  -6  -1   0   12.62    0.32
  -6  -1   0   12.84    0.32
   6   1   0   12.73    0.32
   6   1   0   12.73    0.32
   6   1   0   13.55    0.34
   6   1   0   13.51    0.33
   6   1   0   12.80    0.32
   6   1   0   13.19    0.32
   6   1   0   12.87    0.32
   6   1   0   12.69    0.32
  -7  -1   0    7.31    0.24
  -7  -1   0    7.61    0.23
  -7  -1   0    7.40    0.23
  -7  -1   0    7.18    0.23
  -7  -1   0    7.34    0.24
  -7  -1   0    7.47    0.22
  -7  -1   0    7.58    0.23
  -7  -1   0    7.48    0.24
   7   1   0    7.64    0.24
   7   1   0    7.28    0.23
   7   1   0    7.46    0.24
   7   1   0    6.99    0.23
   7   1   0    7.34    0.22
   7   1   0    7.59    0.23
   7   1   0    7.39    0.23
   7   1   0    7.35    0.23
  -8  -1   0    2.15    0.13
  -8  -1   0    1.85    0.13
  -8  -1   0    1.66    0.12
  -8  -1   0    1.91    0.13
  -8  -1   0    1.50    0.12
   8   1   0    1.95    0.13
   8   1   0    1.76    0.12
   8   1   0    1.76    0.12
   8   1   0    1.86    0.12
   8   1   0    1.67    0.12
   8   1   0    1.87    0.11
   8   1   0    2.00    0.12
   8   1   0    1.89    0.12
  -9  -1   0    1.52    0.13
  -9  -1   0    1.64    0.16
  -9  -1   0    1.42    0.13
  -9  -1   0    1.54    0.12
  -9  -1   0    1.31    0.12
   9   1   0    1.36    0.12
   9   1   0    1.40    0.12
   9   1   0    1.33    0.13
   9   1   0    1.58    0.12
   9   1   0    1.65    0.14
   9   1   0    1.19    0.14
   9   1   0    1.33    0.12
   9  -2   0    0.04    0.06
   9  -2   0    0.06    0.05
   9  -2   0    0.03    0.05
   9  -2   0    0.01    0.05
   9  -2   0    0.02    0.06
   9  -2   0    0.05    0.06
   9  -2   0    0.03    0.06
   9  -2   0    0.13    0.06
  -9   2   0   -0.01    0.05
  -9   2   0   -0.05    0.06
  -9   2   0    0.01    0.06
   8  -2   0    0.26    0.06
   8  -2   0    0.21    0.07
   8  -2   0    0.29    0.06
   8  -2   0    0.33    0.07
   8  -2   0    0.20    0.06
   8  -2   0    0.15    0.06
   8  -2   0    0.26    0.06
   8  -2   0    0.28    0.06
  -8   2   0    0.20    0.07
  -8   2   0    0.19    0.06
  -8   2   0    0.12    0.06
   7  -2   0   18.68    0.45
   7  -2   0   17.34    0.43
   7  -2   0   18.23    0.43
   7  -2   0   17.70    0.44
   7  -2   0   17.55    0.44
   7  -2   0   17.52    0.44
   7  -2   0   17.72    0.45
   7  -2   0   18.21    0.45
  -7   2   0   18.35    0.46
  -7   2   0   18.36    0.43
  -7   2   0   18.14    0.44
  -7   2   0   17.99    0.45
  -7   2   0   17.67    0.45
   6  -2   0    0.24    0.14
   6  -2   0    0.43    0.04
   6  -2   0    0.44    0.06
   6  -2   0    0.36    0.08
   6  -2   0    0.33    0.05
   6  -2   0    0.37    0.05
   6  -2   0    0.37    0.06
   6  -2   0    0.30    0.05
   6  -2   0    0.40    0.06
   6  -2   0    0.32    0.05
   6  -2   0    0.36    0.05
  -6   2   0    0.41    0.06
  -6   2   0    0.33    0.06
  -6   2   0    0.41    0.06
  -6   2   0    0.43    0.06
  -6   2   0    0.29    0.05
  -6   2   0    0.42    0.06
   5  -2   0    6.53    0.19
   5  -2   0    6.19    0.48
   5  -2   0    6.67    0.19
   5  -2   0    6.86    0.19
   5  -2   0    6.72    0.49
   5  -2   0    6.77    0.20
   5  -2   0    6.72    0.19
   5  -2   0    7.07    0.21
   5  -2   0    6.66    0.17
   5  -2   0    6.90    0.19
   5  -2   0    6.49    0.26
   5  -2   0    6.77    0.26
   5  -2   0    6.79    0.19
   5  -2   0    6.57    0.19
  -5   2   0    6.82    0.21
  -5   2   0    7.02    0.19
  -5   2   0    7.00    0.20
  -5   2   0    6.80    0.19
  -5   2   0    6.87    0.19
  -5   2   0    6.67    0.20
  -5   2   0    6.73    0.20
  -5   2   0    6.84    0.20
   4  -2   0   35.79    0.75
   4  -2   0   36.41    0.82
   4  -2   0   36.64    0.75
   4  -2   0   36.61    0.75
   4  -2   0   36.77    0.74
   4  -2   0   36.72    0.75
   4  -2   0   36.89    0.75
   4  -2   0   37.77    0.83
   4  -2   0   36.29    0.74
   4  -2   0   36.60    0.74
   4  -2   0   37.13    0.76
   4  -2   0   37.24    1.19
  -4   2   0   37.11    0.76
  -4   2   0   36.79    0.74
  -4   2   0   37.16    0.75
  -4   2   0   36.92    0.75
  -4   2   0   37.07    0.74
  -4   2   0   37.46    0.75
  -4   2   0   36.83    0.75
  -4   2   0   36.71    0.74
  -4   2   0   37.16    0.76
   3  -2   0   55.31    1.08
   3  -2   0   55.42    1.07
   3  -2   0   54.37    1.07
   3  -2   0   54.49    1.08
   3  -2   0   54.87    1.14
   3  -2   0   56.00    1.08
   3  -2   0   55.33    1.08
   3  -2   0   55.91    1.07
   3  -2   0   55.73    1.47
   3  -2   0   55.11    1.08
   3  -2   0   54.72    1.14
   3  -2   0   54.46    1.07
   3  -2   0   55.58    1.48
  -3   2   0   54.32    1.08
  -3   2   0   56.03    1.10
  -3   2   0   53.97    1.08
  -3   2   0   54.55    1.07
  -3   2   0   55.49    1.08
  -3   2   0   56.55    1.07
  -3   2   0   56.21    1.09
  -3   2   0   54.80    1.07
   2  -2   0   30.87    0.61
   2  -2   0   32.80    0.90
   2  -2   0   30.38    0.61
   2  -2   0   30.30    0.61
   2  -2   0   30.68    0.61
   2  -2   0   33.39    0.92
   2  -2   0   31.48    0.66
   2  -2   0   31.53    0.66
   2  -2   0   30.09    0.61
   2  -2   0   30.34    0.61
   2  -2   0   30.02    0.61
   2  -2   0   30.15    0.61
   2  -2   0   30.87    0.61
  -2   2   0   30.49    0.61
  -2   2   0   30.55    0.61
  -2   2   0   30.16    0.61
  -2   2   0   30.79    0.61
  -2   2   0   30.44    0.60
  -2   2   0   30.53    0.62
   1  -2   0   86.89    1.65
   1  -2   0   85.95    1.85
   1  -2   0   85.82    1.62
   1  -2   0   84.27    1.62
   1  -2   0   91.27    1.88
   1  -2   0   86.70    1.85
   1  -2   0   85.07    1.62
   1  -2   0   85.44    1.62
   1  -2   0   85.51    1.62
   1  -2   0   84.01    1.62
   1  -2   0   85.17    1.62
   1  -2   0   84.59    1.62
   1  -2   0   85.31    1.62
  -1   2   0   84.88    1.62
  -1   2   0   85.71    1.62
  -1   2   0   85.26    1.62
  -1   2   0   84.15    1.62
   0  -2   0   19.56    0.53
   0  -2   0   18.10    0.36
   0  -2   0   18.19    0.36
   0  -2   0   17.77    0.36
   0  -2   0   19.48    0.54
   0  -2   0   17.96    0.36
   0  -2   0   17.67    0.36
   0  -2   0   18.40    0.36
   0  -2   0   18.19    0.36
   0  -2   0   18.61    0.39
   0   2   0   17.83    0.36
   0   2   0   18.00    0.36
   0   2   0   18.07    0.37
   0   2   0   18.23    0.36
  -1  -2   0    1.26    0.05
  -1  -2   0    1.41    0.05
  -1  -2   0    1.46    0.04
  -1  -2   0    1.37    0.05
  -1  -2   0    1.67    0.09
  -1  -2   0    1.28    0.05
  -1  -2   0    1.34    0.05
  -1  -2   0    1.30    0.05
  -1  -2   0    1.49    0.07
  -1  -2   0    1.30    0.05
  -1  -2   0    1.57    0.05
   1   2   0    1.35    0.05
   1   2   0    1.44    0.06
   1   2   0    1.25    0.05
   1   2   0    1.34    0.05
   1   2   0    1.30    0.05
   1   2   0    1.28    0.05
  -2  -2   0  383.93    7.23
  -2  -2   0  382.81    7.20
  -2  -2   0  364.88    7.21
  -2  -2   0  378.75    8.68
  -2  -2   0  381.38    8.44
  -2  -2   0  372.78    7.22
  -2  -2   0  381.96    7.22
  -2  -2   0  373.97    7.20
  -2  -2   0  380.69    7.25
  -2  -2   0  386.74    7.27
  -2  -2   0  415.15    7.53
  -2  -2   0  374.92    7.23
   2   2   0  379.74    7.25
   2   2   0  376.91    7.21
   2   2   0  378.46    7.24
   2   2   0  382.99    7.22
   2   2   0  376.94    7.20
   2   2   0  377.21    7.25
  -3  -2   0    0.13    0.01
  -3  -2   0    0.08    0.02
  -3  -2   0    0.10    0.03
  -3  -2   0    0.07    0.02
  -3  -2   0    0.15    0.03
  -3  -2   0    0.17    0.04
  -3  -2   0    0.13    0.03
  -3  -2   0    0.05    0.02
  -3  -2   0    0.12    0.03
  -3  -2   0    0.11    0.02
  -3  -2   0    0.08    0.03
   3   2   0    0.07    0.03
   3   2   0    0.04    0.02
   3   2   0    0.08    0.03
   3   2   0    0.14    0.03
   3   2   0    0.13    0.03
   3   2   0    0.17    0.03
   3   2   0    0.12    0.03
   3   2   0    0.13    0.03
  -4  -2   0    0.61    0.06
  -4  -2   0    1.14    0.14
  -4  -2   0    0.64    0.06
  -4  -2   0    0.49    0.05
  -4  -2   0    0.66    0.06
  -4  -2   0    0.86    0.19
  -4  -2   0    0.54    0.05
  -4  -2   0    0.72    0.05
  -4  -2   0    0.63    0.05
  -4  -2   0    0.73    0.06
  -4  -2   0    0.63    0.06
  -4  -2   0    0.57    0.05
   4   2   0    0.65    0.05
   4   2   0    0.61    0.05
   4   2   0    0.52    0.05
   4   2   0    0.68    0.06
   4   2   0    0.62    0.05
   4   2   0    0.68    0.05
   4   2   0    0.64    0.05
  -5  -2   0   15.68    0.36
  -5  -2   0   15.50    0.36
  -5  -2   0   15.46    0.36
  -5  -2   0   16.53    0.77
  -5  -2   0   14.96    0.36
  -5  -2   0   15.61    0.36
  -5  -2   0   15.61    0.36
  -5  -2   0   15.11    0.36
  -5  -2   0   15.78    0.45
  -5  -2   0   16.33    0.37
  -5  -2   0   15.09    0.36
   5   2   0   15.11    0.35
   5   2   0   15.83    0.36
   5   2   0   15.37    0.36
   5   2   0   15.79    0.37
   5   2   0   15.42    0.36
   5   2   0   15.26    0.35
   5   2   0   15.08    0.36
   5   2   0   16.94    0.79
   5   2   0   15.34    0.36
  -6  -2   0   10.18    0.26
  -6  -2   0   10.10    0.26
  -6  -2   0   10.58    0.27
  -6  -2   0    9.63    0.28
  -6  -2   0    9.53    0.27
  -6  -2   0   10.13    0.27
  -6  -2   0   10.02    0.27
  -6  -2   0    9.72    0.27
  -6  -2   0    9.84    0.26
   6   2   0    9.87    0.27
   6   2   0    9.91    0.27
   6   2   0   10.08    0.26
   6   2   0    9.99    0.26
   6   2   0   10.22    0.27
   6   2   0    9.92    0.27
   6   2   0   10.21    0.26
   6   2   0    9.92    0.27
  -7  -2   0    9.47    0.28
  -7  -2   0    9.54    0.27
  -7  -2   0    9.77    0.28
  -7  -2   0    9.56    0.27
  -7  -2   0    9.09    0.27
  -7  -2   0    9.64    0.27
  -7  -2   0    9.44    0.27
   7   2   0    9.60    0.27
   7   2   0    9.71    0.27
   7   2   0    9.73    0.28
   7   2   0    9.39    0.27
   7   2   0    9.77    0.28
   7   2   0    9.35    0.28
   7   2   0    9.45    0.26
   7   2   0    9.19    0.26
  -8  -2   0    0.06    0.05
  -8  -2   0    0.07    0.05
  -8  -2   0    0.00    0.04
  -8  -2   0    0.00    0.05
  -8  -2   0    0.05    0.05
   8   2   0    0.05    0.04
   8   2   0   -0.02    0.04
   8   2   0    0.09    0.05
   8   2   0    0.08    0.05
   8   2   0   -0.05    0.04
   8   2   0   -0.02    0.04
   8   2   0    0.01    0.04
  -9  -2   0    0.22    0.07
  -9  -2   0    0.35    0.08
  -9  -2   0    0.28    0.07
  -9  -2   0    0.36    0.08
  -9  -2   0    0.35    0.08
   9   2   0    0.41    0.08
   9   2   0    0.35    0.07
   9   2   0    0.35    0.07
   9   2   0    0.29    0.08
   9   2   0    0.33    0.07
 -10  -2   0    0.39    0.09
 -10  -2   0    0.36    0.09
 -10  -2   0    0.39    0.09
 -10  -2   0    0.46    0.09
  10   2   0    0.31    0.08
  10   2   0    0.37    0.08
  10   2   0    0.49    0.09
  10   2   0    0.42    0.09
  10   2   0    0.30    0.08
   9  -3   0    0.61    0.09
   9  -3   0    0.35    0.08
   9  -3   0    0.42    0.09
   9  -3   0    0.47    0.09
   9  -3   0    0.44    0.07
   9  -3   0    0.28    0.08
   9  -3   0    0.44    0.08
  -9   3   0    0.46    0.09
  -9   3   0    0.40    0.09
   8  -3   0    1.83    0.11
   8  -3   0    1.71    0.13
   8  -3   0    1.74    0.14
   8  -3   0    1.54    0.12
   8  -3   0    1.47    0.13
   8  -3   0    1.52    0.12
   8  -3   0    1.65    0.12
   8  -3   0    1.68    0.13
  -8   3   0    1.74    0.13
  -8   3   0    1.55    0.12
  -8   3   0    1.70    0.13
   7  -3   0   -0.03    0.03
   7  -3   0   -0.14    0.04
   7  -3   0    0.01    0.04
   7  -3   0    0.01    0.04
   7  -3   0    0.03    0.05
   7  -3   0   -0.05    0.04
   7  -3   0    0.04    0.04
   7  -3   0    0.03    0.04
  -7   3   0   -0.06    0.04
  -7   3   0    0.00    0.05
  -7   3   0    0.02    0.04
  -7   3   0   -0.01    0.04
   6  -3   0    1.90    0.09
   6  -3   0    1.88    0.12
   6  -3   0    1.67    0.11
   6  -3   0    1.85    0.10
   6  -3   0    1.86    0.11
   6  -3   0    1.92    0.11
   6  -3   0    2.03    0.16
   6  -3   0    2.08    0.34
   6  -3   0    1.56    0.10
   6  -3   0    1.95    0.11
   6  -3   0    1.78    0.11
  -6   3   0    1.93    0.10
  -6   3   0    1.95    0.12
  -6   3   0    1.79    0.12
  -6   3   0    1.77    0.10
  -6   3   0    1.76    0.11
   5  -3   0   13.37    0.40
   5  -3   0   12.49    0.31
   5  -3   0   14.05    0.75
   5  -3   0   12.10    0.31
   5  -3   0   13.02    0.40
   5  -3   0   12.62    0.30
   5  -3   0   13.16    0.32
   5  -3   0   12.93    0.32
   5  -3   0   12.14    0.31
   5  -3   0   12.68    0.31
   5  -3   0   12.96    0.33
   5  -3   0   12.14    0.31
   5  -3   0   13.54    0.73
   5  -3   0   12.18    0.35
  -5   3   0   12.47    0.33
  -5   3   0   12.60    0.32
  -5   3   0   12.74    0.32
  -5   3   0   12.55    0.31
  -5   3   0   12.53    0.32
  -5   3   0   12.87    0.31
   4  -3   0    6.10    0.18
   4  -3   0    6.28    0.18
   4  -3   0    5.99    0.18
   4  -3   0    6.11    0.23
   4  -3   0    6.07    0.18
   4  -3   0    6.13    0.17
   4  -3   0    6.90    0.48
   4  -3   0    6.49    0.45
   4  -3   0    5.96    0.18
   4  -3   0    5.92    0.17
   4  -3   0    6.25    0.17
   4  -3   0    6.43    0.24
   4  -3   0    6.13    0.17
  -4   3   0    6.31    0.17
  -4   3   0    5.93    0.18
  -4   3   0    6.20    0.18
  -4   3   0    6.22    0.19
  -4   3   0    6.11    0.18
  -4   3   0    6.38    0.17
  -4   3   0    6.22    0.19
  -4   3   0    6.32    0.17
  -4   3   0    6.25    0.18
   3  -3   0    0.06    0.03
   3  -3   0    0.01    0.08
   3  -3   0    0.01    0.03
   3  -3   0    0.02    0.02
   3  -3   0    0.04    0.02
   3  -3   0   -0.02    0.03
   3  -3   0    0.00    0.02
   3  -3   0    0.00    0.03
   3  -3   0    0.04    0.02
   3  -3   0    0.00    0.02
   3  -3   0    0.03    0.08
   3  -3   0    0.01    0.02
  -3   3   0    0.00    0.02
  -3   3   0    0.00    0.03
  -3   3   0    0.02    0.02
  -3   3   0   -0.01    0.02
  -3   3   0   -0.01    0.02
   2  -3   0   43.14    1.22
   2  -3   0   45.56    0.89
   2  -3   0   45.02    0.88
   2  -3   0   45.44    0.89
   2  -3   0   44.78    0.89
   2  -3   0   44.92    1.24
   2  -3   0   45.37    0.89
   2  -3   0   44.90    0.88
   2  -3   0   42.49    1.21
   2  -3   0   45.36    0.94
   2  -3   0   46.40    0.89
   2  -3   0   46.09    0.89
   2  -3   0   46.32    0.88
  -2   3   0   46.53    0.89
  -2   3   0   45.98    0.89
  -2   3   0   46.86    0.88
  -2   3   0   45.92    0.89
   1  -3   0    6.91    0.16
   1  -3   0    6.97    0.16
   1  -3   0    6.40    0.34
   1  -3   0    6.88    0.16
   1  -3   0    6.40    0.34
   1  -3   0    6.79    0.16
   1  -3   0    6.81    0.17
   1  -3   0    6.86    0.16
   1  -3   0    6.81    0.16
   1  -3   0    6.63    0.20
  -1   3   0    6.80    0.18
  -1   3   0    7.69    0.16
  -1   3   0    6.90    0.17
  -1   3   0    6.86    0.16
  -1   3   0    6.68    0.16
   0  -3   0   11.15    0.24
   0  -3   0   11.35    0.24
   0  -3   0   10.99    0.44
   0  -3   0   11.66    0.45
   0  -3   0   11.21    0.28
   0  -3   0   11.01    0.24
   0  -3   0   11.37    0.24
   0  -3   0   11.29    0.24
   0  -3   0   10.86    0.24
   0  -3   0   11.42    0.24
   0   3   0   11.26    0.25
   0   3   0   11.29    0.24
   0   3   0   11.20    0.24
   0   3   0   11.12    0.24
  -1  -3   0    4.59    0.11
  -1  -3   0    4.51    0.11
  -1  -3   0    4.52    0.11
  -1  -3   0    4.44    0.11
  -1  -3   0    4.41    0.12
  -1  -3   0    4.48    0.11
  -1  -3   0    3.71    0.25
  -1  -3   0    4.21    0.14
  -1  -3   0    4.14    0.14
  -1  -3   0    3.65    0.26
  -1  -3   0    4.63    0.12
   1   3   0    4.50    0.12
   1   3   0    4.62    0.12
   1   3   0    4.68    0.11
   1   3   0    4.58    0.12
   1   3   0    4.63    0.12
  -2  -3   0   11.39    0.25
  -2  -3   0   11.05    0.25
  -2  -3   0   11.29    0.23
  -2  -3   0   11.19    0.29
  -2  -3   0   11.14    0.25
  -2  -3   0   11.16    0.25
  -2  -3   0   11.37    0.30
  -2  -3   0   11.68    0.49
  -2  -3   0   12.93    0.51
  -2  -3   0   11.61    0.26
  -2  -3   0   11.00    0.25
  -2  -3   0   11.37    0.25
  -2  -3   0   11.63    0.25
   2   3   0   10.99    0.25
   2   3   0   11.81    0.26
   2   3   0   10.96    0.25
   2   3   0   10.93    0.25
   2   3   0   11.29    0.25
   2   3   0   10.94    0.25
  -3  -3   0    0.53    0.05
  -3  -3   0    0.55    0.05
  -3  -3   0    0.39    0.04
  -3  -3   0    0.55    0.05
  -3  -3   0    0.55    0.03
  -3  -3   0    0.49    0.05
  -3  -3   0    0.72    0.05
  -3  -3   0    0.47    0.04
  -3  -3   0    0.50    0.05
  -3  -3   0    0.66    0.05
  -3  -3   0    0.51    0.05
   3   3   0    0.43    0.04
   3   3   0    0.47    0.04
   3   3   0    0.57    0.05
   3   3   0    0.59    0.05
   3   3   0    0.43    0.04
   3   3   0    0.55    0.05
  -4  -3   0   10.19    0.56
  -4  -3   0   10.83    0.26
  -4  -3   0   10.55    0.32
  -4  -3   0   10.77    0.22
  -4  -3   0   10.32    0.26
  -4  -3   0   10.05    0.56
  -4  -3   0   12.07    0.29
  -4  -3   0   10.70    0.26
  -4  -3   0   10.63    0.26
  -4  -3   0   10.91    0.26
  -4  -3   0   10.65    0.26
  -4  -3   0   10.62    0.26
  -4  -3   0   10.73    0.27
  -4  -3   0   11.13    0.26
   4   3   0   10.87    0.27
   4   3   0   11.13    0.26
   4   3   0   10.85    0.26
   4   3   0   10.93    0.26
   4   3   0   10.90    0.26
   4   3   0   10.78    0.26
   4   3   0   10.96    0.26
   4   3   0   10.58    0.26
  -5  -3   0    8.21    0.29
  -5  -3   0    8.40    0.22
  -5  -3   0    8.96    0.58
  -5  -3   0    7.98    0.22
  -5  -3   0    8.01    0.22
  -5  -3   0    7.75    0.22
  -5  -3   0    8.10    0.22
  -5  -3   0    8.29    0.23
  -5  -3   0    8.61    0.23
  -5  -3   0    8.14    0.22
   5   3   0    7.88    0.22
   5   3   0    8.36    0.22
   5   3   0    8.27    0.22
   5   3   0    8.22    0.22
   5   3   0    8.11    0.23
   5   3   0    8.02    0.22
   5   3   0    7.90    0.22
  -6  -3   0    5.31    0.17
  -6  -3   0    5.18    0.18
  -6  -3   0    5.38    0.19
  -6  -3   0    5.36    0.18
  -6  -3   0    5.59    0.18
  -6  -3   0    5.54    0.18
  -6  -3   0    5.08    0.18
  -6  -3   0    5.22    0.17
  -6  -3   0    5.12    0.17
   6   3   0    5.27    0.18
   6   3   0    5.59    0.18
   6   3   0    5.41    0.17
   6   3   0    5.30    0.17
   6   3   0    5.67    0.18
   6   3   0    5.33    0.18
   6   3   0    5.31    0.18
  -7  -3   0    0.21    0.05
  -7  -3   0    0.10    0.05
  -7  -3   0    0.12    0.04
  -7  -3   0    0.20    0.05
  -7  -3   0    0.15    0.05
  -7  -3   0    0.19    0.05
  -7  -3   0    0.14    0.05
  -7  -3   0    0.18    0.05
   7   3   0    0.13    0.05
   7   3   0    0.12    0.05
   7   3   0    0.24    0.06
   7   3   0    0.18    0.05
   7   3   0    0.13    0.05
   7   3   0    0.15    0.05
   7   3   0    0.13    0.05
  -8  -3   0    0.81    0.09
  -8  -3   0    0.84    0.09
  -8  -3   0    0.76    0.08
  -8  -3   0    0.74    0.09
  -8  -3   0    1.00    0.11
  -8  -3   0    0.84    0.09
  -8  -3   0    0.78    0.09
   8   3   0    0.86    0.10
   8   3   0    0.86    0.09
   8   3   0    0.76    0.09
   8   3   0    0.93    0.09
   8   3   0    0.82    0.09
  -9  -3   0    1.61    0.13
  -9  -3   0    1.63    0.13
  -9  -3   0    1.78    0.13
  -9  -3   0    1.87    0.14
  -9  -3   0    1.82    0.13
   9   3   0    1.77    0.14
   9   3   0    1.75    0.13
   9   3   0    1.97    0.13
   9   3   0    1.95    0.13
   9   3   0    1.73    0.13
   8  -4   0    0.41    0.08
   8  -4   0    0.37    0.08
   8  -4   0    0.35    0.06
   8  -4   0    0.26    0.07
   8  -4   0    0.35    0.08
   8  -4   0    0.33    0.07
  -8   4   0    0.29    0.08
  -8   4   0    0.35    0.08
   7  -4   0    0.02    0.04
   7  -4   0    0.09    0.04
   7  -4   0    0.00    0.04
   7  -4   0    0.04    0.05
   7  -4   0    0.06    0.05
   7  -4   0    0.03    0.05
   7  -4   0    0.02    0.05
  -7   4   0    0.06    0.05
  -7   4   0    0.09    0.05
  -7   4   0   -0.02    0.05
   6  -4   0   -0.02    0.05
   6  -4   0    0.03    0.03
   6  -4   0   -0.05    0.04
   6  -4   0    0.01    0.04
   6  -4   0    0.00    0.04
   6  -4   0   -0.03    0.03
   6  -4   0    0.04    0.13
   6  -4   0    0.00    0.04
   6  -4   0    0.05    0.04
   6  -4   0   -0.04    0.04
  -6   4   0   -0.05    0.04
  -6   4   0    0.04    0.04
  -6   4   0   -0.03    0.04
   5  -4   0    1.61    0.09
   5  -4   0    1.71    0.30
   5  -4   0    1.56    0.10
   5  -4   0    1.76    0.14
   5  -4   0    1.67    0.10
   5  -4   0    1.63    0.09
   5  -4   0    1.57    0.09
   5  -4   0    1.60    0.09
   5  -4   0    1.73    0.10
   5  -4   0    1.53    0.09
  -5   4   0    1.64    0.09
  -5   4   0    1.67    0.10
  -5   4   0    1.79    0.11
  -5   4   0    1.68    0.11
   4  -4   0    0.54    0.05
   4  -4   0    0.55    0.06
   4  -4   0    0.51    0.17
   4  -4   0    0.50    0.05
   4  -4   0    0.52    0.06
   4  -4   0    0.57    0.09
   4  -4   0    0.57    0.06
   4  -4   0    0.50    0.06
   4  -4   0    0.55    0.06
   4  -4   0    0.57    0.19
   4  -4   0    0.49    0.05
  -4   4   0    0.65    0.07
  -4   4   0    0.59    0.06
  -4   4   0    0.57    0.05
  -4   4   0    0.53    0.06
   3  -4   0    0.78    0.06
   3  -4   0    0.88    0.07
   3  -4   0    0.84    0.06
   3  -4   0    0.75    0.06
   3  -4   0    0.73    0.09
   3  -4   0    0.69    0.17
   3  -4   0    0.78    0.06
   3  -4   0    0.82    0.06
   3  -4   0    0.76    0.05
   3  -4   0    0.86    0.06
   3  -4   0    0.80    0.05
  -3   4   0    0.95    0.06
  -3   4   0    0.79    0.06
  -3   4   0    0.82    0.06
  -3   4   0    0.85    0.06
  -3   4   0    0.82    0.06
   2  -4   0    0.82    0.06
   2  -4   0    0.77    0.05
   2  -4   0    0.75    0.05
   2  -4   0    0.78    0.05
   2  -4   0    0.58    0.15
   2  -4   0    0.83    0.06
   2  -4   0    0.73    0.05
   2  -4   0    0.76    0.05
   2  -4   0    0.78    0.08
  -2   4   0    0.83    0.05
  -2   4   0    0.70    0.06
  -2   4   0    0.80    0.06
  -2   4   0    0.80    0.05
   1  -4   0    0.36    0.04
   1  -4   0    0.22    0.09
   1  -4   0    0.40    0.06
   1  -4   0    0.27    0.11
   1  -4   0    0.36    0.04
   1  -4   0    0.41    0.04
   1  -4   0    0.43    0.04
   1  -4   0    0.38    0.04
   1  -4   0    0.40    0.04
   1  -4   0    0.31    0.04
  -1   4   0    0.37    0.04
  -1   4   0    0.46    0.05
  -1   4   0    0.40    0.04
  -1   4   0    0.45    0.04
  -1   4   0    0.41    0.04
   0  -4   0   30.48    0.63
   0  -4   0   31.01    0.63
   0  -4   0   31.97    0.68
   0  -4   0   32.50    0.63
   0  -4   0   31.32    0.94
   0  -4   0   31.24    0.63
   0  -4   0   31.43    0.62
   0  -4   0   30.64    0.63
   0  -4   0   32.16    0.96
   0  -4   0   31.42    0.63
   0   4   0   32.06    0.63
   0   4   0   31.15    0.63
   0   4   0   31.41    0.62
   0   4   0   31.30    0.64
   0   4   0   32.05    0.63
  -1  -4   0   29.62    0.61
  -1  -4   0   29.76    0.66
  -1  -4   0   30.17    0.61
  -1  -4   0   29.62    0.61
  -1  -4   0   32.77    0.94
  -1  -4   0   30.07    0.60
  -1  -4   0   30.75    0.61
  -1  -4   0   31.39    0.66
  -1  -4   0   29.71    0.61
  -1  -4   0   30.22    0.61
  -1  -4   0   30.67    0.61
  -1  -4   0   35.03    0.97
   1   4   0   30.57    0.61
   1   4   0   30.28    0.62
   1   4   0   29.57    0.61
   1   4   0   28.95    0.61
   1   4   0   29.43    0.61
   1   4   0   29.99    0.61
  -2  -4   0  102.71    1.92
  -2  -4   0   98.90    1.91
  -2  -4   0  103.72    1.91
  -2  -4   0   99.25    1.91
  -2  -4   0   97.66    1.97
  -2  -4   0   96.77    2.31
  -2  -4   0  100.08    1.91
  -2  -4   0  100.53    2.33
  -2  -4   0  100.40    1.91
  -2  -4   0  103.56    1.90
  -2  -4   0   98.10    1.97
  -2  -4   0  100.63    1.91
   2   4   0   98.67    1.91
   2   4   0   97.27    1.91
   2   4   0  100.97    1.91
   2   4   0  100.03    1.91
   2   4   0  101.80    1.90
  -3  -4   0   11.14    0.25
  -3  -4   0   10.81    0.31
  -3  -4   0   10.25    0.25
  -3  -4   0   10.62    0.25
  -3  -4   0   11.68    0.32
  -3  -4   0   10.51    0.26
  -3  -4   0   10.54    0.26
  -3  -4   0   11.77    0.23
  -3  -4   0   10.75    0.25
  -3  -4   0   10.39    0.25
  -3  -4   0   10.72    0.25
   3   4   0   10.59    0.26
   3   4   0   11.26    0.26
   3   4   0   10.65    0.26
   3   4   0   11.01    0.25
   3   4   0   10.33    0.26
   3   4   0   10.56    0.25
   3   4   0   10.71    0.25
  -4  -4   0   45.23    0.92
  -4  -4   0   45.98    0.92
  -4  -4   0   45.18    0.93
  -4  -4   0   46.40    0.93
  -4  -4   0   45.06    0.93
  -4  -4   0   45.14    1.00
  -4  -4   0   45.86    0.93
  -4  -4   0   47.70    0.94
  -4  -4   0   45.30    0.89
  -4  -4   0   45.76    0.92
  -4  -4   0   47.01    1.44
  -4  -4   0   45.08    0.92
  -4  -4   0   48.35    1.43
  -4  -4   0   47.62    0.92
  -4  -4   0   46.59    1.01
   4   4   0   47.27    0.93
   4   4   0   46.02    0.93
   4   4   0   46.54    0.93
   4   4   0   45.76    0.93
   4   4   0   46.72    0.92
   4   4   0   45.34    0.92
   4   4   0   46.03    0.93
   4   4   0   45.06    0.92
  -5  -4   0    2.82    0.17
  -5  -4   0    3.27    0.13
  -5  -4   0    3.12    0.13
  -5  -4   0    3.40    0.12
  -5  -4   0    3.18    0.13
  -5  -4   0    3.38    0.13
  -5  -4   0    3.28    0.12
  -5  -4   0    3.18    0.12
  -5  -4   0    3.04    0.12
  -5  -4   0    3.20    0.08
  -5  -4   0    3.20    0.18
   5   4   0    3.25    0.12
   5   4   0    3.55    0.13
   5   4   0    3.19    0.12
   5   4   0    2.99    0.12
   5   4   0    3.00    0.12
   5   4   0    3.11    0.13
   5   4   0    3.20    0.13
   5   4   0    3.26    0.13
  -6  -4   0    7.10    0.22
  -6  -4   0    7.53    0.22
  -6  -4   0    7.03    0.21
  -6  -4   0    6.90    0.22
  -6  -4   0    7.12    0.22
  -6  -4   0    7.22    0.22
  -6  -4   0    7.26    0.21
  -6  -4   0    7.05    0.22
   6   4   0    6.90    0.22
   6   4   0    7.33    0.22
   6   4   0    6.99    0.22
   6   4   0    7.25    0.21
   6   4   0    7.23    0.22
   6   4   0    7.20    0.21
   6   4   0    7.17    0.21
  -7  -4   0    0.86    0.09
  -7  -4   0    0.68    0.08
  -7  -4   0    0.73    0.08
  -7  -4   0    0.90    0.09
  -7  -4   0    0.91    0.09
  -7  -4   0    0.89    0.09
  -7  -4   0    0.81    0.08
  -7  -4   0    0.64    0.07
   7   4   0    0.63    0.07
   7   4   0    0.78    0.08
   7   4   0    0.79    0.09
   7   4   0    0.80    0.09
   7   4   0    0.76    0.09
  -8  -4   0    4.59    0.19
  -8  -4   0    4.47    0.19
  -8  -4   0    4.71    0.18
  -8  -4   0    4.62    0.19
  -8  -4   0    4.39    0.19
  -8  -4   0    4.51    0.18
  -8  -4   0    4.35    0.19
   8   4   0    4.40    0.19
   8   4   0    4.23    0.19
   8   4   0    4.01    0.18
   8   4   0    4.62    0.19
   8   4   0    4.54    0.18
  -9  -4   0   -0.04    0.05
  -9  -4   0   -0.10    0.05
  -9  -4   0    0.01    0.05
  -9  -4   0    0.05    0.05
  -9  -4   0   -0.01    0.06
   9   4   0    0.03    0.05
   9   4   0    0.04    0.05
   9   4   0   -0.03    0.05
   9   4   0    0.02    0.05
   9   4   0    0.01    0.06
   8  -5   0   -0.02    0.04
   8  -5   0   -0.01    0.05
   8  -5   0   -0.01    0.05
   8  -5   0    0.04    0.06
   8  -5   0    0.09    0.06
   8  -5   0    0.09    0.06
  -8   5   0    0.05    0.06
  -8   5   0    0.03    0.06
   7  -5   0    0.41    0.06
   7  -5   0    0.37    0.07
   7  -5   0    0.53    0.08
   7  -5   0    0.51    0.08
   7  -5   0    0.58    0.09
   7  -5   0    0.45    0.07
  -7   5   0    0.40    0.08
  -7   5   0    0.37    0.08
   6  -5   0    0.79    0.08
   6  -5   0    0.54    0.22
   6  -5   0    0.75    0.08
   6  -5   0    0.62    0.12
   6  -5   0    0.80    0.09
   6  -5   0    0.70    0.09
   6  -5   0    0.77    0.07
   6  -5   0    0.67    0.08
   6  -5   0    0.74    0.08
   6  -5   0    0.64    0.08
  -6   5   0    0.70    0.09
  -6   5   0    0.54    0.08
   5  -5   0    6.17    0.54
   5  -5   0    6.03    0.21
   5  -5   0    5.90    0.18
   5  -5   0    5.88    0.19
   5  -5   0    6.11    0.19
   5  -5   0    6.03    0.20
   5  -5   0    6.11    0.26
   5  -5   0    5.78    0.19
   5  -5   0    5.92    0.20
   5  -5   0    5.80    0.20
  -5   5   0    5.93    0.20
  -5   5   0    5.77    0.20
   4  -5   0    0.83    0.24
   4  -5   0    0.44    0.06
   4  -5   0    0.55    0.09
   4  -5   0    0.45    0.06
   4  -5   0    0.67    0.21
   4  -5   0    0.48    0.06
   4  -5   0    0.45    0.06
   4  -5   0    0.39    0.06
   4  -5   0    0.60    0.06
   4  -5   0    0.52    0.06
   4  -5   0    0.58    0.18
  -4   5   0    0.48    0.06
  -4   5   0    0.48    0.06
  -4   5   0    0.60    0.06
   3  -5   0    0.24    0.04
   3  -5   0    0.25    0.04
   3  -5   0    0.27    0.13
   3  -5   0    0.25    0.06
   3  -5   0    0.28    0.14
   3  -5   0    0.24    0.04
   3  -5   0    0.25    0.04
   3  -5   0    0.19    0.04
   3  -5   0    0.22    0.04
  -3   5   0    0.23    0.04
  -3   5   0    0.24    0.04
  -3   5   0    0.23    0.04
   2  -5   0    0.37    0.04
   2  -5   0    0.26    0.04
   2  -5   0    0.38    0.07
   2  -5   0    0.39    0.05
   2  -5   0    0.29    0.13
   2  -5   0    0.32    0.13
   2  -5   0    0.26    0.04
   2  -5   0    0.28    0.04
   2  -5   0    0.35    0.04
   2  -5   0    0.37    0.05
  -2   5   0    0.29    0.04
  -2   5   0    0.38    0.04
  -2   5   0    0.34    0.05
  -2   5   0    0.32    0.04
   1  -5   0   44.31    0.88
   1  -5   0   44.25    0.90
   1  -5   0   43.44    0.89
   1  -5   0   43.98    0.89
   1  -5   0   45.02    0.95
   1  -5   0   46.68    1.31
   1  -5   0   44.06    0.89
   1  -5   0   43.77    0.89
   1  -5   0   46.78    1.33
   1  -5   0   45.15    0.89
  -1   5   0   44.44    0.88
  -1   5   0   44.66    0.90
  -1   5   0   43.60    0.89
  -1   5   0   44.11    0.89
  -1   5   0   46.18    0.90
   0  -5   0   40.55    0.79
   0  -5   0   41.06    0.80
   0  -5   0   39.55    0.78
   0  -5   0   40.61    0.77
   0  -5   0   39.57    0.80
   0  -5   0   39.51    0.86
   0  -5   0   37.09    1.15
   0  -5   0   37.48    1.17
   0  -5   0   39.84    0.80
   0  -5   0   39.23    0.85
   0  -5   0   39.81    0.79
   0  -5   0   39.45    0.79
   0   5   0   40.18    0.81
   0   5   0   40.55    0.80
   0   5   0   42.20    0.80
   0   5   0   40.82    0.79
   0   5   0   39.73    0.80
  -1  -5   0    8.65    0.21
  -1  -5   0   10.31    0.50
  -1  -5   0    8.86    0.22
  -1  -5   0    9.05    0.22
  -1  -5   0    8.98    0.20
  -1  -5   0    9.31    0.22
  -1  -5   0    9.57    0.27
  -1  -5   0    8.90    0.26
  -1  -5   0    8.63    0.22
  -1  -5   0    9.27    0.21
  -1  -5   0    8.88    0.22
   1   5   0    8.70    0.22
   1   5   0    8.76    0.21
   1   5   0    8.73    0.23
   1   5   0    8.51    0.22
   1   5   0    8.54    0.22
   1   5   0    8.91    0.21
  -2  -5   0    0.02    0.03
  -2  -5   0   -0.02    0.07
  -2  -5   0    0.02    0.02
  -2  -5   0    0.01    0.03
  -2  -5   0    0.01    0.02
  -2  -5   0    0.02    0.02
  -2  -5   0   -0.02    0.02
  -2  -5   0    0.02    0.02
  -2  -5   0    0.11    0.03
  -2  -5   0    0.00    0.06
  -2  -5   0    0.01    0.02
  -2  -5   0   -0.01    0.02
   2   5   0    0.01    0.02
   2   5   0    0.01    0.03
   2   5   0    0.00    0.02
   2   5   0    0.02    0.02
   2   5   0   -0.02    0.02
  -3  -5   0    0.07    0.04
  -3  -5   0    0.17    0.03
  -3  -5   0    0.13    0.05
  -3  -5   0    0.11    0.03
  -3  -5   0    0.14    0.03
  -3  -5   0    0.13    0.03
  -3  -5   0    0.07    0.09
  -3  -5   0    0.14    0.03
  -3  -5   0    0.13    0.03
  -3  -5   0    0.15    0.03
  -3  -5   0    0.05    0.07
  -3  -5   0    0.13    0.03
  -3  -5   0    0.16    0.04
   3   5   0    0.12    0.04
   3   5   0    0.14    0.04
   3   5   0    0.19    0.03
   3   5   0    0.21    0.04
   3   5   0    0.19    0.03
   3   5   0    0.23    0.04
   3   5   0    0.12    0.03
   3   5   0    0.18    0.04
  -4  -5   0   55.22    1.21
  -4  -5   0   56.41    1.12
  -4  -5   0   56.49    1.11
  -4  -5   0   54.59    1.65
  -4  -5   0   55.77    1.11
  -4  -5   0   56.66    1.69
  -4  -5   0   55.82    1.09
  -4  -5   0   56.05    1.12
  -4  -5   0   55.33    1.11
  -4  -5   0   56.02    1.07
  -4  -5   0   56.11    1.11
  -4  -5   0   54.43    1.21
  -4  -5   0   55.56    1.12
  -4  -5   0   56.56    1.12
  -4  -5   0   56.98    1.13
  -4  -5   0   56.22    1.12
   4   5   0   57.54    1.12
   4   5   0   57.05    1.13
   4   5   0   55.09    1.12
   4   5   0   56.99    1.11
   4   5   0   56.02    1.12
   4   5   0   56.14    1.11
  -5  -5   0   11.94    0.30
  -5  -5   0   11.43    0.30
  -5  -5   0   12.09    0.39
  -5  -5   0   11.49    0.30
  -5  -5   0   11.24    0.37
  -5  -5   0   12.14    0.72
  -5  -5   0   11.54    0.30
  -5  -5   0   11.76    0.30
  -5  -5   0   11.95    0.30
  -5  -5   0   12.23    0.30
  -5  -5   0   11.55    0.26
  -5  -5   0   11.90    0.30
   5   5   0   12.24    0.30
   5   5   0   12.07    0.31
   5   5   0   11.87    0.31
   5   5   0   12.01    0.31
   5   5   0   12.22    0.31
   5   5   0   12.01    0.30
   5   5   0   12.13    0.30
  -6  -5   0    9.33    0.26
  -6  -5   0    9.61    0.27
  -6  -5   0    9.40    0.27
  -6  -5   0    9.73    0.27
  -6  -5   0    9.35    0.26
  -6  -5   0    9.53    0.27
  -6  -5   0    9.34    0.26
  -6  -5   0    9.42    0.26
   6   5   0    9.01    0.27
   6   5   0    9.56    0.27
   6   5   0    8.83    0.27
   6   5   0    9.67    0.26
   6   5   0    9.46    0.26
  -7  -5   0    0.04    0.04
  -7  -5   0    0.02    0.04
  -7  -5   0   -0.02    0.04
  -7  -5   0    0.02    0.04
  -7  -5   0    0.04    0.04
  -7  -5   0    0.06    0.04
  -7  -5   0    0.05    0.05
  -7  -5   0   -0.06    0.04
  -7  -5   0    0.04    0.05
   7   5   0   -0.03    0.04
   7   5   0   -0.03    0.04
   7   5   0    0.12    0.05
   7   5   0   -0.03    0.04
   7   5   0    0.09    0.05
  -8  -5   0    8.01    0.26
  -8  -5   0    7.66    0.25
  -8  -5   0    7.83    0.26
  -8  -5   0    7.95    0.26
  -8  -5   0    7.38    0.25
  -8  -5   0    7.92    0.26
  -8  -5   0    7.41    0.26
  -8  -5   0    7.51    0.25
   8   5   0    7.27    0.26
   8   5   0    7.48    0.25
   8   5   0    7.34    0.26
   8   5   0    7.74    0.26
   8   5   0    7.53    0.26
  -9  -5   0    0.02    0.06
  -9  -5   0   -0.03    0.05
  -9  -5   0    0.04    0.06
  -9  -5   0   -0.02    0.05
  -9  -5   0    0.01    0.05
   9   5   0    0.02    0.05
   9   5   0    0.13    0.06
   9   5   0    0.01    0.06
   9   5   0    0.00    0.05
   7  -6   0    2.90    0.17
   7  -6   0    2.95    0.15
   7  -6   0    2.99    0.17
   7  -6   0    2.93    0.16
   7  -6   0    3.25    0.16
  -7   6   0    3.14    0.17
  -7   6   0    2.97    0.17
   6  -6   0    2.19    0.39
   6  -6   0    2.62    0.14
   6  -6   0    2.56    0.14
   6  -6   0    2.59    0.14
   6  -6   0    2.37    0.14
   6  -6   0    2.52    0.13
   6  -6   0    2.46    0.19
   6  -6   0    2.47    0.14
  -6   6   0    2.55    0.15
  -6   6   0    2.52    0.15
   5  -6   0    3.09    0.15
   5  -6   0    3.25    0.43
   5  -6   0    3.37    0.20
   5  -6   0    3.00    0.15
   5  -6   0    2.79    0.14
   5  -6   0    3.31    0.15
   5  -6   0    3.21    0.14
   5  -6   0    3.42    0.14
  -5   6   0    3.21    0.15
  -5   6   0    3.35    0.16
   4  -6   0    2.57    0.13
   4  -6   0    2.94    0.18
   4  -6   0    2.40    0.12
   4  -6   0    2.55    0.12
   4  -6   0    3.32    0.39
   4  -6   0    2.88    0.14
   4  -6   0    2.68    0.11
   4  -6   0    3.27    0.39
   4  -6   0    2.52    0.13
   4  -6   0    2.56    0.12
  -4   6   0    2.70    0.13
  -4   6   0    2.57    0.13
   3  -6   0   16.53    0.37
   3  -6   0   17.76    0.84
   3  -6   0   16.57    0.40
   3  -6   0   16.51    0.38
   3  -6   0   16.47    0.39
   3  -6   0   17.63    0.83
   3  -6   0   16.46    0.46
   3  -6   0   16.24    0.39
   3  -6   0   15.85    0.39
  -3   6   0   16.20    0.40
  -3   6   0   16.59    0.40
   2  -6   0    2.21    0.11
   2  -6   0    2.30    0.10
   2  -6   0    2.08    0.10
   2  -6   0    1.67    0.27
   2  -6   0    2.02    0.13
   2  -6   0    2.20    0.09
   2  -6   0    2.04    0.10
   2  -6   0    2.18    0.10
  -2   6   0    2.04    0.10
  -2   6   0    2.30    0.11
  -2   6   0    2.19    0.09
   1  -6   0    5.89    0.18
   1  -6   0    6.87    0.47
   1  -6   0    5.83    0.18
   1  -6   0    5.83    0.16
   1  -6   0    5.68    0.17
   1  -6   0    5.41    0.17
   1  -6   0    5.74    0.17
   1  -6   0    6.00    0.22
   1  -6   0    6.93    0.46
  -1   6   0    5.99    0.17
  -1   6   0    5.59    0.17
  -1   6   0    5.65    0.18
   0  -6   0   11.37    0.27
   0  -6   0   11.29    0.26
   0  -6   0    9.69    0.55
   0  -6   0   11.26    0.25
   0  -6   0    9.60    0.56
   0  -6   0   11.66    0.24
   0  -6   0   11.32    0.27
   0  -6   0   11.12    0.27
   0  -6   0   10.97    0.32
   0  -6   0   10.68    0.32
   0   6   0   11.23    0.27
   0   6   0   11.11    0.26
   0   6   0   11.35    0.27
  -1  -6   0    6.78    0.18
  -1  -6   0    6.91    0.19
  -1  -6   0    6.89    0.47
  -1  -6   0    6.38    0.43
  -1  -6   0    6.68    0.18
  -1  -6   0    7.84    0.22
  -1  -6   0    6.72    0.24
  -1  -6   0    6.48    0.18
  -1  -6   0    6.53    0.18
  -1  -6   0    7.09    0.17
  -1  -6   0    6.51    0.23
  -1  -6   0    6.52    0.17
   1   6   0    6.71    0.18
   1   6   0    7.04    0.19
   1   6   0    6.44    0.19
   1   6   0    6.87    0.19
   1   6   0    6.81    0.18
  -2  -6   0    3.48    0.33
  -2  -6   0    3.37    0.11
  -2  -6   0    3.36    0.16
  -2  -6   0    3.32    0.12
  -2  -6   0    3.58    0.12
  -2  -6   0    3.21    0.12
  -2  -6   0    3.40    0.12
  -2  -6   0    3.45    0.12
  -2  -6   0    3.23    0.12
  -2  -6   0    3.83    0.35
  -2  -6   0    3.65    0.17
  -2  -6   0    3.41    0.11
   2   6   0    3.37    0.12
   2   6   0    3.51    0.12
   2   6   0    3.31    0.17
   2   6   0    3.27    0.13
   2   6   0    3.30    0.11
   2   6   0    3.35    0.12
   2   6   0    3.28    0.11
  -3  -6   0    2.23    0.14
  -3  -6   0    2.35    0.09
  -3  -6   0    2.22    0.10
  -3  -6   0    2.34    0.10
  -3  -6   0    2.25    0.29
  -3  -6   0    2.25    0.10
  -3  -6   0    2.30    0.09
  -3  -6   0    2.17    0.10
  -3  -6   0    2.27    0.10
  -3  -6   0    2.13    0.10
  -3  -6   0    2.05    0.13
   3   6   0    2.33    0.10
   3   6   0    2.14    0.10
   3   6   0    2.31    0.10
   3   6   0    2.24    0.09
   3   6   0    2.18    0.10
  -4  -6   0    3.14    0.11
  -4  -6   0    3.06    0.13
  -4  -6   0    2.94    0.36
  -4  -6   0    3.12    0.13
  -4  -6   0    3.25    0.13
  -4  -6   0    3.17    0.12
  -4  -6   0    3.15    0.12
  -4  -6   0    3.18    0.13
  -4  -6   0    3.38    0.13
  -4  -6   0    3.11    0.12
  -4  -6   0    3.07    0.36
  -4  -6   0    2.80    0.17
  -4  -6   0    3.03    0.17
  -4  -6   0    3.09    0.12
   4   6   0    3.17    0.13
   4   6   0    3.22    0.12
   4   6   0    3.18    0.13
   4   6   0    3.14    0.12
   4   6   0    3.39    0.13
  -5  -6   0    0.15    0.03
  -5  -6   0    0.20    0.04
  -5  -6   0    0.07    0.12
  -5  -6   0    0.22    0.07
  -5  -6   0    0.14    0.05
  -5  -6   0    0.17    0.04
  -5  -6   0    0.24    0.04
  -5  -6   0    0.11    0.06
  -5  -6   0    0.29    0.05
  -5  -6   0    0.21    0.05
  -5  -6   0    0.15    0.04
  -5  -6   0    0.25    0.05
   5   6   0    0.20    0.05
   5   6   0    0.24    0.05
   5   6   0    0.24    0.05
   5   6   0    0.15    0.05
   5   6   0    0.20    0.05
  -6  -6   0   10.73    0.30
  -6  -6   0   10.63    0.29
  -6  -6   0   10.32    0.30
  -6  -6   0   10.71    0.29
  -6  -6   0   10.33    0.29
  -6  -6   0   10.96    0.29
  -6  -6   0   10.64    0.29
  -6  -6   0   10.79    0.30
   6   6   0   10.57    0.31
   6   6   0   10.64    0.30
   6   6   0   11.07    0.29
   6   6   0   10.76    0.30
  -7  -6   0    0.70    0.08
  -7  -6   0    0.71    0.08
  -7  -6   0    0.75    0.08
  -7  -6   0    0.70    0.08
  -7  -6   0    0.76    0.09
  -7  -6   0    0.59    0.08
  -7  -6   0    0.80    0.09
  -7  -6   0    0.91    0.09
   7   6   0    0.73    0.09
   7   6   0    0.73    0.09
   7   6   0    0.74    0.09
   7   6   0    0.72    0.08
  -8  -6   0    0.06    0.05
  -8  -6   0    0.06    0.06
  -8  -6   0    0.05    0.05
  -8  -6   0    0.11    0.05
  -8  -6   0    0.13    0.06
  -8  -6   0    0.06    0.06
  -8  -6   0    0.10    0.06
  -8  -6   0    0.15    0.06
   8   6   0    0.08    0.05
   8   6   0    0.11    0.06
   8   6   0    0.06    0.06
   8   6   0    0.17    0.07
  -9  -6   0    0.28    0.07
  -9  -6   0    0.28    0.07
  -9  -6   0    0.30    0.08
  -9  -6   0    0.32    0.08
  -9  -6   0    0.32    0.08
  -9  -6   0    0.31    0.08
   9   6   0    0.19    0.07
   9   6   0    0.16    0.07
   9   6   0    0.29    0.08
   6  -7   0    0.95    0.10
   6  -7   0    0.83    0.09
   6  -7   0    0.77    0.09
   6  -7   0    0.81    0.13
   6  -7   0    0.82    0.30
   6  -7   0    0.95    0.11
   6  -7   0    1.00    0.11
  -6   7   0    0.88    0.11
  -6   7   0    0.71    0.10
   5  -7   0    3.20    0.15
   5  -7   0    3.04    0.16
   5  -7   0    3.01    0.15
   5  -7   0    2.56    0.41
   5  -7   0    3.01    0.20
   5  -7   0    3.10    0.16
   5  -7   0    3.20    0.16
  -5   7   0    3.00    0.16
  -5   7   0    3.38    0.16
   4  -7   0    0.12    0.04
   4  -7   0    0.08    0.06
   4  -7   0   -0.01    0.11
   4  -7   0    0.05    0.03
   4  -7   0    0.11    0.05
   4  -7   0    0.05    0.04
   4  -7   0    0.00    0.04
   4  -7   0    0.11    0.05
  -4   7   0    0.03    0.05
  -4   7   0    0.04    0.05
   3  -7   0    9.69    0.27
   3  -7   0    9.72    0.26
   3  -7   0    9.57    0.33
   3  -7   0    9.56    0.65
   3  -7   0    9.37    0.24
   3  -7   0    9.64    0.30
   3  -7   0    9.88    0.66
   3  -7   0    9.17    0.26
   3  -7   0    9.42    0.27
  -3   7   0    9.72    0.28
  -3   7   0    9.25    0.27
   2  -7   0   12.94    0.33
   2  -7   0   13.52    0.33
   2  -7   0   13.88    0.75
   2  -7   0   13.25    0.34
   2  -7   0   13.34    0.34
   2  -7   0   13.68    0.31
   2  -7   0   14.12    0.40
   2  -7   0   13.80    0.35
   2  -7   0   13.46    0.72
  -2   7   0   13.29    0.34
  -2   7   0   13.53    0.34
   1  -7   0    5.00    0.14
   1  -7   0    5.00    0.16
   1  -7   0    4.96    0.21
   1  -7   0    5.17    0.43
   1  -7   0    4.95    0.16
   1  -7   0    4.74    0.17
   1  -7   0    5.19    0.44
   1  -7   0    5.05    0.16
   1  -7   0    5.06    0.21
   1  -7   0    4.88    0.17
  -1   7   0    4.74    0.16
  -1   7   0    4.94    0.17
   0  -7   0    2.49    0.14
   0  -7   0    2.49    0.32
   0  -7   0    2.45    0.31
   0  -7   0    2.72    0.09
   0  -7   0    2.66    0.11
   0  -7   0    2.57    0.11
   0  -7   0    2.64    0.11
   0  -7   0    2.53    0.11
   0  -7   0    2.81    0.10
   0  -7   0    2.62    0.15
   0   7   0    2.68    0.12
   0   7   0    2.49    0.11
   0   7   0    2.59    0.11
  -1  -7   0   11.90    0.27
  -1  -7   0   11.28    0.29
  -1  -7   0   11.75    0.35
  -1  -7   0   11.41    0.28
  -1  -7   0   11.83    0.29
  -1  -7   0   11.89    0.66
  -1  -7   0   11.55    0.64
  -1  -7   0   12.01    0.36
  -1  -7   0   11.45    0.29
  -1  -7   0   12.03    0.26
   1   7   0   11.75    0.30
   1   7   0   11.73    0.28
   1   7   0   11.53    0.30
   1   7   0   11.60    0.30
  -2  -7   0    2.40    0.15
  -2  -7   0    2.21    0.09
  -2  -7   0    2.15    0.10
  -2  -7   0    2.35    0.10
  -2  -7   0    2.21    0.14
  -2  -7   0    2.24    0.10
  -2  -7   0    2.27    0.11
  -2  -7   0    2.43    0.10
  -2  -7   0    2.34    0.30
  -2  -7   0    2.22    0.30
  -2  -7   0    2.20    0.10
   2   7   0    2.18    0.11
   2   7   0    2.27    0.11
   2   7   0    2.24    0.11
   2   7   0    2.16    0.10
  -3  -7   0    0.14    0.03
  -3  -7   0    0.08    0.12
  -3  -7   0    0.04    0.03
  -3  -7   0    0.09    0.03
  -3  -7   0    0.09    0.04
  -3  -7   0    0.19    0.14
  -3  -7   0    0.03    0.03
  -3  -7   0    0.10    0.04
  -3  -7   0    0.07    0.03
  -3  -7   0    0.03    0.04
  -3  -7   0    0.11    0.05
  -3  -7   0    0.09    0.03
   3   7   0    0.10    0.04
   3   7   0    0.07    0.03
   3   7   0    0.08    0.04
   3   7   0    0.07    0.04
  -4  -7   0    0.97    0.07
  -4  -7   0    0.92    0.11
  -4  -7   0    0.89    0.07
  -4  -7   0    0.92    0.08
  -4  -7   0    0.89    0.11
  -4  -7   0    1.01    0.09
  -4  -7   0    0.95    0.08
  -4  -7   0    0.90    0.07
  -4  -7   0    0.91    0.08
  -4  -7   0    0.99    0.08
  -4  -7   0    0.89    0.08
  -4  -7   0    0.63    0.22
   4   7   0    0.84    0.08
   4   7   0    0.77    0.08
   4   7   0    1.00    0.08
   4   7   0    0.96    0.07
  -5  -7   0    0.76    0.08
  -5  -7   0    0.79    0.08
  -5  -7   0    0.73    0.08
  -5  -7   0    0.64    0.08
  -5  -7   0    0.74    0.07
  -5  -7   0    0.80    0.08
  -5  -7   0    0.80    0.08
  -5  -7   0    0.63    0.07
  -5  -7   0    0.77    0.07
  -5  -7   0    0.85    0.26
  -5  -7   0    0.75    0.11
   5   7   0    0.72    0.08
   5   7   0    0.81    0.08
   5   7   0    0.69    0.08
   5   7   0    0.93    0.09
  -6  -7   0    0.91    0.09
  -6  -7   0    1.06    0.10
  -6  -7   0    1.30    0.10
  -6  -7   0    1.29    0.10
  -6  -7   0    1.23    0.10
  -6  -7   0    1.37    0.10
  -6  -7   0    1.23    0.09
  -6  -7   0    1.05    0.10
   6   7   0    1.27    0.11
   6   7   0    1.04    0.10
   6   7   0    1.36    0.12
  -7  -7   0    0.02    0.05
  -7  -7   0    0.09    0.05
  -7  -7   0    0.10    0.05
  -7  -7   0    0.13    0.06
  -7  -7   0    0.17    0.06
  -7  -7   0    0.17    0.06
  -7  -7   0    0.10    0.05
  -7  -7   0    0.14    0.06
   7   7   0    0.07    0.05
   7   7   0    0.19    0.07
   7   7   0    0.13    0.05
  -8  -7   0    2.49    0.15
  -8  -7   0    2.38    0.15
  -8  -7   0    2.49    0.15
  -8  -7   0    2.28    0.15
  -8  -7   0    2.55    0.15
  -8  -7   0    2.25    0.15
  -8  -7   0    2.36    0.16
  -8  -7   0    2.43    0.14
   8   7   0    2.30    0.16
   8   7   0    2.43    0.15
   8   7   0    2.31    0.16
   5  -8   0    1.48    0.36
   5  -8   0    1.63    0.11
   5  -8   0    1.66    0.13
   5  -8   0    1.64    0.12
   5  -8   0    1.69    0.13
   5  -8   0    1.54    0.16
   5  -8   0    1.63    0.13
  -5   8   0    1.80    0.14
  -5   8   0    1.52    0.13
   4  -8   0    0.79    0.07
   4  -8   0    0.96    0.09
   4  -8   0    0.71    0.09
   4  -8   0    0.94    0.11
   4  -8   0    0.84    0.09
   4  -8   0    0.94    0.09
   4  -8   0    0.70    0.25
   4  -8   0    0.82    0.12
  -4   8   0    1.02    0.10
  -4   8   0    0.83    0.10
   3  -8   0    3.83    0.20
   3  -8   0    3.73    0.18
   3  -8   0    3.81    0.16
   3  -8   0    3.79    0.16
   3  -8   0    4.13    0.16
   3  -8   0    3.90    0.13
   3  -8   0    3.25    0.42
   3  -8   0    4.22    0.17
  -3   8   0    4.14    0.17
  -3   8   0    3.79    0.17
   2  -8   0    0.02    0.12
   2  -8   0    0.01    0.05
   2  -8   0    0.06    0.04
   2  -8   0    0.03    0.05
   2  -8   0    0.02    0.11
   2  -8   0    0.08    0.05
   2  -8   0    0.04    0.03
   2  -8   0    0.08    0.04
   2  -8   0    0.05    0.04
  -2   8   0    0.00    0.04
  -2   8   0    0.00    0.04
   1  -8   0    4.64    0.16
   1  -8   0    4.61    0.21
   1  -8   0    4.21    0.42
   1  -8   0    4.76    0.16
   1  -8   0    4.17    0.43
   1  -8   0    4.98    0.17
   1  -8   0    4.66    0.17
   1  -8   0    4.83    0.14
   1  -8   0    4.86    0.21
  -1   8   0    4.87    0.18
  -1   8   0    4.65    0.17
   0  -8   0    0.04    0.05
   0  -8   0    0.08    0.04
   0  -8   0    0.08    0.04
   0  -8   0    0.13    0.04
   0  -8   0    0.12    0.13
   0  -8   0    0.09    0.03
   0  -8   0    0.08    0.11
   0  -8   0    0.05    0.04
   0  -8   0    0.01    0.03
   0   8   0    0.12    0.05
   0   8   0    0.08    0.04
  -1  -8   0    3.35    0.12
  -1  -8   0    3.29    0.13
  -1  -8   0    3.16    0.17
  -1  -8   0    3.41    0.39
  -1  -8   0    3.53    0.38
  -1  -8   0    3.03    0.14
  -1  -8   0    3.26    0.13
  -1  -8   0    3.55    0.18
  -1  -8   0    3.28    0.13
   1   8   0    3.34    0.14
   1   8   0    2.93    0.14
   1   8   0    3.09    0.14
  -2  -8   0    0.18    0.04
  -2  -8   0    0.31    0.16
  -2  -8   0    0.32    0.17
  -2  -8   0    0.23    0.05
  -2  -8   0    0.25    0.04
  -2  -8   0    0.19    0.06
  -2  -8   0    0.28    0.06
  -2  -8   0    0.18    0.05
  -2  -8   0    0.27    0.05
  -2  -8   0    0.26    0.05
  -2  -8   0    0.28    0.07
   2   8   0    0.25    0.05
   2   8   0    0.30    0.06
   2   8   0    0.17    0.05
  -3  -8   0    0.73    0.08
  -3  -8   0    0.96    0.12
  -3  -8   0    0.67    0.08
  -3  -8   0    0.75    0.07
  -3  -8   0    0.56    0.09
  -3  -8   0    0.76    0.07
  -3  -8   0    0.85    0.07
  -3  -8   0    0.71    0.07
  -3  -8   0    0.78    0.07
  -3  -8   0    0.79    0.24
   3   8   0    0.68    0.08
   3   8   0    0.66    0.08
   3   8   0    0.63    0.07
  -4  -8   0    0.05    0.04
  -4  -8   0    0.00    0.03
  -4  -8   0   -0.02    0.11
  -4  -8   0    0.03    0.05
  -4  -8   0    0.05    0.04
  -4  -8   0    0.00    0.05
  -4  -8   0    0.09    0.04
  -4  -8   0    0.05    0.04
  -4  -8   0    0.02    0.04
  -4  -8   0    0.03    0.04
  -4  -8   0    0.03    0.04
  -4  -8   0    0.01    0.04
   4   8   0    0.07    0.05
   4   8   0    0.03    0.04
   4   8   0    0.07    0.04
  -5  -8   0    0.82    0.12
  -5  -8   0    0.91    0.08
  -5  -8   0    0.82    0.08
  -5  -8   0    0.94    0.10
  -5  -8   0    0.94    0.09
  -5  -8   0    0.59    0.28
  -5  -8   0    1.08    0.09
  -5  -8   0    1.11    0.10
  -5  -8   0    0.84    0.09
  -5  -8   0    0.78    0.08
  -5  -8   0    0.93    0.09
   5   8   0    1.02    0.10
   5   8   0    0.93    0.10
   5   8   0    0.83    0.09
  -6  -8   0    5.95    0.22
  -6  -8   0    6.15    0.22
  -6  -8   0    5.67    0.21
  -6  -8   0    6.33    0.22
  -6  -8   0    6.08    0.21
  -6  -8   0    5.71    0.21
  -6  -8   0    5.97    0.22
  -6  -8   0    6.16    0.20
   6   8   0    6.22    0.23
   6   8   0    6.01    0.23
   6   8   0    6.13    0.23
  -7  -8   0    0.48    0.08
  -7  -8   0    0.45    0.08
  -7  -8   0    0.60    0.09
  -7  -8   0    0.47    0.08
  -7  -8   0    0.50    0.07
  -7  -8   0    0.46    0.08
  -7  -8   0    0.59    0.09
  -7  -8   0    0.51    0.08
   7   8   0    0.44    0.08
   7   8   0    0.36    0.08
   7   8   0    0.40    0.08
  -8  -8   0    2.03    0.14
  -8  -8   0    1.97    0.14
  -8  -8   0    1.77    0.13
  -8  -8   0    2.07    0.15
  -8  -8   0    1.81    0.14
  -8  -8   0    1.97    0.15
  -8  -8   0    1.78    0.14
  -8  -8   0    1.81    0.14
   8   8   0    1.90    0.15
   8   8   0    2.03    0.15
   8   8   0    1.75    0.15
   4  -9   0    0.52    0.08
   4  -9   0    0.56    0.09
   4  -9   0    0.42    0.09
   4  -9   0    0.50    0.25
   4  -9   0    0.46    0.08
   4  -9   0    0.51    0.09
   4  -9   0    0.51    0.08
  -4   9   0    0.50    0.09
   3  -9   0    0.56    0.10
   3  -9   0    0.55    0.10
   3  -9   0    0.54    0.08
   3  -9   0    0.60    0.08
   3  -9   0    0.55    0.08
   3  -9   0    0.71    0.10
   3  -9   0    0.42    0.21
   3  -9   0    0.67    0.08
   3  -9   0    0.59    0.05
  -3   9   0    0.65    0.09
  -3   9   0    0.67    0.09
   2  -9   0    3.59    0.16
   2  -9   0    3.55    0.19
   2  -9   0    3.78    0.12
   2  -9   0    3.70    0.18
   2  -9   0    3.77    0.17
   2  -9   0    3.52    0.19
   2  -9   0    3.34    0.16
   2  -9   0    3.18    0.42
   2  -9   0    3.81    0.15
  -2   9   0    3.39    0.16
  -2   9   0    3.76    0.17
   1  -9   0   10.18    0.30
   1  -9   0   10.19    0.34
   1  -9   0   10.07    0.34
   1  -9   0   10.09    0.29
   1  -9   0    9.92    0.68
   1  -9   0    9.56    0.68
   1  -9   0    9.95    0.29
   1  -9   0   10.65    0.33
   1  -9   0   10.09    0.28
   1  -9   0   10.29    0.24
  -1   9   0   10.30    0.30
  -1   9   0   10.62    0.30
   0  -9   0    2.86    0.13
   0  -9   0    2.73    0.17
   0  -9   0    3.04    0.13
   0  -9   0    2.10    0.35
   0  -9   0    2.65    0.13
   0  -9   0    2.75    0.10
   0  -9   0    2.75    0.13
   0  -9   0    2.68    0.17
   0  -9   0    2.28    0.34
   0  -9   0    3.06    0.14
   0   9   0    2.79    0.14
   0   9   0    2.76    0.14
   0   9   0    2.81    0.14
  -1  -9   0    9.33    0.66
  -1  -9   0   10.00    0.28
  -1  -9   0    9.33    0.27
  -1  -9   0    9.97    0.24
  -1  -9   0    9.58    0.33
  -1  -9   0    9.55    0.28
  -1  -9   0    9.81    0.26
  -1  -9   0    9.78    0.33
  -1  -9   0    9.65    0.26
  -1  -9   0    9.26    0.30
  -1  -9   0    9.19    0.64
   1   9   0    9.48    0.28
   1   9   0    9.53    0.28
   1   9   0    9.72    0.28
  -2  -9   0    0.20    0.05
  -2  -9   0    0.16    0.16
  -2  -9   0    0.19    0.05
  -2  -9   0    0.12    0.05
  -2  -9   0    0.16    0.06
  -2  -9   0    0.19    0.07
  -2  -9   0    0.18    0.05
  -2  -9   0    0.17    0.06
  -2  -9   0    0.17    0.05
  -2  -9   0    0.17    0.04
   2   9   0    0.16    0.06
   2   9   0    0.25    0.06
   2   9   0    0.17    0.05
  -3  -9   0    0.06    0.03
  -3  -9   0    0.07    0.06
  -3  -9   0    0.10    0.05
  -3  -9   0    0.08    0.05
  -3  -9   0    0.12    0.04
  -3  -9   0    0.08    0.06
  -3  -9   0    0.05    0.04
  -3  -9   0    0.12    0.05
  -3  -9   0    0.06    0.14
  -3  -9   0    0.10    0.05
   3   9   0    0.12    0.05
   3   9   0    0.03    0.05
   3   9   0    0.12    0.05
  -4  -9   0    0.14    0.16
  -4  -9   0    0.04    0.06
  -4  -9   0    0.02    0.05
  -4  -9   0    0.05    0.04
  -4  -9   0    0.05    0.06
  -4  -9   0    0.05    0.05
  -4  -9   0    0.05    0.04
  -4  -9   0    0.09    0.05
  -4  -9   0    0.05    0.04
  -4  -9   0    0.04    0.04
  -4  -9   0    0.06    0.04
   4   9   0    0.16    0.06
   4   9   0    0.00    0.04
   4   9   0    0.05    0.05
  -5  -9   0    7.49    0.24
  -5  -9   0    7.49    0.33
  -5  -9   0    7.98    0.26
  -5  -9   0    7.77    0.25
  -5  -9   0    7.67    0.25
  -5  -9   0    7.47    0.22
  -5  -9   0    7.90    0.24
  -5  -9   0    7.82    0.25
  -5  -9   0    7.86    0.25
   5   9   0    7.88    0.27
   5   9   0    7.94    0.27
   5   9   0    7.87    0.26
  -6  -9   0    0.15    0.06
  -6  -9   0    0.21    0.07
  -6  -9   0    0.25    0.06
  -6  -9   0    0.27    0.06
  -6  -9   0    0.21    0.07
  -6  -9   0    0.20    0.06
  -6  -9   0    0.21    0.06
  -6  -9   0    0.24    0.07
   6   9   0    0.21    0.07
   6   9   0    0.24    0.07
   6   9   0    0.19    0.06
  -7  -9   0    3.37    0.18
  -7  -9   0    3.63    0.17
  -7  -9   0    3.42    0.17
  -7  -9   0    3.25    0.17
  -7  -9   0    3.52    0.16
  -7  -9   0    3.62    0.19
  -7  -9   0    3.73    0.18
  -7  -9   0    3.61    0.19
   7   9   0    3.30    0.18
   7   9   0    3.50    0.19
   7   9   0    3.59    0.20
   3 -10   0    0.32    0.06
   3 -10   0    0.37    0.08
   3 -10   0    0.33    0.07
   3 -10   0    0.26    0.07
   3 -10   0    0.23    0.08
   3 -10   0    0.33    0.08
   3 -10   0    0.25    0.19
   3 -10   0    0.20    0.08
  -3  10   0    0.38    0.08
   2 -10   0    0.16    0.06
   2 -10   0    0.25    0.08
   2 -10   0    0.18    0.06
   2 -10   0    0.19    0.07
   2 -10   0    0.17    0.05
   2 -10   0    0.18    0.07
   2 -10   0    0.06    0.05
   2 -10   0    0.16    0.17
  -2  10   0    0.19    0.06
   1 -10   0   13.08    0.36
   1 -10   0   13.06    0.41
   1 -10   0   13.27    0.41
   1 -10   0   13.67    0.40
   1 -10   0   12.08    0.80
   1 -10   0   13.85    0.29
   1 -10   0   13.44    0.37
   1 -10   0   13.50    0.34
   1 -10   0   13.75    0.38
  -1  10   0   13.49    0.37
   0 -10   0    2.17    0.15
   0 -10   0    1.91    0.13
   0 -10   0    2.16    0.13
   0 -10   0    1.93    0.08
   0 -10   0    1.87    0.15
   0 -10   0    1.98    0.12
   0 -10   0    1.93    0.15
   0 -10   0    1.99    0.11
   0 -10   0    2.37    0.38
   0  10   0    1.70    0.12
   0  10   0    2.13    0.14
   0  10   0    1.91    0.13
  -1 -10   0    2.08    0.36
  -1 -10   0    1.75    0.15
  -1 -10   0    2.14    0.12
  -1 -10   0    1.97    0.09
  -1 -10   0    2.08    0.12
  -1 -10   0    2.03    0.13
  -1 -10   0    2.15    0.16
  -1 -10   0    1.87    0.12
  -1 -10   0    1.85    0.14
  -1 -10   0    2.03    0.13
   1  10   0    1.85    0.13
   1  10   0    1.99    0.13
   1  10   0    1.95    0.13
  -2 -10   0   -0.01    0.04
  -2 -10   0    0.25    0.06
  -2 -10   0    0.03    0.03
  -2 -10   0    0.12    0.05
  -2 -10   0    0.19    0.17
  -2 -10   0    0.12    0.05
  -2 -10   0    0.04    0.03
  -2 -10   0    0.07    0.06
  -2 -10   0    0.09    0.06
  -2 -10   0    0.12    0.05
  -2 -10   0    0.10    0.06
   2  10   0    0.00    0.05
   2  10   0    0.12    0.05
   2  10   0    0.09    0.05
  -3 -10   0    0.17    0.06
  -3 -10   0    0.16    0.07
  -3 -10   0    0.15    0.07
  -3 -10   0    0.17    0.05
  -3 -10   0    0.19    0.04
  -3 -10   0    0.15    0.06
  -3 -10   0    0.21    0.06
  -3 -10   0    0.22    0.06
  -3 -10   0    0.01    0.13
  -3 -10   0    0.22    0.06
   3  10   0    0.21    0.06
   3  10   0    0.17    0.06
   3  10   0    0.20    0.06
  -4 -10   0    0.30    0.05
  -4 -10   0    0.43    0.07
  -4 -10   0    0.42    0.10
  -4 -10   0    0.35    0.07
  -4 -10   0    0.47    0.08
  -4 -10   0    0.28    0.07
  -4 -10   0    0.22    0.06
  -4 -10   0    0.39    0.22
  -4 -10   0    0.31    0.07
  -4 -10   0    0.24    0.08
  -4 -10   0    0.29    0.07
   4  10   0    0.29    0.07
   4  10   0    0.29    0.07
   4  10   0    0.38    0.08
  -5 -10   0    0.20    0.08
  -5 -10   0    0.21    0.06
  -5 -10   0    0.14    0.06
  -5 -10   0    0.16    0.06
  -5 -10   0    0.21    0.06
  -5 -10   0    0.21    0.05
  -5 -10   0    0.19    0.06
  -5 -10   0    0.19    0.06
   5  10   0    0.19    0.07
   5  10   0    0.14    0.07
   5  10   0    0.07    0.06
  -6 -10   0    3.18    0.17
  -6 -10   0    3.25    0.17
  -6 -10   0    3.53    0.18
  -6 -10   0    3.68    0.15
  -6 -10   0    3.51    0.17
  -6 -10   0    3.47    0.19
  -6 -10   0    3.43    0.18
   6  10   0    3.69    0.19
   6  10   0    3.63    0.19
   6  10   0    3.46    0.19
   0 -11   0    3.63    0.20
   0 -11   0    3.51    0.15
   0 -11   0    3.52    0.19
   0 -11   0    3.43    0.20
   0 -11   0    3.75    0.18
   0 -11   0    3.39    0.47
   0 -11   0    3.63    0.18
   0 -11   0    3.49    0.18
   0  11   0    3.69    0.18
   0  11   0    3.30    0.17
  -1 -11   0    9.66    0.34
  -1 -11   0    9.51    0.74
  -1 -11   0    9.95    0.28
  -1 -11   0    9.65    0.30
  -1 -11   0    9.74    0.35
  -1 -11   0    8.25    0.33
  -1 -11   0    9.37    0.30
  -1 -11   0    9.46    0.31
  -1 -11   0    9.89    0.33
   1  11   0    9.97    0.32
   1  11   0    9.62    0.31
  -2 -11   0    1.78    0.08
  -2 -11   0    1.90    0.13
  -2 -11   0    1.78    0.15
  -2 -11   0    1.74    0.12
  -2 -11   0    2.37    0.41
  -2 -11   0    1.79    0.14
  -2 -11   0    1.80    0.12
  -2 -11   0    1.68    0.13
  -2 -11   0    1.82    0.16
  -2 -11   0    1.86    0.08
  -2 -11   0    1.88    0.14
   2  11   0    1.98    0.14
   2  11   0    1.80    0.14
  -3 -11   0    1.84    0.12
  -3 -11   0    2.17    0.09
  -3 -11   0    1.81    0.14
  -3 -11   0    2.01    0.14
  -3 -11   0    2.06    0.18
  -3 -11   0    2.04    0.15
  -3 -11   0    1.83    0.40
  -3 -11   0    1.88    0.13
  -3 -11   0    2.00    0.09
  -3 -11   0    1.94    0.17
  -3 -11   0    2.29    0.13
  -3 -11   0    2.04    0.13
   3  11   0    2.07    0.15
   3  11   0    2.01    0.14
   3  11   0    2.01    0.15
  -4 -11   0    0.09    0.07
  -4 -11   0    0.09    0.07
  -4 -11   0    0.09    0.06
  -4 -11   0    0.18    0.04
  -4 -11   0    0.06    0.05
  -4 -11   0    0.19    0.20
  -4 -11   0    0.17    0.08
  -4 -11   0    0.10    0.06
  -4 -11   0    0.24    0.07
  -4 -11   0    0.11    0.06
  -4 -11   0    0.14    0.06
   4  11   0    0.15    0.06
   4  11   0    0.07    0.06
   4  11   0    0.20    0.07
   2  11  -1    4.38    0.20
   2  11  -1    4.21    0.19
  -2 -11   1    4.45    0.21
  -2 -11   1    4.44    0.19
  -2 -11   1    4.22    0.18
  -2 -11   1    4.49    0.20
  -2 -11   1    3.94    0.20
  -2 -11   1    3.94    0.16
  -2 -11   1    3.77    0.46
  -2 -11   1    4.39    0.19
  -2 -11   1    3.94    0.45
   1  11  -1    0.21    0.07
   1  11  -1    0.15    0.06
  -1 -11   1    0.12    0.07
  -1 -11   1    0.16    0.17
  -1 -11   1    0.26    0.07
  -1 -11   1    0.07    0.06
  -1 -11   1    0.10    0.15
  -1 -11   1    0.02    0.05
   5  10  -1    1.09    0.12
   5  10  -1    1.02    0.11
  -5 -10   1    1.00    0.31
  -5 -10   1    0.88    0.07
  -5 -10   1    0.95    0.07
  -5 -10   1    1.10    0.11
  -5 -10   1    1.07    0.10
  -5 -10   1    1.07    0.11
  -5 -10   1    0.91    0.13
  -5 -10   1    0.86    0.13
  -5 -10   1    1.03    0.10
  -5 -10   1    1.06    0.10
  -5 -10   1    0.97    0.11
   4  10  -1    3.51    0.17
   4  10  -1    3.45    0.17
  -4 -10   1    3.10    0.15
  -4 -10   1    3.43    0.15
  -4 -10   1    3.43    0.17
  -4 -10   1    3.42    0.16
  -4 -10   1    3.14    0.45
  -4 -10   1    3.12    0.14
  -4 -10   1    3.18    0.19
  -4 -10   1    3.16    0.16
  -4 -10   1    3.29    0.10
  -4 -10   1    3.08    0.19
  -4 -10   1    3.39    0.17
   3  10  -1    0.01    0.05
   3  10  -1   -0.07    0.04
  -3 -10   1   -0.02    0.04
  -3 -10   1   -0.02    0.04
  -3 -10   1    0.00    0.04
  -3 -10   1   -0.02    0.04
  -3 -10   1    0.06    0.14
  -3 -10   1   -0.03    0.12
  -3 -10   1    0.06    0.06
  -3 -10   1   -0.08    0.04
  -3 -10   1   -0.02    0.05
  -3 -10   1   -0.05    0.03
  -3 -10   1    0.02    0.05
   2  10  -1    0.74    0.09
   2  10  -1    0.81    0.09
  -2 -10   1    0.75    0.09
  -2 -10   1    0.81    0.10
  -2 -10   1    0.80    0.09
  -2 -10   1    0.85    0.11
  -2 -10   1    0.72    0.07
  -2 -10   1    0.85    0.08
  -2 -10   1    0.80    0.10
  -2 -10   1    0.80    0.09
  -2 -10   1    0.72    0.23
  -2 -10   1    0.87    0.26
   1  10  -1    0.05    0.05
   1  10  -1   -0.01    0.05
  -1 -10   1    0.06    0.04
  -1 -10   1    0.09    0.05
  -1 -10   1    0.12    0.15
  -1 -10   1    0.19    0.15
  -1 -10   1    0.04    0.05
  -1 -10   1    0.13    0.05
  -1 -10   1    0.05    0.05
  -1 -10   1    0.07    0.06
  -1 -10   1    0.04    0.04
   0  10  -1    4.13    0.18
   0  10  -1    4.07    0.18
   0 -10   1    4.07    0.17
   0 -10   1    3.84    0.41
   0 -10   1    3.89    0.20
   0 -10   1    3.89    0.16
   0 -10   1    4.17    0.18
   0 -10   1    4.25    0.15
   0 -10   1    3.96    0.17
   0 -10   1    4.28    0.18
   0 -10   1    3.61    0.42
  -1  10  -1    2.46    0.14
  -1  10  -1    2.67    0.15
   1 -10   1    2.45    0.12
   1 -10   1    2.63    0.17
   1 -10   1    2.67    0.14
   1 -10   1    2.54    0.13
   1 -10   1    2.64    0.15
   1 -10   1    1.98    0.34
   1 -10   1    2.67    0.14
   1 -10   1    2.48    0.12
   1 -10   1    2.13    0.33
  -2  10  -1    0.13    0.06
   2 -10   1    0.20    0.16
   2 -10   1    0.12    0.05
   2 -10   1    0.13    0.06
   2 -10   1    0.14    0.06
   2 -10   1    0.21    0.16
   2 -10   1    0.12    0.07
   7   9  -1    1.77    0.14
   7   9  -1    2.06    0.15
   7   9  -1    1.93    0.15
  -7  -9   1    2.04    0.14
  -7  -9   1    1.73    0.14
  -7  -9   1    1.67    0.14
  -7  -9   1    1.89    0.13
  -7  -9   1    1.99    0.11
  -7  -9   1    1.78    0.13
  -7  -9   1    1.74    0.13
  -7  -9   1    1.88    0.19
   6   9  -1    4.42    0.20
   6   9  -1    4.08    0.19
   6   9  -1    4.29    0.20
  -6  -9   1    4.22    0.18
  -6  -9   1    4.23    0.15
  -6  -9   1    4.44    0.18
  -6  -9   1    4.36    0.25
  -6  -9   1    4.14    0.19
  -6  -9   1    4.36    0.19
  -6  -9   1    4.15    0.20
  -6  -9   1    4.15    0.25
  -6  -9   1    4.22    0.18
   5   9  -1    5.70    0.22
   5   9  -1    5.07    0.21
   5   9  -1    5.11    0.21
  -5  -9   1    5.02    0.21
  -5  -9   1    5.18    0.16
  -5  -9   1    4.95    0.18
  -5  -9   1    5.26    0.20
  -5  -9   1    5.11    0.54
  -5  -9   1    5.01    0.20
  -5  -9   1    5.14    0.19
  -5  -9   1    4.97    0.24
  -5  -9   1    5.14    0.19
  -5  -9   1    5.02    0.25
   4   9  -1   15.64    0.41
   4   9  -1   15.83    0.41
   4   9  -1   16.19    0.42
  -4  -9   1   15.49    0.35
  -4  -9   1   15.80    0.39
  -4  -9   1   15.23    0.40
  -4  -9   1   15.56    0.35
  -4  -9   1   15.22    0.41
  -4  -9   1   15.38    0.40
  -4  -9   1   15.62    0.46
  -4  -9   1   16.17    0.41
  -4  -9   1   16.01    0.47
  -4  -9   1   15.55    0.38
  -4  -9   1   15.60    0.88
  -4  -9   1   15.33    0.38
   3   9  -1    4.47    0.18
   3   9  -1    4.59    0.18
   3   9  -1    4.41    0.18
  -3  -9   1    4.11    0.20
  -3  -9   1    4.50    0.17
  -3  -9   1    4.74    0.16
  -3  -9   1    4.48    0.21
  -3  -9   1    4.20    0.45
  -3  -9   1    4.66    0.13
  -3  -9   1    4.01    0.43
  -3  -9   1    4.39    0.16
  -3  -9   1    4.75    0.18
  -3  -9   1    4.52    0.12
  -3  -9   1    4.50    0.19
  -3  -9   1    4.57    0.16
  -3  -9   1    4.38    0.18
   2   9  -1    0.89    0.09
   2   9  -1    0.71    0.08
   2   9  -1    0.89    0.09
  -2  -9   1    1.13    0.26
  -2  -9   1    1.15    0.28
  -2  -9   1    0.74    0.08
  -2  -9   1    0.80    0.08
  -2  -9   1    1.01    0.10
  -2  -9   1    1.01    0.08
  -2  -9   1    0.89    0.08
  -2  -9   1    0.96    0.10
  -2  -9   1    0.83    0.09
  -2  -9   1    0.86    0.11
   1   9  -1    3.39    0.15
   1   9  -1    3.46    0.16
  -1  -9   1    3.70    0.17
  -1  -9   1    3.56    0.13
  -1  -9   1    3.20    0.14
  -1  -9   1    3.98    0.40
  -1  -9   1    3.87    0.41
  -1  -9   1    3.48    0.15
  -1  -9   1    3.66    0.17
  -1  -9   1    3.59    0.16
  -1  -9   1    3.51    0.14
  -1  -9   1    3.45    0.15
   0   9  -1    3.52    0.15
   0   9  -1    3.65    0.16
   0  -9   1    3.83    0.14
   0  -9   1    3.63    0.16
   0  -9   1    3.91    0.16
   0  -9   1    3.38    0.37
   0  -9   1    3.33    0.15
   0  -9   1    3.57    0.13
   0  -9   1    3.77    0.18
   0  -9   1    3.52    0.39
   0  -9   1    3.36    0.15
   0  -9   1    3.72    0.16
  -1   9  -1    3.82    0.16
   1  -9   1    3.65    0.16
   1  -9   1    4.05    0.19
   1  -9   1    3.88    0.16
   1  -9   1    3.70    0.14
   1  -9   1    3.76    0.39
   1  -9   1    3.72    0.40
   1  -9   1    3.75    0.16
   1  -9   1    3.87    0.17
   1  -9   1    3.54    0.15
  -2   9  -1    0.68    0.09
   2  -9   1    0.63    0.08
   2  -9   1    0.62    0.09
   2  -9   1    0.52    0.20
   2  -9   1    0.64    0.07
   2  -9   1    0.64    0.22
   2  -9   1    0.53    0.07
   2  -9   1    0.54    0.08
   2  -9   1    0.51    0.07
   2  -9   1    0.54    0.07
  -3   9  -1    1.38    0.12
   3  -9   1    1.33    0.09
   3  -9   1    1.39    0.29
   3  -9   1    1.68    0.14
   3  -9   1    1.47    0.30
   3  -9   1    1.35    0.10
   3  -9   1    1.48    0.12
   3  -9   1    1.35    0.11
   3  -9   1    1.47    0.12
   3  -9   1    1.51    0.11
  -4   9  -1    0.03    0.05
   4  -9   1    0.12    0.15
   4  -9   1    0.00    0.05
   4  -9   1    0.06    0.05
   4  -9   1    0.01    0.06
   4  -9   1    0.05    0.05
   4  -9   1    0.06    0.15
   4  -9   1   -0.05    0.05
   4  -9   1    0.08    0.06
   4  -9   1    0.04    0.04
   7   8  -1    3.00    0.17
   7   8  -1    3.18    0.17
   7   8  -1    2.90    0.17
  -7  -8   1    2.92    0.16
  -7  -8   1    2.84    0.15
  -7  -8   1    3.04    0.16
  -7  -8   1    2.88    0.16
  -7  -8   1    2.83    0.16
  -7  -8   1    2.67    0.15
  -7  -8   1    2.89    0.16
  -7  -8   1    2.84    0.14
   6   8  -1    0.00    0.05
   6   8  -1    0.14    0.06
   6   8  -1   -0.01    0.04
  -6  -8   1    0.08    0.05
  -6  -8   1    0.02    0.04
  -6  -8   1   -0.08    0.04
  -6  -8   1    0.03    0.06
  -6  -8   1    0.05    0.14
  -6  -8   1   -0.01    0.04
  -6  -8   1   -0.01    0.05
  -6  -8   1   -0.03    0.04
  -6  -8   1   -0.01    0.04
  -6  -8   1   -0.07    0.04
   5   8  -1    2.26    0.13
   5   8  -1    2.48    0.14
   5   8  -1    2.51    0.14
  -5  -8   1    2.36    0.11
  -5  -8   1    2.44    0.17
  -5  -8   1    2.43    0.13
  -5  -8   1    2.60    0.12
  -5  -8   1    2.35    0.12
  -5  -8   1    2.38    0.13
  -5  -8   1    2.32    0.13
  -5  -8   1    2.34    0.17
  -5  -8   1    2.30    0.13
  -5  -8   1    2.20    0.37
  -5  -8   1    2.39    0.12
  -5  -8   1    2.59    0.13
   4   8  -1    1.00    0.09
   4   8  -1    0.93    0.09
   4   8  -1    0.89    0.09
  -4  -8   1    1.07    0.07
  -4  -8   1    0.99    0.09
  -4  -8   1    0.96    0.27
  -4  -8   1    0.89    0.08
  -4  -8   1    1.11    0.09
  -4  -8   1    1.01    0.28
  -4  -8   1    1.16    0.09
  -4  -8   1    0.93    0.09
  -4  -8   1    1.10    0.09
  -4  -8   1    1.17    0.09
  -4  -8   1    1.15    0.12
  -4  -8   1    0.94    0.07
  -4  -8   1    0.99    0.08
  -4  -8   1    1.02    0.12
   3   8  -1    1.25    0.10
   3   8  -1    1.34    0.10
   3   8  -1    1.73    0.11
  -3  -8   1    1.24    0.09
  -3  -8   1    1.15    0.12
  -3  -8   1    1.29    0.10
  -3  -8   1    1.33    0.07
  -3  -8   1    1.30    0.07
  -3  -8   1    1.23    0.09
  -3  -8   1    1.16    0.09
  -3  -8   1    1.35    0.09
  -3  -8   1    1.28    0.08
  -3  -8   1    1.15    0.27
  -3  -8   1    1.46    0.09
  -3  -8   1    1.14    0.25
  -3  -8   1    1.23    0.12
   2   8  -1    1.96    0.11
   2   8  -1    1.82    0.11
   2   8  -1    2.17    0.11
  -2  -8   1    1.74    0.28
  -2  -8   1    2.06    0.11
  -2  -8   1    1.92    0.11
  -2  -8   1    1.91    0.13
  -2  -8   1    2.00    0.12
  -2  -8   1    1.95    0.07
  -2  -8   1    2.01    0.10
  -2  -8   1    2.01    0.07
  -2  -8   1    1.90    0.13
  -2  -8   1    2.00    0.10
  -2  -8   1    1.65    0.29
  -2  -8   1    1.81    0.09
   1   8  -1    1.75    0.10
   1   8  -1    1.58    0.10
   1   8  -1    1.75    0.10
  -1  -8   1    1.90    0.10
  -1  -8   1    1.77    0.06
  -1  -8   1    1.65    0.12
  -1  -8   1    1.73    0.11
  -1  -8   1    1.46    0.25
  -1  -8   1    1.78    0.09
  -1  -8   1    1.93    0.11
  -1  -8   1    1.64    0.27
  -1  -8   1    1.75    0.10
  -1  -8   1    1.56    0.09
  -1  -8   1    1.65    0.11
   0   8  -1    4.93    0.17
   0   8  -1    4.93    0.17
   0   8  -1    4.93    0.17
   0  -8   1    4.56    0.16
   0  -8   1    4.60    0.17
   0  -8   1    4.75    0.15
   0  -8   1    4.64    0.18
   0  -8   1    4.89    0.19
   0  -8   1    4.51    0.16
   0  -8   1    4.34    0.39
   0  -8   1    4.41    0.41
   0  -8   1    4.71    0.19
  -1   8  -1    9.18    0.26
  -1   8  -1    9.16    0.27
   1  -8   1    9.98    0.60
   1  -8   1    9.08    0.28
   1  -8   1    9.10    0.29
   1  -8   1    8.56    0.25
   1  -8   1    9.11    0.28
   1  -8   1    8.97    0.24
   1  -8   1    9.25    0.26
   1  -8   1    8.90    0.25
   1  -8   1    9.90    0.58
  -2   8  -1    9.61    0.27
   2  -8   1    9.56    0.25
   2  -8   1    9.68    0.29
   2  -8   1    8.90    0.28
   2  -8   1    9.54    0.30
   2  -8   1    8.69    0.58
   2  -8   1    8.83    0.59
   2  -8   1    9.08    0.26
   2  -8   1    9.23    0.27
   2  -8   1    9.69    0.27
  -3   8  -1    6.54    0.22
   3  -8   1    6.58    0.23
   3  -8   1    6.67    0.22
   3  -8   1    6.81    0.20
   3  -8   1    6.59    0.24
   3  -8   1    6.61    0.53
   3  -8   1    6.48    0.22
   3  -8   1    6.95    0.54
   3  -8   1    6.48    0.21
   3  -8   1    6.81    0.24
  -4   8  -1    0.13    0.06
   4  -8   1    0.15    0.06
   4  -8   1    0.14    0.06
   4  -8   1    0.19    0.16
   4  -8   1    0.13    0.05
   4  -8   1    0.18    0.05
   4  -8   1    0.10    0.05
   4  -8   1    0.15    0.06
   4  -8   1    0.13    0.14
  -5   8  -1    0.58    0.09
   5  -8   1    0.53    0.22
   5  -8   1    0.61    0.09
   5  -8   1    0.44    0.07
   5  -8   1    0.56    0.08
   5  -8   1    0.59    0.07
   5  -8   1    0.59    0.09
   5  -8   1    0.46    0.09
   5  -8   1    0.48    0.21
   8   7  -1    5.75    0.24
   8   7  -1    6.16    0.25
   8   7  -1    5.73    0.24
  -8  -7   1    5.70    0.23
  -8  -7   1    6.02    0.21
  -8  -7   1    5.66    0.23
  -8  -7   1    5.68    0.23
  -8  -7   1    6.23    0.24
  -8  -7   1    5.74    0.23
  -8  -7   1    5.72    0.23
  -8  -7   1    6.08    0.22
   7   7  -1    1.93    0.13
   7   7  -1    2.13    0.14
   7   7  -1    1.80    0.13
  -7  -7   1    1.76    0.13
  -7  -7   1    1.70    0.13
  -7  -7   1    2.05    0.12
  -7  -7   1    2.02    0.13
  -7  -7   1    1.87    0.13
  -7  -7   1    1.89    0.12
  -7  -7   1    1.84    0.11
  -7  -7   1    1.92    0.13
   6   7  -1    2.67    0.15
   6   7  -1    2.63    0.14
   6   7  -1    2.66    0.14
  -6  -7   1    2.43    0.13
  -6  -7   1    2.78    0.14
  -6  -7   1    2.78    0.14
  -6  -7   1    2.62    0.13
  -6  -7   1    2.16    0.37
  -6  -7   1    2.54    0.19
  -6  -7   1    2.81    0.14
  -6  -7   1    2.80    0.14
  -6  -7   1    2.57    0.13
  -6  -7   1    2.66    0.12
   5   7  -1    9.70    0.28
   5   7  -1    9.43    0.28
   5   7  -1    9.99    0.28
  -5  -7   1    9.76    0.27
  -5  -7   1    9.54    0.27
  -5  -7   1    9.51    0.26
  -5  -7   1    9.74    0.26
  -5  -7   1    9.39    0.34
  -5  -7   1    9.69    0.27
  -5  -7   1   10.17    0.35
  -5  -7   1   10.17    0.27
  -5  -7   1    9.55    0.27
  -5  -7   1    9.71    0.28
  -5  -7   1    9.66    0.67
  -5  -7   1    9.78    0.25
   4   7  -1    2.12    0.12
   4   7  -1    2.20    0.12
   4   7  -1    2.26    0.12
  -4  -7   1    2.43    0.11
  -4  -7   1    2.40    0.11
  -4  -7   1    1.93    0.31
  -4  -7   1    1.95    0.15
  -4  -7   1    1.89    0.14
  -4  -7   1    2.16    0.10
  -4  -7   1    2.16    0.09
  -4  -7   1    2.39    0.12
  -4  -7   1    1.87    0.30
  -4  -7   1    2.14    0.09
  -4  -7   1    2.17    0.10
  -4  -7   1    2.25    0.11
  -4  -7   1    2.15    0.11
  -4  -7   1    2.34    0.11
   3   7  -1    1.34    0.09
   3   7  -1    1.53    0.09
   3   7  -1    1.53    0.09
  -3  -7   1    1.47    0.08
  -3  -7   1    1.37    0.09
  -3  -7   1    1.41    0.08
  -3  -7   1    1.29    0.11
  -3  -7   1    1.54    0.07
  -3  -7   1    1.44    0.09
  -3  -7   1    1.63    0.09
  -3  -7   1    1.30    0.11
  -3  -7   1    1.42    0.07
  -3  -7   1    1.63    0.08
  -3  -7   1    1.47    0.09
  -3  -7   1    1.17    0.25
  -3  -7   1    1.58    0.09
  -3  -7   1    1.42    0.25
   2   7  -1    6.22    0.20
   2   7  -1    6.31    0.20
   2   7  -1    6.76    0.20
  -2  -7   1    6.59    0.19
  -2  -7   1    6.32    0.16
  -2  -7   1    6.23    0.19
  -2  -7   1    6.52    0.18
  -2  -7   1    6.78    0.24
  -2  -7   1    6.20    0.18
  -2  -7   1    6.30    0.20
  -2  -7   1    6.61    0.23
  -2  -7   1    6.57    0.17
  -2  -7   1    6.81    0.47
  -2  -7   1    6.48    0.20
  -2  -7   1    7.02    0.50
  -2  -7   1    6.63    0.16
   1   7  -1   10.55    0.27
   1   7  -1   10.75    0.27
   1   7  -1   10.31    0.27
  -1  -7   1   10.53    0.25
  -1  -7   1    9.92    0.57
  -1  -7   1    9.20    0.54
  -1  -7   1    9.99    0.29
  -1  -7   1   10.52    0.26
  -1  -7   1   10.32    0.29
  -1  -7   1    9.90    0.27
  -1  -7   1   10.35    0.25
  -1  -7   1   10.15    0.22
  -1  -7   1   10.40    0.26
  -1  -7   1   10.85    0.23
  -1  -7   1   10.38    0.30
   0   7  -1    9.57    0.25
   0   7  -1    9.41    0.25
   0   7  -1    9.55    0.25
   0  -7   1    9.33    0.23
   0  -7   1    9.07    0.25
   0  -7   1    9.74    0.28
   0  -7   1    9.42    0.24
   0  -7   1    9.66    0.20
   0  -7   1    9.33    0.27
   0  -7   1    9.23    0.25
   0  -7   1    9.98    0.56
   0  -7   1    9.70    0.28
   0  -7   1    9.26    0.53
  -1   7  -1    9.33    0.25
  -1   7  -1    9.11    0.25
   1  -7   1    9.29    0.27
   1  -7   1    8.97    0.24
   1  -7   1    9.60    0.19
   1  -7   1    8.75    0.54
   1  -7   1    9.04    0.27
   1  -7   1    8.18    0.51
   1  -7   1    9.01    0.24
   1  -7   1    9.01    0.24
   1  -7   1    8.50    0.26
   1  -7   1    9.25    0.23
  -2   7  -1   56.78    1.13
  -2   7  -1   54.77    1.13
   2  -7   1   57.13    1.16
   2  -7   1   57.37    1.11
   2  -7   1   55.50    1.16
   2  -7   1   55.91    1.64
   2  -7   1   54.05    1.12
   2  -7   1   53.50    1.12
   2  -7   1   54.08    1.15
   2  -7   1   54.38    1.12
   2  -7   1   57.56    1.67
  -3   7  -1    8.40    0.25
  -3   7  -1    8.89    0.26
   3  -7   1    8.51    0.27
   3  -7   1    8.73    0.25
   3  -7   1    8.02    0.56
   3  -7   1    8.50    0.25
   3  -7   1    8.64    0.24
   3  -7   1    9.06    0.28
   3  -7   1    8.19    0.55
   3  -7   1    9.13    0.23
  -4   7  -1    0.24    0.06
  -4   7  -1    0.19    0.06
   4  -7   1    0.15    0.05
   4  -7   1    0.14    0.05
   4  -7   1    0.10    0.13
   4  -7   1    0.17    0.15
   4  -7   1    0.20    0.06
   4  -7   1    0.17    0.06
   4  -7   1    0.17    0.05
   4  -7   1    0.20    0.06
  -5   7  -1   -0.08    0.04
   5  -7   1    0.05    0.05
   5  -7   1    0.01    0.12
   5  -7   1    0.03    0.05
   5  -7   1    0.01    0.04
   5  -7   1   -0.04    0.04
   5  -7   1   -0.02    0.05
   5  -7   1   -0.01    0.12
   5  -7   1   -0.04    0.04
  -6   7  -1    0.85    0.10
   6  -7   1    0.67    0.24
   6  -7   1    0.98    0.10
   6  -7   1    1.01    0.10
   6  -7   1    0.74    0.08
   6  -7   1    0.88    0.12
   6  -7   1    0.94    0.10
   6  -7   1    0.80    0.10
   9   6  -1    1.76    0.15
   9   6  -1    1.78    0.15
   9   6  -1    1.61    0.15
  -9  -6   1    1.79    0.15
  -9  -6   1    1.60    0.14
  -9  -6   1    1.68    0.14
  -9  -6   1    1.65    0.13
  -9  -6   1    1.49    0.12
  -9  -6   1    1.79    0.15
  -9  -6   1    1.68    0.14
  -9  -6   1    1.53    0.14
   8   6  -1    0.05    0.06
   8   6  -1    0.01    0.05
   8   6  -1   -0.06    0.05
  -8  -6   1   -0.03    0.05
  -8  -6   1    0.04    0.04
  -8  -6   1    0.05    0.05
  -8  -6   1   -0.01    0.05
  -8  -6   1   -0.03    0.05
  -8  -6   1   -0.06    0.05
  -8  -6   1    0.04    0.06
  -8  -6   1    0.03    0.05
   7   6  -1    0.79    0.09
   7   6  -1    0.57    0.08
   7   6  -1    0.77    0.09
  -7  -6   1    0.91    0.10
  -7  -6   1    0.73    0.08
  -7  -6   1    0.64    0.08
  -7  -6   1    0.90    0.10
  -7  -6   1    0.70    0.08
  -7  -6   1    0.79    0.09
  -7  -6   1    0.81    0.09
  -7  -6   1    0.68    0.08
   6   6  -1    2.70    0.14
   6   6  -1    2.55    0.13
   6   6  -1    2.54    0.14
  -6  -6   1    2.59    0.13
  -6  -6   1    2.55    0.13
  -6  -6   1    2.40    0.18
  -6  -6   1    2.60    0.12
  -6  -6   1    2.60    0.13
  -6  -6   1    2.53    0.13
  -6  -6   1    2.42    0.12
  -6  -6   1    1.79    0.34
  -6  -6   1    2.56    0.13
  -6  -6   1    2.47    0.13
   5   6  -1    0.27    0.06
   5   6  -1    0.34    0.06
   5   6  -1    0.36    0.06
   5   6  -1    0.27    0.05
  -5  -6   1    0.42    0.05
  -5  -6   1    0.29    0.07
  -5  -6   1    0.39    0.05
  -5  -6   1    0.43    0.07
  -5  -6   1    0.31    0.05
  -5  -6   1    0.53    0.20
  -5  -6   1    0.27    0.05
  -5  -6   1    0.45    0.06
  -5  -6   1    0.38    0.06
  -5  -6   1    0.27    0.05
  -5  -6   1    0.48    0.09
  -5  -6   1    0.39    0.06
   4   6  -1    4.44    0.16
   4   6  -1    4.26    0.16
   4   6  -1    4.27    0.16
   4   6  -1    4.34    0.14
  -4  -6   1    4.28    0.15
  -4  -6   1    4.89    0.43
  -4  -6   1    4.65    0.21
  -4  -6   1    4.47    0.14
  -4  -6   1    4.50    0.15
  -4  -6   1    4.63    0.15
  -4  -6   1    4.44    0.15
  -4  -6   1    4.73    0.15
  -4  -6   1    4.47    0.15
  -4  -6   1    4.71    0.21
  -4  -6   1    4.68    0.42
  -4  -6   1    4.83    0.14
  -4  -6   1    4.38    0.14
  -4  -6   1    4.05    0.15
   3   6  -1    3.44    0.13
   3   6  -1    3.30    0.13
   3   6  -1    3.54    0.12
   3   6  -1    3.45    0.13
  -3  -6   1    3.51    0.12
  -3  -6   1    3.38    0.11
  -3  -6   1    3.43    0.12
  -3  -6   1    3.29    0.12
  -3  -6   1    3.43    0.12
  -3  -6   1    3.22    0.12
  -3  -6   1    3.44    0.11
  -3  -6   1    3.13    0.12
  -3  -6   1    3.33    0.12
  -3  -6   1    3.42    0.12
  -3  -6   1    3.45    0.34
  -3  -6   1    3.43    0.16
  -3  -6   1    3.44    0.16
  -3  -6   1    3.49    0.34
   2   6  -1    0.73    0.06
   2   6  -1    0.65    0.06
   2   6  -1    0.64    0.05
   2   6  -1    0.70    0.06
  -2  -6   1    0.62    0.05
  -2  -6   1    0.66    0.05
  -2  -6   1    0.56    0.07
  -2  -6   1    0.53    0.16
  -2  -6   1    0.60    0.05
  -2  -6   1    0.55    0.05
  -2  -6   1    0.54    0.07
  -2  -6   1    0.61    0.05
  -2  -6   1    0.70    0.07
  -2  -6   1    0.62    0.06
  -2  -6   1    0.60    0.04
  -2  -6   1    0.49    0.05
  -2  -6   1    0.45    0.15
   1   6  -1    6.50    0.19
   1   6  -1    6.57    0.19
   1   6  -1    6.68    0.17
   1   6  -1    6.82    0.19
  -1  -6   1    6.90    0.19
  -1  -6   1    7.18    0.45
  -1  -6   1    6.87    0.42
  -1  -6   1    7.00    0.16
  -1  -6   1    6.90    0.22
  -1  -6   1    6.37    0.20
  -1  -6   1    6.82    0.18
  -1  -6   1    6.60    0.18
  -1  -6   1    6.66    0.18
  -1  -6   1    6.55    0.21
  -1  -6   1    6.83    0.16
  -1  -6   1    6.65    0.19
   0   6  -1    0.41    0.05
   0   6  -1    0.39    0.05
   0   6  -1    0.43    0.05
   0  -6   1    0.35    0.04
   0  -6   1    0.35    0.04
   0  -6   1    0.41    0.03
   0  -6   1    0.29    0.12
   0  -6   1    0.33    0.04
   0  -6   1    0.37    0.04
   0  -6   1    0.39    0.03
   0  -6   1    0.32    0.05
   0  -6   1    0.32    0.12
   0  -6   1    0.26    0.05
   0  -6   1    0.39    0.06
  -1   6  -1    5.53    0.17
  -1   6  -1    5.54    0.17
   1  -6   1    5.54    0.16
   1  -6   1    5.26    0.18
   1  -6   1    5.54    0.19
   1  -6   1    5.66    0.17
   1  -6   1    5.88    0.40
   1  -6   1    5.87    0.40
   1  -6   1    5.55    0.13
   1  -6   1    5.41    0.16
   1  -6   1    5.61    0.15
   1  -6   1    5.62    0.19
   1  -6   1    5.03    0.16
  -2   6  -1   30.08    0.63
  -2   6  -1   30.20    0.63
   2  -6   1   27.56    1.01
   2  -6   1   30.41    0.61
   2  -6   1   28.99    0.65
   2  -6   1   30.13    0.62
   2  -6   1   29.96    0.63
   2  -6   1   30.34    0.66
   2  -6   1   29.92    0.62
   2  -6   1   28.58    0.62
   2  -6   1   30.04    0.58
   2  -6   1   26.83    0.99
  -3   6  -1    0.41    0.06
  -3   6  -1    0.49    0.06
   3  -6   1    0.41    0.07
   3  -6   1    0.33    0.06
   3  -6   1    0.33    0.07
   3  -6   1    0.65    0.20
   3  -6   1    0.40    0.05
   3  -6   1    0.44    0.04
   3  -6   1    0.39    0.06
   3  -6   1    0.36    0.06
   3  -6   1    0.29    0.05
   3  -6   1    0.61    0.19
  -4   6  -1   37.36    0.79
  -4   6  -1   37.39    0.79
   4  -6   1   36.71    0.83
   4  -6   1   37.49    0.76
   4  -6   1   37.81    0.80
   4  -6   1   36.32    0.77
   4  -6   1   36.59    0.78
   4  -6   1   35.28    1.30
   4  -6   1   34.71    1.28
   4  -6   1   36.81    0.78
  -5   6  -1    1.53    0.11
  -5   6  -1    1.29    0.11
   5  -6   1    1.10    0.27
   5  -6   1    1.25    0.28
   5  -6   1    1.30    0.10
   5  -6   1    1.43    0.11
   5  -6   1    1.41    0.10
   5  -6   1    1.48    0.09
   5  -6   1    1.28    0.10
   5  -6   1    1.49    0.13
  -6   6  -1    0.15    0.06
  -6   6  -1    0.21    0.06
   6  -6   1    0.13    0.05
   6  -6   1    0.24    0.05
   6  -6   1    0.15    0.06
   6  -6   1    0.09    0.06
   6  -6   1    0.15    0.15
   6  -6   1    0.21    0.06
   6  -6   1    0.24    0.06
   6  -6   1    0.08    0.05
  -7   6  -1    1.03    0.11
   7  -6   1    1.22    0.12
   7  -6   1    1.04    0.10
   7  -6   1    1.15    0.11
   7  -6   1    1.20    0.14
   7  -6   1    1.19    0.11
   7  -6   1    1.05    0.12
   7  -6   1    1.21    0.33
   9   5  -1    0.52    0.09
   9   5  -1    0.37    0.08
   9   5  -1    0.39    0.09
  -9  -5   1    0.53    0.09
  -9  -5   1    0.46    0.09
  -9  -5   1    0.36    0.08
  -9  -5   1    0.57    0.10
  -9  -5   1    0.48    0.09
  -9  -5   1    0.46    0.08
  -9  -5   1    0.43    0.08
  -9  -5   1    0.45    0.09
   8   5  -1    6.70    0.24
   8   5  -1    6.61    0.25
   8   5  -1    6.87    0.25
  -8  -5   1    6.75    0.23
  -8  -5   1    6.57    0.24
  -8  -5   1    6.78    0.24
  -8  -5   1    6.94    0.24
  -8  -5   1    6.57    0.24
  -8  -5   1    7.18    0.25
  -8  -5   1    6.99    0.24
  -8  -5   1    6.45    0.23
   7   5  -1    3.07    0.16
   7   5  -1    3.22    0.16
   7   5  -1    3.53    0.15
   7   5  -1    3.27    0.16
  -7  -5   1    3.19    0.14
  -7  -5   1    3.25    0.16
  -7  -5   1    3.39    0.16
  -7  -5   1    3.41    0.15
  -7  -5   1    3.28    0.15
  -7  -5   1    3.24    0.15
  -7  -5   1    3.15    0.15
  -7  -5   1    3.03    0.14
   6   5  -1    2.45    0.13
   6   5  -1    2.35    0.12
   6   5  -1    2.37    0.13
   6   5  -1    2.70    0.12
  -6  -5   1    2.64    0.13
  -6  -5   1    2.38    0.13
  -6  -5   1    2.54    0.18
  -6  -5   1    2.56    0.13
  -6  -5   1    2.59    0.12
  -6  -5   1    2.41    0.12
  -6  -5   1    2.54    0.12
  -6  -5   1    2.76    0.38
  -6  -5   1    2.48    0.12
  -6  -5   1    2.48    0.12
   5   5  -1    5.40    0.18
   5   5  -1    5.33    0.18
   5   5  -1    5.57    0.17
   5   5  -1    5.36    0.18
  -5  -5   1    5.63    0.18
  -5  -5   1    5.14    0.17
  -5  -5   1    5.39    0.17
  -5  -5   1    5.32    0.47
  -5  -5   1    5.40    0.15
  -5  -5   1    5.03    0.23
  -5  -5   1    5.31    0.18
  -5  -5   1    5.67    0.18
  -5  -5   1    5.68    0.18
  -5  -5   1    5.01    0.23
  -5  -5   1    5.40    0.17
  -5  -5   1    5.40    0.17
  -5  -5   1    4.85    0.46
  -5  -5   1    5.61    0.17
   4   5  -1    4.66    0.15
   4   5  -1    4.76    0.14
   4   5  -1    4.71    0.16
   4   5  -1    4.69    0.15
   4   5  -1    4.47    0.15
  -4  -5   1    4.68    0.14
  -4  -5   1    4.66    0.15
  -4  -5   1    4.49    0.20
  -4  -5   1    4.55    0.15
  -4  -5   1    4.69    0.14
  -4  -5   1    4.73    0.15
  -4  -5   1    4.42    0.39
  -4  -5   1    4.62    0.13
  -4  -5   1    4.56    0.14
  -4  -5   1    4.71    0.14
  -4  -5   1    4.66    0.40
  -4  -5   1    4.66    0.15
  -4  -5   1    4.56    0.20
  -4  -5   1    4.84    0.15
  -4  -5   1    4.87    0.15
   3   5  -1    0.27    0.04
   3   5  -1    0.33    0.05
   3   5  -1    0.35    0.05
   3   5  -1    0.34    0.05
   3   5  -1    0.38    0.04
  -3  -5   1    0.32    0.04
  -3  -5   1    0.44    0.07
  -3  -5   1    0.60    0.18
  -3  -5   1    0.34    0.04
  -3  -5   1    0.48    0.15
  -3  -5   1    0.33    0.06
  -3  -5   1    0.38    0.04
  -3  -5   1    0.34    0.04
  -3  -5   1    0.43    0.05
  -3  -5   1    0.40    0.04
  -3  -5   1    0.37    0.04
  -3  -5   1    0.32    0.04
  -3  -5   1    0.40    0.04
  -3  -5   1    0.31    0.04
  -3  -5   1    0.29    0.04
   2   5  -1    0.64    0.06
   2   5  -1    0.67    0.05
   2   5  -1    0.73    0.05
   2   5  -1    0.63    0.05
   2   5  -1    0.81    0.06
  -2  -5   1    0.86    0.08
  -2  -5   1    0.67    0.05
  -2  -5   1    0.84    0.16
  -2  -5   1    0.95    0.18
  -2  -5   1    0.64    0.05
  -2  -5   1    0.83    0.05
  -2  -5   1    0.73    0.05
  -2  -5   1    0.72    0.05
  -2  -5   1    0.59    0.05
  -2  -5   1    0.77    0.05
  -2  -5   1    0.72    0.04
  -2  -5   1    0.80    0.07
  -2  -5   1    0.69    0.05
  -2  -5   1    0.74    0.05
  -2  -5   1    0.71    0.05
   1   5  -1   15.15    0.33
   1   5  -1   15.07    0.35
   1   5  -1   15.14    0.34
   1   5  -1   14.68    0.34
   1   5  -1   14.92    0.34
  -1  -5   1   15.25    0.34
  -1  -5   1   15.21    0.34
  -1  -5   1   16.53    0.38
  -1  -5   1   15.49    0.35
  -1  -5   1   15.54    0.32
  -1  -5   1   15.01    0.37
  -1  -5   1   14.88    0.34
  -1  -5   1   15.70    0.32
  -1  -5   1   16.09    0.62
  -1  -5   1   15.10    0.33
  -1  -5   1   14.59    0.33
  -1  -5   1   17.73    0.66
   0   5  -1   11.13    0.26
   0   5  -1   11.29    0.26
   0   5  -1   11.16    0.27
   0   5  -1   11.16    0.24
   0  -5   1   11.13    0.29
   0  -5   1   11.19    0.25
   0  -5   1   11.07    0.23
   0  -5   1   10.92    0.26
   0  -5   1   11.18    0.23
   0  -5   1   10.90    0.28
   0  -5   1   10.74    0.25
   0  -5   1   11.24    0.25
   0  -5   1   11.19    0.25
   0  -5   1   10.90    0.28
   0  -5   1   11.53    0.52
   0  -5   1   10.39    0.48
  -1   5  -1    1.27    0.07
  -1   5  -1    1.15    0.07
  -1   5  -1    1.15    0.05
  -1   5  -1    1.24    0.07
   1  -5   1    1.11    0.08
   1  -5   1    1.15    0.07
   1  -5   1    1.10    0.07
   1  -5   1    0.93    0.07
   1  -5   1    1.17    0.06
   1  -5   1    1.13    0.06
   1  -5   1    1.15    0.04
   1  -5   1    1.03    0.06
   1  -5   1    1.18    0.06
  -2   5  -1    1.99    0.09
  -2   5  -1    1.97    0.08
  -2   5  -1    1.97    0.09
   2  -5   1    1.95    0.10
   2  -5   1    1.88    0.08
   2  -5   1    1.78    0.23
   2  -5   1    2.04    0.09
   2  -5   1    1.87    0.11
   2  -5   1    1.83    0.08
   2  -5   1    1.69    0.23
   2  -5   1    1.95    0.09
   2  -5   1    1.93    0.09
   2  -5   1    2.01    0.06
  -3   5  -1    0.91    0.07
  -3   5  -1    0.96    0.07
   3  -5   1    0.97    0.07
   3  -5   1    1.19    0.21
   3  -5   1    0.98    0.07
   3  -5   1    1.19    0.22
   3  -5   1    1.03    0.09
   3  -5   1    1.01    0.07
   3  -5   1    0.98    0.07
   3  -5   1    0.99    0.07
   3  -5   1    0.84    0.08
   3  -5   1    0.92    0.05
  -4   5  -1   30.71    0.66
  -4   5  -1   29.88    0.65
   4  -5   1   29.76    0.63
   4  -5   1   30.17    0.64
   4  -5   1   30.48    0.66
   4  -5   1   30.16    0.64
   4  -5   1   30.62    0.70
   4  -5   1   31.03    1.11
   4  -5   1   30.15    1.12
   4  -5   1   29.39    0.65
   4  -5   1   30.52    0.63
   4  -5   1   29.40    0.65
  -5   5  -1    3.03    0.14
  -5   5  -1    3.07    0.14
   5  -5   1    2.52    0.33
   5  -5   1    3.13    0.18
   5  -5   1    2.82    0.35
   5  -5   1    2.89    0.14
   5  -5   1    2.90    0.13
   5  -5   1    3.19    0.13
   5  -5   1    2.67    0.36
   5  -5   1    2.87    0.13
   5  -5   1    3.22    0.14
   5  -5   1    3.42    0.13
  -6   5  -1    0.04    0.04
  -6   5  -1    0.01    0.04
   6  -5   1   -0.01    0.04
   6  -5   1    0.00    0.04
   6  -5   1    0.05    0.04
   6  -5   1   -0.02    0.05
   6  -5   1   -0.04    0.03
   6  -5   1   -0.02    0.04
   6  -5   1   -0.01    0.04
   6  -5   1    0.06    0.13
  -7   5  -1    4.11    0.19
  -7   5  -1    4.28    0.19
   7  -5   1    3.88    0.18
   7  -5   1    3.97    0.22
   7  -5   1    4.00    0.17
   7  -5   1    4.20    0.17
   7  -5   1    4.02    0.18
   7  -5   1    3.87    0.18
   7  -5   1    3.83    0.48
   9   4  -1    9.35    0.31
   9   4  -1    9.38    0.31
   9   4  -1    9.88    0.32
  -9  -4   1    9.17    0.31
  -9  -4   1    9.19    0.31
  -9  -4   1    9.44    0.30
  -9  -4   1    9.31    0.30
  -9  -4   1    9.26    0.30
  -9  -4   1    9.04    0.31
  -9  -4   1    9.24    0.31
  -9  -4   1    9.48    0.31
   8   4  -1    1.57    0.11
   8   4  -1    1.54    0.13
   8   4  -1    1.59    0.13
   8   4  -1    1.67    0.12
  -8  -4   1    1.72    0.12
  -8  -4   1    1.59    0.12
  -8  -4   1    1.71    0.13
  -8  -4   1    1.59    0.13
  -8  -4   1    1.39    0.12
  -8  -4   1    1.61    0.11
  -8  -4   1    1.59    0.12
  -8  -4   1    1.59    0.12
   7   4  -1    4.65    0.19
   7   4  -1    4.69    0.18
   7   4  -1    4.51    0.18
   7   4  -1    4.65    0.17
   7   4  -1    4.62    0.19
  -7  -4   1    4.63    0.18
  -7  -4   1    4.64    0.18
  -7  -4   1    4.53    0.17
  -7  -4   1    4.29    0.17
  -7  -4   1    4.40    0.18
  -7  -4   1    4.37    0.18
  -7  -4   1    4.18    0.17
  -7  -4   1    4.62    0.17
   6   4  -1   21.19    0.50
   6   4  -1   21.88    0.50
   6   4  -1   21.74    0.48
   6   4  -1   21.95    0.49
   6   4  -1   21.37    0.50
  -6  -4   1   21.27    0.49
  -6  -4   1   21.65    0.48
  -6  -4   1   21.31    0.49
  -6  -4   1   21.27    0.49
  -6  -4   1   21.81    0.49
  -6  -4   1   21.57    0.49
  -6  -4   1   19.99    0.98
  -6  -4   1   22.02    0.50
  -6  -4   1   20.95    0.59
  -6  -4   1   21.71    0.50
   5   4  -1    1.02    0.08
   5   4  -1    1.22    0.07
   5   4  -1    1.03    0.08
   5   4  -1    1.13    0.08
   5   4  -1    1.19    0.07
   5   4  -1    1.19    0.08
  -5  -4   1    1.06    0.08
  -5  -4   1    1.01    0.08
  -5  -4   1    1.18    0.07
  -5  -4   1    1.17    0.07
  -5  -4   1    1.16    0.08
  -5  -4   1    1.20    0.08
  -5  -4   1    1.37    0.26
  -5  -4   1    1.23    0.24
  -5  -4   1    1.24    0.05
  -5  -4   1    1.13    0.11
  -5  -4   1    1.05    0.07
  -5  -4   1    1.05    0.08
  -5  -4   1    1.15    0.08
   4   4  -1    0.68    0.06
   4   4  -1    0.73    0.06
   4   4  -1    0.67    0.06
   4   4  -1    0.65    0.06
   4   4  -1    0.79    0.06
   4   4  -1    0.71    0.05
   4   4  -1    0.74    0.06
   4   4  -1    0.57    0.06
  -4  -4   1    0.77    0.06
  -4  -4   1    0.75    0.06
  -4  -4   1    0.79    0.19
  -4  -4   1    0.75    0.06
  -4  -4   1    0.73    0.06
  -4  -4   1    0.83    0.06
  -4  -4   1    0.76    0.06
  -4  -4   1    1.00    0.21
  -4  -4   1    0.87    0.09
  -4  -4   1    0.80    0.06
  -4  -4   1    0.70    0.06
  -4  -4   1    0.81    0.06
  -4  -4   1    0.82    0.09
  -4  -4   1    0.74    0.06
  -4  -4   1    0.74    0.05
  -4  -4   1    0.79    0.06
   3   4  -1   21.26    0.45
   3   4  -1   21.05    0.45
   3   4  -1   19.92    0.48
   3   4  -1   21.52    0.44
   3   4  -1   20.66    0.45
   3   4  -1   21.68    0.44
  -3  -4   1   21.23    0.44
  -3  -4   1   20.41    0.78
  -3  -4   1   21.04    0.44
  -3  -4   1   21.67    0.45
  -3  -4   1   21.62    0.45
  -3  -4   1   21.52    0.45
  -3  -4   1   22.07    0.45
  -3  -4   1   21.32    0.45
  -3  -4   1   19.75    0.77
  -3  -4   1   21.74    0.44
  -3  -4   1   20.43    0.50
  -3  -4   1   21.19    0.45
  -3  -4   1   21.11    0.51
  -3  -4   1   21.07    0.44
  -3  -4   1   21.16    0.45
  -3  -4   1   21.16    0.44
   2   4  -1    0.30    0.03
   2   4  -1    0.31    0.04
   2   4  -1    0.28    0.04
   2   4  -1    0.24    0.03
   2   4  -1    0.33    0.04
  -2  -4   1    0.29    0.04
  -2  -4   1    0.31    0.05
  -2  -4   1    0.25    0.03
  -2  -4   1    0.44    0.06
  -2  -4   1    0.29    0.03
  -2  -4   1    0.25    0.03
  -2  -4   1    0.26    0.03
  -2  -4   1    0.22    0.03
  -2  -4   1    0.48    0.13
  -2  -4   1    0.24    0.03
  -2  -4   1    0.30    0.04
  -2  -4   1    0.36    0.03
  -2  -4   1    0.33    0.03
  -2  -4   1    0.28    0.03
  -2  -4   1    0.22    0.09
   1   4  -1    2.44    0.09
   1   4  -1    2.48    0.09
   1   4  -1    2.29    0.07
   1   4  -1    2.30    0.08
   1   4  -1    2.37    0.08
  -1  -4   1    2.53    0.09
  -1  -4   1    2.38    0.07
  -1  -4   1    2.34    0.07
  -1  -4   1    2.30    0.08
  -1  -4   1    2.56    0.08
  -1  -4   1    2.63    0.07
  -1  -4   1    2.30    0.08
  -1  -4   1    2.38    0.08
  -1  -4   1    2.51    0.08
  -1  -4   1    2.63    0.10
   0   4  -1    0.54    0.04
   0   4  -1    0.50    0.04
   0   4  -1    0.55    0.05
   0   4  -1    0.49    0.04
   0  -4   1    0.45    0.04
   0  -4   1    0.58    0.06
   0  -4   1    0.51    0.04
   0  -4   1    0.51    0.03
   0  -4   1    0.49    0.02
   0  -4   1    0.46    0.04
   0  -4   1    0.49    0.04
   0  -4   1    0.50    0.05
   0  -4   1    0.51    0.05
  -1   4  -1    3.93    0.11
  -1   4  -1    3.83    0.11
  -1   4  -1    3.97    0.12
  -1   4  -1    3.80    0.10
   1  -4   1    3.83    0.11
   1  -4   1    4.09    0.11
   1  -4   1    3.76    0.11
   1  -4   1    3.80    0.13
   1  -4   1    3.92    0.11
   1  -4   1    3.98    0.09
   1  -4   1    3.75    0.13
   1  -4   1    3.68    0.11
   1  -4   1    3.08    0.25
  -2   4  -1   17.79    0.38
  -2   4  -1   17.47    0.36
  -2   4  -1   17.08    0.38
  -2   4  -1   17.39    0.38
   2  -4   1   16.95    0.65
   2  -4   1   17.22    0.37
   2  -4   1   17.47    0.37
   2  -4   1   17.54    0.41
   2  -4   1   17.51    0.38
   2  -4   1   17.48    0.37
   2  -4   1   17.68    0.35
   2  -4   1   17.46    0.39
   2  -4   1   17.40    0.38
   2  -4   1   17.02    0.65
  -3   4  -1    6.75    0.19
  -3   4  -1    6.68    0.17
  -3   4  -1    6.43    0.18
   3  -4   1    6.84    0.19
   3  -4   1    6.63    0.18
   3  -4   1    6.88    0.16
   3  -4   1    6.71    0.19
   3  -4   1    7.52    0.45
   3  -4   1    6.77    0.18
   3  -4   1    6.56    0.18
   3  -4   1    7.02    0.22
   3  -4   1    6.68    0.18
   3  -4   1    6.64    0.18
   3  -4   1    7.29    0.42
  -4   4  -1   18.92    0.43
  -4   4  -1   18.77    0.42
  -4   4  -1   19.57    0.41
  -4   4  -1   18.65    0.43
   4  -4   1   18.72    0.42
   4  -4   1   18.30    0.42
   4  -4   1   18.69    0.41
   4  -4   1   19.43    0.43
   4  -4   1   18.12    0.79
   4  -4   1   18.56    0.81
   4  -4   1   18.37    0.42
   4  -4   1   18.67    0.48
   4  -4   1   18.50    0.42
   4  -4   1   18.56    0.80
   4  -4   1   18.38    0.41
  -5   4  -1   16.99    0.41
  -5   4  -1   16.83    0.41
  -5   4  -1   17.31    0.43
   5  -4   1   17.07    0.40
   5  -4   1   16.87    0.40
   5  -4   1   17.67    0.40
   5  -4   1   17.83    0.84
   5  -4   1   17.04    0.38
   5  -4   1   18.21    0.85
   5  -4   1   17.16    0.41
   5  -4   1   16.74    0.41
   5  -4   1   17.98    0.48
   5  -4   1   17.59    0.42
   5  -4   1   16.97    0.40
  -6   4  -1   13.19    0.35
  -6   4  -1   13.21    0.35
  -6   4  -1   13.13    0.36
   6  -4   1   12.55    0.34
   6  -4   1   12.54    0.33
   6  -4   1   13.05    0.33
   6  -4   1   13.23    0.33
   6  -4   1   13.32    0.77
   6  -4   1   12.76    0.33
   6  -4   1   13.19    0.34
   6  -4   1   12.75    0.41
   6  -4   1   12.74    0.31
  -7   4  -1    1.03    0.11
  -7   4  -1    1.04    0.10
  -7   4  -1    1.06    0.10
   7  -4   1    1.13    0.30
   7  -4   1    1.18    0.14
   7  -4   1    1.14    0.08
   7  -4   1    1.19    0.11
   7  -4   1    1.10    0.10
   7  -4   1    1.02    0.09
   7  -4   1    1.23    0.10
   7  -4   1    1.19    0.10
  -8   4  -1    0.01    0.06
  -8   4  -1    0.09    0.06
  -8   4  -1    0.01    0.06
   8  -4   1    0.07    0.05
   8  -4   1    0.02    0.05
   8  -4   1    0.09    0.06
   8  -4   1   -0.03    0.05
   8  -4   1    0.07    0.04
   8  -4   1    0.04    0.05
   9   3  -1    0.58    0.09
   9   3  -1    0.69    0.09
   9   3  -1    0.65    0.09
   9   3  -1    0.59    0.09
   9   3  -1    0.68    0.10
  -9  -3   1    0.71    0.09
  -9  -3   1    0.90    0.11
  -9  -3   1    0.69    0.09
  -9  -3   1    0.69    0.10
  -9  -3   1    0.54    0.09
   8   3  -1    0.32    0.07
   8   3  -1    0.30    0.07
   8   3  -1    0.23    0.07
   8   3  -1    0.31    0.07
   8   3  -1    0.23    0.06
  -8  -3   1    0.20    0.06
  -8  -3   1    0.22    0.06
  -8  -3   1    0.15    0.06
  -8  -3   1    0.28    0.07
  -8  -3   1    0.34    0.07
  -8  -3   1    0.35    0.07
  -8  -3   1    0.30    0.07
  -8  -3   1    0.27    0.06
   7   3  -1    2.67    0.13
   7   3  -1    2.68    0.13
   7   3  -1    2.69    0.14
   7   3  -1    2.70    0.13
   7   3  -1    2.65    0.13
  -7  -3   1    2.50    0.13
  -7  -3   1    2.51    0.13
  -7  -3   1    2.70    0.13
  -7  -3   1    2.37    0.13
  -7  -3   1    2.41    0.13
  -7  -3   1    2.66    0.13
  -7  -3   1    2.90    0.14
  -7  -3   1    2.62    0.13
   6   3  -1    0.15    0.04
   6   3  -1    0.18    0.05
   6   3  -1    0.23    0.05
   6   3  -1    0.11    0.04
   6   3  -1    0.22    0.05
   6   3  -1    0.15    0.04
   6   3  -1    0.18    0.05
  -6  -3   1    0.19    0.05
  -6  -3   1    0.14    0.04
  -6  -3   1    0.16    0.04
  -6  -3   1    0.17    0.05
  -6  -3   1    0.24    0.05
  -6  -3   1    0.15    0.04
  -6  -3   1    0.45    0.19
  -6  -3   1    0.22    0.05
  -6  -3   1    0.15    0.04
   5   3  -1    0.06    0.03
   5   3  -1    0.02    0.03
   5   3  -1    0.01    0.03
   5   3  -1    0.04    0.03
   5   3  -1    0.09    0.03
   5   3  -1    0.06    0.03
   5   3  -1    0.07    0.03
   5   3  -1    0.01    0.03
  -5  -3   1    0.08    0.11
  -5  -3   1    0.07    0.03
  -5  -3   1    0.10    0.04
  -5  -3   1    0.06    0.03
  -5  -3   1    0.03    0.03
  -5  -3   1    0.01    0.03
  -5  -3   1    0.01    0.03
  -5  -3   1   -0.01    0.02
  -5  -3   1    0.00    0.03
  -5  -3   1    0.03    0.10
  -5  -3   1    0.07    0.05
  -5  -3   1    0.05    0.03
  -5  -3   1    0.05    0.01
  -5  -3   1    0.04    0.03
  -5  -3   1    0.07    0.04
   4   3  -1   48.41    0.96
   4   3  -1   48.43    0.97
   4   3  -1   49.52    0.97
   4   3  -1   49.36    0.96
   4   3  -1   49.20    0.96
   4   3  -1   47.78    0.97
   4   3  -1   49.84    0.97
   4   3  -1   49.19    0.97
  -4  -3   1   47.93    0.97
  -4  -3   1   47.93    1.42
  -4  -3   1   47.38    0.96
  -4  -3   1   49.09    0.93
  -4  -3   1   49.42    0.97
  -4  -3   1   48.81    0.97
  -4  -3   1   49.73    0.97
  -4  -3   1   48.41    0.96
  -4  -3   1   48.55    0.96
  -4  -3   1   47.79    0.96
  -4  -3   1   48.57    1.04
  -4  -3   1   48.48    0.97
  -4  -3   1   47.82    1.04
  -4  -3   1   47.23    1.41
  -4  -3   1   47.53    0.96
   3   3  -1   34.94    0.72
   3   3  -1   34.86    0.72
   3   3  -1   34.85    0.72
   3   3  -1   35.77    0.71
   3   3  -1   35.58    0.71
  -3  -3   1   34.71    0.71
  -3  -3   1   35.24    0.71
  -3  -3   1   34.56    0.71
  -3  -3   1   35.09    0.71
  -3  -3   1   35.93    0.70
  -3  -3   1   37.15    0.72
  -3  -3   1   35.24    0.71
  -3  -3   1   36.82    0.71
  -3  -3   1   35.28    0.71
  -3  -3   1   35.39    0.72
  -3  -3   1   36.53    1.07
  -3  -3   1   34.70    0.77
  -3  -3   1   39.35    1.10
  -3  -3   1   37.21    0.72
  -3  -3   1   36.58    0.77
  -3  -3   1   35.80    0.72
   2   3  -1    7.84    0.18
   2   3  -1    7.70    0.19
   2   3  -1    7.65    0.18
   2   3  -1    7.99    0.18
   2   3  -1    7.60    0.17
  -2  -3   1    7.65    0.38
  -2  -3   1    7.79    0.18
  -2  -3   1    7.36    0.21
  -2  -3   1    7.73    0.17
  -2  -3   1    7.66    0.18
  -2  -3   1    7.58    0.18
  -2  -3   1    7.58    0.18
  -2  -3   1    7.72    0.18
  -2  -3   1    7.79    0.18
  -2  -3   1    8.11    0.18
  -2  -3   1    7.69    0.18
  -2  -3   1    7.83    0.18
  -2  -3   1    7.69    0.18
  -2  -3   1    6.95    0.36
  -2  -3   1    7.66    0.21
  -2  -3   1    7.52    0.17
   1   3  -1    7.41    0.17
   1   3  -1    7.64    0.17
   1   3  -1    7.78    0.18
   1   3  -1    7.26    0.18
   1   3  -1    7.52    0.17
  -1  -3   1    7.44    0.17
  -1  -3   1    8.45    0.20
  -1  -3   1    7.34    0.18
  -1  -3   1    7.87    0.18
  -1  -3   1    7.57    0.19
  -1  -3   1    8.48    0.35
  -1  -3   1    7.48    0.17
  -1  -3   1    8.03    0.16
  -1  -3   1    7.41    0.16
  -1  -3   1    7.34    0.17
  -1  -3   1    7.53    0.17
  -1  -3   1    7.55    0.16
  -1  -3   1    7.57    0.17
   0   3  -1   51.01    0.98
   0   3  -1   51.44    0.98
   0   3  -1   50.94    0.97
   0   3  -1   49.98    0.98
   0  -3   1   50.49    0.99
   0  -3   1   51.61    1.00
   0  -3   1   50.10    0.97
   0  -3   1   50.79    0.99
   0  -3   1   51.25    0.97
   0  -3   1   51.47    1.18
   0  -3   1   50.27    0.96
   0  -3   1   52.75    1.20
   0  -3   1   50.81    0.97
   0  -3   1   50.38    0.98
   0  -3   1   51.53    0.98
  -1   3  -1   22.26    0.46
  -1   3  -1   22.69    0.46
  -1   3  -1   22.77    0.46
  -1   3  -1   22.72    0.45
   1  -3   1   22.51    0.46
   1  -3   1   23.95    0.67
   1  -3   1   23.11    0.46
   1  -3   1   23.19    0.48
   1  -3   1   24.05    0.68
   1  -3   1   22.73    0.46
   1  -3   1   22.83    0.48
   1  -3   1   22.68    0.46
   1  -3   1   22.90    0.45
   1  -3   1   22.60    0.44
  -2   3  -1   36.96    0.74
  -2   3  -1   37.07    0.75
  -2   3  -1   36.84    0.74
  -2   3  -1   36.95    0.73
   2  -3   1   37.60    0.74
   2  -3   1   39.00    1.05
   2  -3   1   37.58    0.72
   2  -3   1   37.13    0.74
   2  -3   1   38.16    0.75
   2  -3   1   37.91    0.73
   2  -3   1   37.51    0.73
   2  -3   1   36.92    0.75
   2  -3   1   37.26    1.01
   2  -3   1   38.52    0.78
   2  -3   1   36.72    0.74
  -3   3  -1   95.74    1.87
  -3   3  -1   98.42    1.85
  -3   3  -1  100.16    1.85
  -3   3  -1   95.39    1.86
  -3   3  -1   98.34    1.87
   3  -3   1   96.19    1.86
   3  -3   1   96.77    1.86
   3  -3   1   96.39    1.86
   3  -3   1   95.54    2.26
   3  -3   1   97.38    1.87
   3  -3   1   97.02    1.91
   3  -3   1   97.50    1.86
   3  -3   1  100.69    2.31
   3  -3   1   94.57    1.86
   3  -3   1   99.26    1.87
   3  -3   1   97.08    1.84
   3  -3   1   96.07    1.84
  -4   3  -1    3.23    0.12
  -4   3  -1    3.33    0.11
  -4   3  -1    3.03    0.10
  -4   3  -1    3.13    0.12
  -4   3  -1    2.93    0.11
   4  -3   1    3.21    0.31
   4  -3   1    3.37    0.31
   4  -3   1    3.05    0.12
   4  -3   1    3.00    0.10
   4  -3   1    3.14    0.11
   4  -3   1    3.22    0.15
   4  -3   1    3.12    0.11
   4  -3   1    3.10    0.12
   4  -3   1    2.75    0.11
   4  -3   1    2.93    0.11
   4  -3   1    2.96    0.11
  -5   3  -1   16.36    0.39
  -5   3  -1   16.87    0.40
  -5   3  -1   16.34    0.39
  -5   3  -1   16.47    0.37
  -5   3  -1   16.09    0.37
   5  -3   1   16.55    0.39
   5  -3   1   15.58    0.37
   5  -3   1   16.22    0.37
   5  -3   1   16.02    0.36
   5  -3   1   16.11    0.38
   5  -3   1   15.07    0.76
   5  -3   1   16.13    0.38
   5  -3   1   16.74    0.37
   5  -3   1   15.94    0.44
   5  -3   1   14.73    0.75
   5  -3   1   16.41    0.37
  -6   3  -1    4.72    0.18
  -6   3  -1    4.76    0.16
  -6   3  -1    4.81    0.18
  -6   3  -1    4.72    0.18
   6  -3   1    4.72    0.18
   6  -3   1    4.78    0.17
   6  -3   1    4.79    0.17
   6  -3   1    4.71    0.15
   6  -3   1    4.72    0.17
   6  -3   1    4.77    0.18
   6  -3   1    4.58    0.46
   6  -3   1    4.67    0.15
   6  -3   1    4.69    0.16
   6  -3   1    4.74    0.23
  -7   3  -1    2.06    0.13
  -7   3  -1    1.93    0.12
  -7   3  -1    2.04    0.13
  -7   3  -1    2.06    0.13
   7  -3   1    1.99    0.12
   7  -3   1    2.22    0.37
   7  -3   1    2.08    0.13
   7  -3   1    1.89    0.16
   7  -3   1    2.00    0.11
   7  -3   1    2.15    0.15
   7  -3   1    2.02    0.12
   7  -3   1    2.07    0.12
   7  -3   1    2.12    0.17
   7  -3   1    2.00    0.10
  -8   3  -1    1.61    0.13
  -8   3  -1    1.50    0.12
  -8   3  -1    1.57    0.13
  -8   3  -1    1.70    0.13
   8  -3   1    1.76    0.12
   8  -3   1    1.77    0.10
   8  -3   1    1.75    0.12
   8  -3   1    1.55    0.16
   8  -3   1    1.63    0.13
   8  -3   1    1.77    0.13
   8  -3   1    1.76    0.12
   9   2  -1    0.66    0.10
   9   2  -1    0.61    0.09
   9   2  -1    0.60    0.09
   9   2  -1    0.51    0.09
   9   2  -1    0.52    0.08
  -9  -2   1    0.65    0.09
  -9  -2   1    0.67    0.10
  -9  -2   1    0.67    0.09
  -9  -2   1    0.52    0.09
  -9  -2   1    0.54    0.09
   8   2  -1    1.25    0.10
   8   2  -1    1.06    0.10
   8   2  -1    1.22    0.11
   8   2  -1    1.45    0.11
   8   2  -1    1.40    0.11
  -8  -2   1    1.40    0.12
  -8  -2   1    1.38    0.12
  -8  -2   1    1.41    0.11
  -8  -2   1    1.42    0.11
  -8  -2   1    1.21    0.11
  -8  -2   1    1.10    0.10
  -8  -2   1    1.29    0.11
  -8  -2   1    1.23    0.10
   7   2  -1   15.57    0.39
   7   2  -1   15.87    0.40
   7   2  -1   15.02    0.40
   7   2  -1   15.74    0.39
   7   2  -1   16.09    0.40
   7   2  -1   15.86    0.40
   7   2  -1   15.45    0.39
  -7  -2   1   15.56    0.40
  -7  -2   1   15.81    0.39
  -7  -2   1   15.33    0.39
  -7  -2   1   15.91    0.40
  -7  -2   1   15.88    0.40
  -7  -2   1   16.05    0.39
  -7  -2   1   15.92    0.40
  -7  -2   1   15.53    0.39
   6   2  -1    0.08    0.04
   6   2  -1    0.06    0.03
   6   2  -1    0.18    0.05
   6   2  -1    0.12    0.04
   6   2  -1    0.13    0.04
   6   2  -1    0.14    0.04
   6   2  -1    0.12    0.04
  -6  -2   1    0.14    0.04
  -6  -2   1    0.14    0.04
  -6  -2   1    0.06    0.04
  -6  -2   1    0.08    0.03
  -6  -2   1    0.13    0.04
  -6  -2   1    0.10    0.04
  -6  -2   1    0.11    0.04
  -6  -2   1    0.15    0.04
  -6  -2   1    0.11    0.04
   5   2  -1    1.00    0.07
   5   2  -1    0.91    0.07
   5   2  -1    1.06    0.07
   5   2  -1    1.13    0.07
   5   2  -1    1.08    0.08
   5   2  -1    1.00    0.07
   5   2  -1    0.96    0.07
   5   2  -1    1.07    0.07
  -5  -2   1    0.81    0.20
  -5  -2   1    1.04    0.07
  -5  -2   1    0.94    0.10
  -5  -2   1    0.94    0.07
  -5  -2   1    1.08    0.07
  -5  -2   1    1.02    0.07
  -5  -2   1    0.83    0.10
  -5  -2   1    1.00    0.07
  -5  -2   1    0.99    0.07
  -5  -2   1    0.93    0.24
  -5  -2   1    1.04    0.07
  -5  -2   1    1.07    0.07
  -5  -2   1    0.92    0.07
   4   2  -1    0.06    0.02
   4   2  -1    0.15    0.03
   4   2  -1    0.06    0.03
   4   2  -1    0.09    0.03
   4   2  -1    0.07    0.03
   4   2  -1    0.19    0.03
   4   2  -1    0.06    0.03
   4   2  -1    0.12    0.03
  -4  -2   1    0.09    0.03
  -4  -2   1    0.11    0.03
  -4  -2   1    0.06    0.03
  -4  -2   1    0.13    0.03
  -4  -2   1    0.09    0.03
  -4  -2   1    0.19    0.05
  -4  -2   1    0.25    0.06
  -4  -2   1    0.09    0.03
  -4  -2   1    0.29    0.12
  -4  -2   1    0.06    0.03
  -4  -2   1    0.12    0.03
  -4  -2   1    0.08    0.03
  -4  -2   1    0.08    0.03
   3   2  -1   69.32    1.33
   3   2  -1   69.06    1.34
   3   2  -1   68.89    1.33
   3   2  -1   69.36    1.34
   3   2  -1   69.43    1.34
   3   2  -1   71.16    1.35
  -3  -2   1   69.85    1.34
  -3  -2   1   69.27    1.72
  -3  -2   1   67.55    1.33
  -3  -2   1   70.04    1.34
  -3  -2   1   69.01    1.34
  -3  -2   1   69.31    1.31
  -3  -2   1   69.65    1.34
  -3  -2   1   70.83    1.34
  -3  -2   1   67.92    1.33
  -3  -2   1   72.34    1.73
  -3  -2   1   70.25    1.34
  -3  -2   1   69.22    1.33
  -3  -2   1   68.72    1.40
  -3  -2   1   68.47    1.39
   2   2  -1    3.50    0.10
   2   2  -1    3.39    0.10
   2   2  -1    3.72    0.10
   2   2  -1    3.85    0.11
   2   2  -1    3.61    0.10
  -2  -2   1    3.66    0.10
  -2  -2   1    3.63    0.10
  -2  -2   1    4.07    0.11
  -2  -2   1    3.66    0.10
  -2  -2   1    3.43    0.10
  -2  -2   1    3.59    0.09
  -2  -2   1    3.68    0.13
  -2  -2   1    3.35    0.09
  -2  -2   1    3.47    0.10
  -2  -2   1    3.67    0.10
  -2  -2   1    3.90    0.10
  -2  -2   1    4.32    0.25
  -2  -2   1    4.01    0.10
  -2  -2   1    3.48    0.10
  -2  -2   1    4.30    0.13
   1   2  -1  161.07    2.98
   1   2  -1  155.28    2.97
   1   2  -1  155.88    2.95
   1   2  -1  152.02    2.95
   1   2  -1  157.05    2.97
  -1  -2   1  144.43    3.39
  -1  -2   1  158.20    2.95
  -1  -2   1  155.44    3.03
  -1  -2   1  157.59    2.98
  -1  -2   1  151.38    3.01
  -1  -2   1  150.76    2.95
  -1  -2   1  154.55    2.95
  -1  -2   1  156.01    2.96
  -1  -2   1  157.46    2.96
  -1  -2   1  170.43    3.05
  -1  -2   1  155.72    2.94
  -1  -2   1  154.58    2.95
  -1  -2   1  157.81    2.94
  -1  -2   1  159.60    3.25
  -1  -2   1  153.87    2.98
  -1  -2   1  156.49    2.96
   0   2  -1  130.54    2.47
   0   2  -1  129.00    2.48
   0   2  -1  131.79    2.49
   0  -2   1  128.68    2.48
   0  -2   1  132.92    2.82
   0  -2   1  130.88    2.49
   0  -2   1  127.28    2.47
   0  -2   1  132.60    2.47
   0  -2   1  130.59    2.50
   0  -2   1  130.98    2.48
   0  -2   1  136.32    2.86
   0  -2   1  129.39    2.50
   0  -2   1  130.59    2.50
  -1   2  -1  104.97    2.01
  -1   2  -1  104.89    2.01
  -1   2  -1  106.06    2.01
  -1   2  -1  103.89    2.01
  -1   2  -1  106.31    2.02
   1  -2   1  107.00    2.02
   1  -2   1  111.44    2.28
   1  -2   1  106.55    2.01
   1  -2   1  107.10    2.01
   1  -2   1  105.68    2.02
   1  -2   1  106.04    2.03
   1  -2   1  107.60    2.01
   1  -2   1  108.06    2.04
   1  -2   1  112.82    2.21
  -2   2  -1    0.17    0.02
  -2   2  -1    0.13    0.02
  -2   2  -1    0.14    0.02
  -2   2  -1    0.14    0.02
  -2   2  -1    0.15    0.03
   2  -2   1    0.13    0.02
   2  -2   1    0.15    0.03
   2  -2   1    0.10    0.02
   2  -2   1    0.16    0.02
   2  -2   1    0.13    0.02
   2  -2   1    0.15    0.02
   2  -2   1    0.20    0.04
   2  -2   1    0.14    0.03
   2  -2   1    0.13    0.02
   2  -2   1    0.14    0.02
   2  -2   1    0.24    0.09
   2  -2   1    0.18    0.07
  -3   2  -1   14.90    0.32
  -3   2  -1   15.13    0.32
  -3   2  -1   15.03    0.33
  -3   2  -1   15.07    0.33
  -3   2  -1   14.79    0.33
   3  -2   1   15.28    0.32
   3  -2   1   15.70    0.37
   3  -2   1   14.93    0.32
   3  -2   1   15.91    0.61
   3  -2   1   14.68    0.32
   3  -2   1   15.32    0.59
   3  -2   1   15.62    0.33
   3  -2   1   14.97    0.32
   3  -2   1   14.85    0.32
   3  -2   1   14.84    0.31
   3  -2   1   14.69    0.32
   3  -2   1   14.90    0.33
   3  -2   1   14.37    0.33
  -4   2  -1   15.49    0.34
  -4   2  -1   15.43    0.33
  -4   2  -1   15.05    0.34
  -4   2  -1   14.87    0.34
  -4   2  -1   15.10    0.34
  -4   2  -1   15.01    0.35
   4  -2   1   15.03    0.34
   4  -2   1   15.90    0.40
   4  -2   1   15.20    0.66
   4  -2   1   15.08    0.34
   4  -2   1   14.89    0.33
   4  -2   1   14.96    0.40
   4  -2   1   15.03    0.35
   4  -2   1   15.50    0.67
   4  -2   1   14.98    0.33
   4  -2   1   15.48    0.35
   4  -2   1   15.26    0.34
   4  -2   1   15.44    0.33
   4  -2   1   15.40    0.34
  -5   2  -1    1.64    0.08
  -5   2  -1    1.88    0.09
  -5   2  -1    1.92    0.10
  -5   2  -1    1.90    0.10
  -5   2  -1    1.84    0.09
  -5   2  -1    1.77    0.09
   5  -2   1    1.76    0.09
   5  -2   1    1.64    0.08
   5  -2   1    1.78    0.08
   5  -2   1    1.85    0.13
   5  -2   1    1.86    0.10
   5  -2   1    1.87    0.08
   5  -2   1    1.86    0.13
   5  -2   1    1.64    0.26
   5  -2   1    1.82    0.09
   5  -2   1    1.80    0.09
   5  -2   1    1.83    0.27
   5  -2   1    1.70    0.09
   5  -2   1    1.71    0.09
  -6   2  -1    9.43    0.27
  -6   2  -1    9.67    0.25
  -6   2  -1    9.52    0.27
  -6   2  -1    9.34    0.26
  -6   2  -1    9.27    0.25
   6  -2   1    9.61    0.27
   6  -2   1    9.46    0.33
   6  -2   1    9.30    0.26
   6  -2   1    9.17    0.25
   6  -2   1    9.19    0.27
   6  -2   1    9.53    0.23
   6  -2   1    9.42    0.24
   6  -2   1    9.19    0.26
   6  -2   1    9.78    0.26
   6  -2   1    9.36    0.63
   6  -2   1    9.36    0.25
   6  -2   1    9.49    0.33
  -7   2  -1    5.87    0.21
  -7   2  -1    6.09    0.20
  -7   2  -1    5.97    0.21
  -7   2  -1    5.86    0.22
   7  -2   1    5.55    0.26
   7  -2   1    5.97    0.20
   7  -2   1    6.22    0.21
   7  -2   1    5.93    0.20
   7  -2   1    5.30    0.53
   7  -2   1    6.06    0.21
   7  -2   1    5.79    0.18
   7  -2   1    6.08    0.20
   7  -2   1    6.09    0.21
   7  -2   1    6.08    0.20
  -8   2  -1    0.90    0.10
  -8   2  -1    1.33    0.11
  -8   2  -1    0.97    0.10
  -8   2  -1    1.14    0.12
   8  -2   1    1.06    0.11
   8  -2   1    1.09    0.10
   8  -2   1    1.02    0.10
   8  -2   1    0.83    0.09
   8  -2   1    1.10    0.10
   8  -2   1    1.09    0.10
   8  -2   1    1.01    0.16
   8  -2   1    1.08    0.09
  -9   2  -1    0.79    0.10
  -9   2  -1    0.84    0.10
  -9   2  -1    0.60    0.10
   9  -2   1    0.64    0.09
   9  -2   1    0.80    0.10
   9  -2   1    0.74    0.09
   9  -2   1    0.65    0.09
   9  -2   1    0.87    0.09
   9  -2   1    0.67    0.10
   9  -2   1    0.80    0.10
   9   1  -1    1.53    0.13
   9   1  -1    1.61    0.13
   9   1  -1    1.65    0.13
   9   1  -1    1.62    0.12
   9   1  -1    1.40    0.13
  -9  -1   1    1.59    0.13
  -9  -1   1    1.65    0.13
  -9  -1   1    1.63    0.13
  -9  -1   1    1.38    0.13
  -9  -1   1    1.51    0.14
   8   1  -1    0.11    0.05
   8   1  -1    0.20    0.06
   8   1  -1    0.12    0.05
   8   1  -1    0.12    0.05
   8   1  -1    0.15    0.06
  -8  -1   1    0.02    0.04
  -8  -1   1    0.21    0.06
  -8  -1   1    0.12    0.05
  -8  -1   1    0.10    0.06
  -8  -1   1    0.12    0.06
  -8  -1   1    0.27    0.07
   7   1  -1    2.85    0.13
   7   1  -1    2.70    0.13
   7   1  -1    2.79    0.13
   7   1  -1    2.81    0.14
   7   1  -1    2.61    0.13
   7   1  -1    2.82    0.14
   7   1  -1    2.58    0.13
  -7  -1   1    2.69    0.13
  -7  -1   1    2.75    0.14
  -7  -1   1    2.82    0.14
  -7  -1   1    2.61    0.14
  -7  -1   1    2.84    0.13
  -7  -1   1    2.52    0.13
  -7  -1   1    2.48    0.13
  -7  -1   1    2.74    0.13
  -7  -1   1    2.76    0.13
   6   1  -1    6.17    0.19
   6   1  -1    6.09    0.20
   6   1  -1    6.33    0.19
   6   1  -1    6.05    0.19
   6   1  -1    6.15    0.20
   6   1  -1    6.10    0.19
   6   1  -1    6.25    0.19
   6   1  -1    6.59    0.20
  -6  -1   1    5.99    0.19
  -6  -1   1    6.19    0.19
  -6  -1   1    5.93    0.19
  -6  -1   1    5.66    0.19
  -6  -1   1    6.29    0.19
  -6  -1   1    6.33    0.19
  -6  -1   1    6.24    0.19
  -6  -1   1    6.03    0.20
  -6  -1   1    6.46    0.20
  -6  -1   1    5.99    0.20
   5   1  -1    9.56    0.25
   5   1  -1    9.41    0.23
   5   1  -1    9.25    0.24
   5   1  -1    9.13    0.24
   5   1  -1    9.22    0.24
   5   1  -1    9.18    0.24
   5   1  -1    9.33    0.24
   5   1  -1    9.30    0.24
  -5  -1   1    9.16    0.24
  -5  -1   1    9.43    0.25
  -5  -1   1    9.36    0.31
  -5  -1   1    9.24    0.24
  -5  -1   1    9.13    0.58
  -5  -1   1    9.36    0.24
  -5  -1   1    8.92    0.24
  -5  -1   1    9.03    0.31
  -5  -1   1    8.79    0.24
  -5  -1   1    9.15    0.57
  -5  -1   1    8.90    0.24
  -5  -1   1    9.47    0.24
  -5  -1   1    9.09    0.24
   4   1  -1   81.55    1.55
   4   1  -1   78.97    1.56
   4   1  -1   81.34    1.56
   4   1  -1   79.69    1.56
   4   1  -1   79.72    1.55
   4   1  -1   78.96    1.56
   4   1  -1   80.61    1.56
   4   1  -1   82.41    1.56
  -4  -1   1   82.99    1.57
  -4  -1   1   83.48    2.06
  -4  -1   1   79.74    1.56
  -4  -1   1   80.83    1.56
  -4  -1   1   78.16    1.56
  -4  -1   1   81.60    1.64
  -4  -1   1   79.05    1.55
  -4  -1   1   77.68    1.55
  -4  -1   1   81.87    1.56
  -4  -1   1   85.97    2.10
  -4  -1   1   78.02    1.56
  -4  -1   1   78.59    1.55
   3   1  -1    8.96    0.21
   3   1  -1    9.03    0.21
   3   1  -1    9.08    0.21
   3   1  -1    9.36    0.21
   3   1  -1    8.91    0.21
   3   1  -1    9.06    0.21
   3   1  -1    9.29    0.21
  -3  -1   1    8.08    0.44
  -3  -1   1    9.05    0.21
  -3  -1   1    9.06    0.21
  -3  -1   1    9.19    0.21
  -3  -1   1    9.14    0.21
  -3  -1   1    9.18    0.21
  -3  -1   1    8.93    0.21
  -3  -1   1    9.11    0.21
  -3  -1   1    7.67    0.41
  -3  -1   1    9.05    0.21
  -3  -1   1    9.05    0.26
  -3  -1   1    9.13    0.21
  -3  -1   1    9.07    0.21
   2   1  -1   45.58    0.87
   2   1  -1   44.38    0.87
   2   1  -1   44.67    0.87
   2   1  -1   45.17    0.87
   2   1  -1   42.94    0.87
   2   1  -1   44.16    0.86
  -2  -1   1   44.44    0.87
  -2  -1   1   44.79    0.86
  -2  -1   1   48.91    1.13
  -2  -1   1   45.53    0.91
  -2  -1   1   44.93    0.87
  -2  -1   1   44.55    0.87
  -2  -1   1   43.66    0.86
  -2  -1   1   44.48    0.87
  -2  -1   1   45.75    0.87
  -2  -1   1   44.73    0.87
  -2  -1   1   44.04    0.87
  -2  -1   1   50.58    1.16
  -2  -1   1   46.81    0.91
  -2  -1   1   43.81    0.85
  -2  -1   1   42.85    0.87
   1   1  -1   89.76    1.70
   1   1  -1   91.41    1.71
   1   1  -1   89.53    1.70
   1   1  -1   90.51    1.72
  -1  -1   1   88.29    1.71
  -1  -1   1   89.30    1.73
  -1  -1   1   88.69    1.70
  -1  -1   1   96.91    1.92
  -1  -1   1   89.75    1.70
  -1  -1   1   92.02    1.71
  -1  -1   1   95.26    2.03
  -1  -1   1   88.63    1.71
  -1  -1   1   91.30    1.72
  -1  -1   1   88.27    1.70
  -1  -1   1   90.66    1.74
  -1  -1   1   88.86    1.75
  -1  -1   1   89.76    1.71
  -1  -1   1   90.06    1.70
  -1  -1   1   90.82    1.70
   0   1  -1    9.38    0.18
   0  -1   1    9.29    0.20
   0  -1   1    9.47    0.18
   0  -1   1    9.26    0.19
  -1   1  -1  314.42    6.05
  -1   1  -1  316.15    6.06
  -1   1  -1  325.05    6.06
  -1   1  -1  323.96    6.07
  -1   1  -1  325.89    6.04
   1  -1   1  317.66    6.10
   1  -1   1  311.37    6.65
   1  -1   1  327.31    6.04
   1  -1   1  326.40    6.05
   1  -1   1  320.60    6.06
   1  -1   1  313.94    6.07
   1  -1   1  328.86    6.66
   1  -1   1  323.14    6.66
   1  -1   1  325.75    6.04
   1  -1   1  321.32    6.09
  -2   1  -1  160.86    3.05
  -2   1  -1  161.16    3.07
  -2   1  -1  161.60    3.06
  -2   1  -1  160.70    3.04
  -2   1  -1  164.47    3.07
   2  -1   1  162.94    3.09
   2  -1   1  165.53    3.61
   2  -1   1  158.91    3.09
   2  -1   1  161.17    3.09
   2  -1   1  163.90    3.08
   2  -1   1  165.48    3.08
   2  -1   1  162.72    3.08
   2  -1   1  161.91    3.08
   2  -1   1  162.44    3.13
   2  -1   1  163.08    3.05
   2  -1   1  161.97    3.38
   2  -1   1  160.61    3.16
   2  -1   1  164.92    3.09
  -3   1  -1    8.91    0.21
  -3   1  -1    9.49    0.22
  -3   1  -1    9.08    0.21
  -3   1  -1    9.36    0.22
  -3   1  -1    8.82    0.21
  -3   1  -1    9.05    0.21
  -3   1  -1    8.94    0.21
   3  -1   1    9.89    0.44
   3  -1   1    9.02    0.21
   3  -1   1    9.53    0.21
   3  -1   1    8.69    0.21
   3  -1   1    9.26    0.21
   3  -1   1    9.82    0.26
   3  -1   1    8.98    0.21
   3  -1   1    9.15    0.22
   3  -1   1    9.35    0.25
   3  -1   1    9.06    0.21
   3  -1   1   10.34    0.45
   3  -1   1    9.26    0.21
   3  -1   1    9.24    0.22
  -4   1  -1   60.83    1.16
  -4   1  -1   59.81    1.16
  -4   1  -1   58.72    1.16
  -4   1  -1   59.27    1.17
  -4   1  -1   59.43    1.16
  -4   1  -1   59.24    1.16
  -4   1  -1   59.78    1.17
   4  -1   1   59.25    1.16
   4  -1   1   59.05    1.23
   4  -1   1   59.53    1.17
   4  -1   1   58.27    1.15
   4  -1   1   59.50    1.16
   4  -1   1   59.75    1.16
   4  -1   1   60.83    1.17
   4  -1   1   59.17    1.14
   4  -1   1   59.42    1.60
   4  -1   1   59.33    1.23
   4  -1   1   58.85    1.16
   4  -1   1   59.46    1.16
   4  -1   1   59.20    1.58
  -5   1  -1   11.63    0.29
  -5   1  -1   11.54    0.28
  -5   1  -1   11.42    0.28
  -5   1  -1   10.96    0.28
  -5   1  -1   10.88    0.28
  -5   1  -1   11.38    0.27
  -5   1  -1   11.02    0.28
  -5   1  -1   11.02    0.27
  -5   1  -1   10.90    0.27
   5  -1   1   11.37    0.25
   5  -1   1   10.95    0.27
   5  -1   1   11.06    0.28
   5  -1   1   11.50    0.29
   5  -1   1   11.52    0.28
   5  -1   1   12.52    0.65
   5  -1   1   10.88    0.27
   5  -1   1   11.77    0.62
   5  -1   1   11.33    0.34
   5  -1   1   11.18    0.28
   5  -1   1   11.42    0.28
   5  -1   1   11.13    0.27
   5  -1   1   11.17    0.34
  -6   1  -1    0.90    0.08
  -6   1  -1    1.01    0.09
  -6   1  -1    1.01    0.08
  -6   1  -1    0.96    0.08
  -6   1  -1    0.86    0.07
  -6   1  -1    0.71    0.08
  -6   1  -1    0.99    0.08
   6  -1   1    0.99    0.08
   6  -1   1    0.97    0.07
   6  -1   1    0.94    0.11
   6  -1   1    0.92    0.08
   6  -1   1    0.98    0.07
   6  -1   1    0.95    0.08
   6  -1   1    1.13    0.08
   6  -1   1    0.98    0.11
   6  -1   1    1.04    0.06
   6  -1   1    1.14    0.26
   6  -1   1    0.79    0.07
   6  -1   1    0.86    0.08
  -7   1  -1    1.58    0.10
  -7   1  -1    1.45    0.11
  -7   1  -1    1.48    0.10
  -7   1  -1    1.28    0.10
  -7   1  -1    1.55    0.11
  -7   1  -1    1.36    0.11
   7  -1   1    1.48    0.10
   7  -1   1    1.47    0.10
   7  -1   1    1.36    0.10
   7  -1   1    1.34    0.14
   7  -1   1    1.30    0.11
   7  -1   1    1.57    0.11
   7  -1   1    1.04    0.30
   7  -1   1    1.34    0.10
   7  -1   1    1.41    0.09
   7  -1   1    1.47    0.10
  -8   1  -1    1.93    0.13
  -8   1  -1    1.84    0.13
  -8   1  -1    2.02    0.12
  -8   1  -1    2.04    0.13
   8  -1   1    1.90    0.13
   8  -1   1    2.02    0.12
   8  -1   1    2.04    0.12
   8  -1   1    1.91    0.11
   8  -1   1    1.94    0.12
   8  -1   1    1.90    0.13
   8  -1   1    1.79    0.12
   8  -1   1    1.90    0.12
  -9   1  -1    0.08    0.06
  -9   1  -1    0.06    0.06
  -9   1  -1    0.04    0.06
   9  -1   1    0.06    0.05
   9  -1   1    0.19    0.06
   9  -1   1   -0.06    0.05
   9  -1   1    0.08    0.05
   9  -1   1    0.08    0.05
   9  -1   1    0.09    0.06
   9  -1   1    0.13    0.06
   9   0  -1    0.10    0.06
   9   0  -1    0.15    0.06
   9   0  -1    0.19    0.07
   9   0  -1    0.18    0.06
   9   0  -1    0.19    0.06
  -9   0   1    0.19    0.07
  -9   0   1    0.11    0.06
  -9   0   1   -0.01    0.05
  -9   0   1    0.15    0.06
  -9   0   1    0.10    0.06
   8   0  -1    0.00    0.04
   8   0  -1   -0.06    0.04
   8   0  -1   -0.03    0.05
   8   0  -1    0.01    0.04
   8   0  -1    0.00    0.05
   8   0  -1   -0.05    0.04
   8   0  -1   -0.09    0.04
  -8   0   1    0.02    0.04
  -8   0   1   -0.03    0.05
  -8   0   1    0.04    0.05
  -8   0   1   -0.01    0.04
  -8   0   1    0.00    0.05
   7   0  -1    2.35    0.13
   7   0  -1    2.57    0.14
   7   0  -1    2.45    0.12
   7   0  -1    2.43    0.12
   7   0  -1    2.39    0.12
   7   0  -1    2.54    0.13
   7   0  -1    2.42    0.13
   7   0  -1    2.50    0.13
  -7   0   1    2.50    0.13
  -7   0   1    2.28    0.12
  -7   0   1    2.47    0.13
  -7   0   1    2.37    0.13
  -7   0   1    2.34    0.12
  -7   0   1    2.37    0.13
  -7   0   1    2.22    0.12
   6   0  -1    7.72    0.22
   6   0  -1    7.54    0.23
   6   0  -1    7.84    0.22
   6   0  -1    7.53    0.22
   6   0  -1    7.95    0.22
   6   0  -1    7.31    0.22
   6   0  -1    7.31    0.22
   6   0  -1    7.88    0.23
  -6   0   1    7.52    0.22
  -6   0   1    8.07    0.23
  -6   0   1    7.40    0.22
  -6   0   1    7.61    0.23
  -6   0   1    7.91    0.23
  -6   0   1    7.76    0.22
  -6   0   1    7.74    0.22
  -6   0   1    7.67    0.23
  -6   0   1    7.55    0.23
   5   0  -1   10.91    0.27
   5   0  -1   10.52    0.27
   5   0  -1   10.92    0.27
   5   0  -1   10.78    0.38
   5   0  -1   10.48    0.27
   5   0  -1   10.92    0.27
   5   0  -1   11.28    0.28
   5   0  -1   10.46    0.27
   5   0  -1   10.91    0.27
  -5   0   1   10.71    0.27
  -5   0   1   11.11    0.27
  -5   0   1   10.80    0.63
  -5   0   1   11.06    0.28
  -5   0   1   10.78    0.27
  -5   0   1   11.19    0.35
  -5   0   1   10.99    0.28
  -5   0   1   10.77    0.28
  -5   0   1   11.51    0.27
  -5   0   1   10.85    0.27
  -5   0   1   10.81    0.28
   4   0  -1    4.59    0.14
   4   0  -1    4.47    0.14
   4   0  -1    4.66    0.14
   4   0  -1    4.70    0.14
   4   0  -1    4.44    0.13
   4   0  -1    4.81    0.14
   4   0  -1    4.78    0.14
  -4   0   1    4.41    0.14
  -4   0   1    4.44    0.14
  -4   0   1    4.66    0.14
  -4   0   1    4.64    0.14
  -4   0   1    4.32    0.14
  -4   0   1    4.65    0.14
  -4   0   1    4.89    0.37
  -4   0   1    4.46    0.13
  -4   0   1    4.65    0.15
  -4   0   1    4.73    0.14
  -4   0   1    4.57    0.14
   3   0  -1   20.43    0.42
   3   0  -1   20.47    0.42
   3   0  -1   20.20    0.42
   3   0  -1   20.24    0.42
   3   0  -1   19.95    0.42
   3   0  -1   20.08    0.42
   3   0  -1   20.68    0.42
   3   0  -1   19.83    0.42
  -3   0   1   19.81    0.42
  -3   0   1   20.61    0.42
  -3   0   1   20.29    0.42
  -3   0   1   20.14    0.42
  -3   0   1   20.48    0.42
  -3   0   1   19.86    0.42
  -3   0   1   19.88    0.71
  -3   0   1   20.29    0.42
  -3   0   1   20.19    0.42
  -3   0   1   20.46    0.43
   2   0  -1    6.00    0.14
   2   0  -1    5.74    0.14
   2   0  -1    5.86    0.14
   2   0  -1    5.95    0.14
   2   0  -1    5.90    0.14
  -2   0   1    6.00    0.15
  -2   0   1    5.98    0.14
  -2   0   1    5.72    0.14
  -2   0   1    5.78    0.14
  -2   0   1    5.91    0.14
  -2   0   1    5.91    0.14
  -2   0   1    5.93    0.14
  -2   0   1    6.00    0.14
  -2   0   1    5.70    0.14
   1   0  -1    0.39    0.02
   1   0  -1    0.38    0.03
   1   0  -1    0.42    0.03
   1   0  -1    0.42    0.03
   1   0  -1    0.42    0.02
  -1   0   1    0.43    0.03
  -1   0   1    0.44    0.03
  -1   0   1    0.41    0.02
  -1   0   1    0.41    0.08
  -1   0   1    0.46    0.03
  -1   0   1    0.43    0.03
  -1   0   1    0.44    0.03
  -1   0   1    0.43    0.02
  -1   0   1    0.42    0.03
   0   0  -1   64.64    1.21
   0   0   1   64.04    1.21
  -1   0  -1   48.30    0.91
  -1   0  -1   48.60    0.91
  -1   0  -1   47.88    0.92
  -1   0  -1   48.05    0.91
   1   0   1   49.56    0.91
   1   0   1   48.81    0.91
   1   0   1   46.88    0.91
   1   0   1   48.08    0.92
   1   0   1   48.06    1.01
   1   0   1   48.19    0.91
   1   0   1   47.30    1.00
   1   0   1   48.35    0.91
   1   0   1   49.05    0.92
   1   0   1   48.48    0.91
   1   0   1   48.74    0.91
  -2   0  -1  304.76    5.84
  -2   0  -1  310.28    5.85
  -2   0  -1  309.66    5.85
  -2   0  -1  301.88    5.86
  -2   0  -1  303.50    5.86
   2   0   1  313.52    5.83
   2   0   1  306.75    5.87
   2   0   1  308.72    5.99
   2   0   1  317.85    6.02
   2   0   1  317.09    5.86
   2   0   1  309.79    5.85
   2   0   1  303.48    5.84
   2   0   1  316.13    6.75
   2   0   1  308.01    5.87
   2   0   1  307.61    5.87
   2   0   1  302.74    6.79
   2   0   1  306.59    5.86
   2   0   1  310.40    5.85
  -3   0  -1   56.87    1.07
  -3   0  -1   54.40    1.08
  -3   0  -1   55.19    1.07
  -3   0  -1   56.67    1.08
  -3   0  -1   55.44    1.07
  -3   0  -1   55.87    1.08
   3   0   1   55.59    1.07
   3   0   1   55.73    1.07
   3   0   1   55.37    1.07
   3   0   1   54.26    1.12
   3   0   1   55.67    1.07
   3   0   1   56.31    1.12
   3   0   1   55.97    1.07
   3   0   1   55.93    1.05
   3   0   1   56.39    1.07
   3   0   1   54.31    1.38
   3   0   1   54.67    1.07
   3   0   1   55.25    1.08
   3   0   1   55.01    1.40
  -4   0  -1   42.05    0.84
  -4   0  -1   42.30    0.85
  -4   0  -1   42.77    0.86
  -4   0  -1   42.19    0.85
  -4   0  -1   44.14    0.85
  -4   0  -1   43.16    0.85
  -4   0  -1   42.85    0.85
  -4   0  -1   42.00    0.85
  -4   0  -1   42.37    0.85
   4   0   1   42.07    0.85
   4   0   1   42.74    0.91
   4   0   1   42.30    0.85
   4   0   1   41.98    0.84
   4   0   1   42.77    1.24
   4   0   1   43.06    0.81
   4   0   1   41.87    0.84
   4   0   1   42.18    0.84
   4   0   1   42.33    0.84
   4   0   1   43.86    1.28
   4   0   1   42.17    0.84
   4   0   1   42.71    0.84
   4   0   1   42.12    0.91
  -5   0  -1    0.92    0.07
  -5   0  -1    0.98    0.07
  -5   0  -1    1.09    0.07
  -5   0  -1    0.99    0.07
  -5   0  -1    1.02    0.08
  -5   0  -1    0.87    0.07
  -5   0  -1    0.99    0.07
  -5   0  -1    0.93    0.07
   5   0   1    1.01    0.07
   5   0   1    0.99    0.07
   5   0   1    1.01    0.07
   5   0   1    1.00    0.10
   5   0   1    1.06    0.07
   5   0   1    0.98    0.07
   5   0   1    0.99    0.10
   5   0   1    0.92    0.07
   5   0   1    0.84    0.06
   5   0   1    1.05    0.20
   5   0   1    0.81    0.21
   5   0   1    0.98    0.04
   5   0   1    0.98    0.06
  -6   0  -1   11.19    0.30
  -6   0  -1   11.38    0.30
  -6   0  -1   11.32    0.29
  -6   0  -1   11.83    0.31
  -6   0  -1   11.33    0.29
  -6   0  -1   11.19    0.29
  -6   0  -1   11.45    0.29
   6   0   1   11.18    0.29
   6   0   1   11.26    0.29
   6   0   1   11.15    0.30
   6   0   1   11.43    0.29
   6   0   1   11.59    0.30
   6   0   1   11.77    0.38
   6   0   1   11.40    0.28
   6   0   1   12.81    0.72
   6   0   1   11.46    0.29
   6   0   1   11.11    0.29
   6   0   1   11.54    0.37
  -7   0  -1   17.74    0.44
  -7   0  -1   18.03    0.44
  -7   0  -1   17.81    0.44
  -7   0  -1   17.94    0.43
  -7   0  -1   18.04    0.45
   7   0   1   17.98    0.43
   7   0   1   17.98    0.44
   7   0   1   18.25    0.43
   7   0   1   17.73    0.43
   7   0   1   17.65    0.43
   7   0   1   18.04    0.43
   7   0   1   17.80    0.42
   7   0   1   17.81    0.44
  -8   0  -1   15.16    0.41
  -8   0  -1   14.18    0.39
  -8   0  -1   14.35    0.39
  -8   0  -1   14.47    0.39
  -8   0  -1   14.64    0.38
   8   0   1   14.65    0.37
   8   0   1   14.29    0.40
   8   0   1   14.30    0.38
   8   0   1   14.64    0.38
   8   0   1   14.91    0.39
   8   0   1   14.37    0.38
   8   0   1   14.35    0.38
   8   0   1   14.93    0.39
  -9   0  -1    0.31    0.07
  -9   0  -1    0.34    0.08
  -9   0  -1    0.31    0.08
   9   0   1    0.40    0.07
   9   0   1    0.36    0.07
   9   0   1    0.44    0.08
   9   0   1    0.40    0.08
   9   0   1    0.30    0.07
   9   0   1    0.35    0.07
   9   0   1    0.36    0.08
   9   0   1    0.36    0.08
   9  -1  -1    0.38    0.08
   9  -1  -1    0.33    0.08
   9  -1  -1    0.30    0.07
   9  -1  -1    0.26    0.08
   9  -1  -1    0.32    0.08
  -9   1   1    0.33    0.08
  -9   1   1    0.29    0.07
  -9   1   1    0.28    0.08
  -9   1   1    0.23    0.08
  -9   1   1    0.29    0.07
   8  -1  -1    0.60    0.08
   8  -1  -1    0.39    0.07
   8  -1  -1    0.67    0.09
   8  -1  -1    0.54    0.08
   8  -1  -1    0.60    0.09
   8  -1  -1    0.47    0.07
   8  -1  -1    0.48    0.08
   8  -1  -1    0.68    0.09
  -8   1   1    0.64    0.08
  -8   1   1    0.62    0.08
  -8   1   1    0.63    0.09
  -8   1   1    0.52    0.08
  -8   1   1    0.56    0.08
  -8   1   1    0.65    0.08
   7  -1  -1    7.76    0.25
   7  -1  -1    8.20    0.25
   7  -1  -1    8.43    0.25
   7  -1  -1    7.75    0.24
   7  -1  -1    8.05    0.24
   7  -1  -1    7.96    0.26
   7  -1  -1    7.96    0.24
   7  -1  -1    8.43    0.26
  -7   1   1    8.37    0.25
  -7   1   1    7.61    0.25
  -7   1   1    8.31    0.25
  -7   1   1    8.40    0.26
  -7   1   1    7.71    0.25
   6  -1  -1    1.00    0.08
   6  -1  -1    0.82    0.08
   6  -1  -1    1.01    0.08
   6  -1  -1    0.97    0.08
   6  -1  -1    1.10    0.10
   6  -1  -1    1.06    0.08
   6  -1  -1    1.04    0.08
   6  -1  -1    1.11    0.09
  -6   1   1    1.08    0.08
  -6   1   1    0.99    0.08
  -6   1   1    1.07    0.09
  -6   1   1    1.04    0.08
  -6   1   1    0.99    0.08
  -6   1   1    1.05    0.08
  -6   1   1    0.98    0.08
  -6   1   1    1.08    0.09
  -6   1   1    1.12    0.09
   5  -1  -1   13.37    0.33
   5  -1  -1   13.43    0.32
   5  -1  -1   13.01    0.33
   5  -1  -1   13.52    0.32
   5  -1  -1   15.92    0.86
   5  -1  -1   13.48    0.33
   5  -1  -1   15.12    0.45
   5  -1  -1   13.86    0.32
   5  -1  -1   13.18    0.33
   5  -1  -1   12.92    0.40
   5  -1  -1   13.30    0.32
  -5   1   1   12.87    0.32
  -5   1   1   13.75    0.34
  -5   1   1   13.89    0.32
  -5   1   1   13.50    0.33
  -5   1   1   12.33    0.84
  -5   1   1   13.10    0.32
  -5   1   1   13.65    0.33
  -5   1   1   13.60    0.33
  -5   1   1   13.56    0.32
  -5   1   1   12.98    0.33
   4  -1  -1   51.79    1.02
   4  -1  -1   52.96    1.03
   4  -1  -1   52.90    1.02
   4  -1  -1   51.27    1.03
   4  -1  -1   50.97    1.03
   4  -1  -1   50.87    1.02
   4  -1  -1   51.57    1.03
   4  -1  -1   52.97    1.11
   4  -1  -1   51.78    1.02
   4  -1  -1   51.98    1.52
  -4   1   1   51.67    1.03
  -4   1   1   51.65    1.03
  -4   1   1   53.71    1.04
  -4   1   1   51.00    1.03
  -4   1   1   52.05    1.03
  -4   1   1   51.05    1.02
  -4   1   1   52.14    1.03
  -4   1   1   51.42    1.02
  -4   1   1   51.00    1.03
   3  -1  -1    9.70    0.22
   3  -1  -1    9.71    0.23
   3  -1  -1    9.90    0.22
   3  -1  -1    9.61    0.22
   3  -1  -1    9.71    0.23
   3  -1  -1    9.11    0.48
   3  -1  -1    9.64    0.23
   3  -1  -1    9.59    0.23
   3  -1  -1    9.75    0.22
  -3   1   1    9.56    0.23
  -3   1   1    9.51    0.23
  -3   1   1    9.21    0.22
  -3   1   1    9.23    0.23
  -3   1   1    9.53    0.23
  -3   1   1    9.99    0.23
  -3   1   1    9.57    0.22
  -3   1   1    9.51    0.22
   2  -1  -1    4.89    0.13
   2  -1  -1    5.15    0.12
   2  -1  -1    5.02    0.12
   2  -1  -1    5.11    0.13
   2  -1  -1    5.08    0.13
   2  -1  -1    5.01    0.13
   2  -1  -1    5.01    0.13
  -2   1   1    5.04    0.13
  -2   1   1    4.97    0.13
  -2   1   1    5.06    0.13
  -2   1   1    4.88    0.13
  -2   1   1    5.07    0.13
  -2   1   1    5.07    0.14
  -2   1   1    4.85    0.13
  -2   1   1    5.08    0.13
   1  -1  -1  104.55    1.94
   1  -1  -1  101.74    1.94
   1  -1  -1  105.50    1.96
   1  -1  -1  103.05    1.95
   1  -1  -1  103.10    1.94
   1  -1  -1  106.08    1.95
  -1   1   1  103.41    1.96
  -1   1   1  101.18    1.94
  -1   1   1  102.39    1.94
  -1   1   1  102.70    1.94
  -1   1   1  100.20    1.94
   0  -1  -1   68.86    1.34
   0  -1  -1   71.32    1.32
   0  -1  -1   72.76    1.34
   0  -1  -1   69.38    1.33
   0   1   1   67.89    1.34
   0   1   1   70.73    1.32
   0   1   1   70.71    1.34
   0   1   1   70.84    1.33
   0   1   1   70.34    1.32
   0   1   1   68.86    1.33
   0   1   1   72.37    1.61
  -1  -1  -1    0.11    0.02
  -1  -1  -1    0.05    0.02
  -1  -1  -1    0.08    0.02
  -1  -1  -1    0.10    0.02
   1   1   1    0.12    0.02
   1   1   1    0.10    0.02
   1   1   1    0.06    0.06
   1   1   1    0.09    0.02
   1   1   1    0.08    0.02
   1   1   1    0.05    0.05
   1   1   1    0.13    0.02
   1   1   1    0.09    0.02
   1   1   1    0.15    0.02
  -2  -1  -1   37.16    0.72
  -2  -1  -1   36.43    0.72
  -2  -1  -1   37.01    0.72
  -2  -1  -1   36.21    0.72
  -2  -1  -1   37.00    0.71
  -2  -1  -1   36.90    0.71
   2   1   1   35.87    0.94
   2   1   1   36.48    0.71
   2   1   1   36.86    0.72
   2   1   1   37.04    0.71
   2   1   1   37.35    0.72
   2   1   1   37.15    0.71
   2   1   1   36.93    0.71
   2   1   1   36.03    0.94
   2   1   1   37.51    0.71
   2   1   1   37.22    0.71
   2   1   1   36.96    0.75
  -3  -1  -1    2.17    0.08
  -3  -1  -1    2.07    0.08
  -3  -1  -1    2.15    0.08
  -3  -1  -1    1.95    0.08
  -3  -1  -1    2.06    0.07
   3   1   1    2.02    0.07
   3   1   1    2.00    0.07
   3   1   1    2.06    0.07
   3   1   1    2.11    0.08
   3   1   1    2.21    0.11
   3   1   1    2.06    0.08
   3   1   1    2.12    0.07
   3   1   1    2.01    0.10
   3   1   1    2.10    0.22
   3   1   1    2.61    0.26
   3   1   1    2.14    0.08
   3   1   1    1.97    0.08
  -4  -1  -1    4.96    0.15
  -4  -1  -1    5.40    0.14
  -4  -1  -1    5.19    0.15
  -4  -1  -1    5.39    0.16
  -4  -1  -1    5.10    0.14
  -4  -1  -1    5.20    0.15
  -4  -1  -1    5.34    0.15
  -4  -1  -1    5.02    0.15
   4   1   1    5.03    0.19
   4   1   1    5.07    0.15
   4   1   1    4.97    0.15
   4   1   1    5.21    0.15
   4   1   1    5.01    0.14
   4   1   1    5.05    0.14
   4   1   1    5.89    0.39
   4   1   1    5.02    0.14
   4   1   1    5.57    0.20
   4   1   1    5.87    0.40
   4   1   1    5.13    0.14
   4   1   1    5.09    0.15
  -5  -1  -1    0.05    0.03
  -5  -1  -1   -0.02    0.02
  -5  -1  -1    0.01    0.03
  -5  -1  -1    0.05    0.03
  -5  -1  -1    0.02    0.03
  -5  -1  -1    0.03    0.03
  -5  -1  -1   -0.03    0.02
  -5  -1  -1    0.03    0.03
  -5  -1  -1    0.01    0.02
  -5  -1  -1   -0.03    0.02
   5   1   1    0.05    0.03
   5   1   1    0.03    0.03
   5   1   1    0.03    0.02
   5   1   1    0.03    0.03
   5   1   1    0.01    0.03
   5   1   1    0.04    0.02
   5   1   1    0.03    0.04
   5   1   1    0.05    0.08
   5   1   1    0.04    0.03
   5   1   1    0.02    0.03
   5   1   1    0.02    0.02
   5   1   1    0.05    0.09
  -6  -1  -1    0.18    0.04
  -6  -1  -1    0.12    0.04
  -6  -1  -1    0.18    0.04
  -6  -1  -1    0.14    0.04
  -6  -1  -1    0.11    0.04
  -6  -1  -1    0.16    0.04
  -6  -1  -1    0.15    0.04
  -6  -1  -1    0.14    0.04
  -6  -1  -1    0.09    0.04
   6   1   1    0.23    0.14
   6   1   1    0.08    0.04
   6   1   1    0.12    0.06
   6   1   1    0.14    0.04
   6   1   1    0.13    0.04
   6   1   1    0.13    0.04
   6   1   1    0.14    0.04
   6   1   1    0.09    0.03
   6   1   1    0.14    0.06
   6   1   1    0.12    0.04
   6   1   1    0.06    0.03
  -7  -1  -1   -0.01    0.04
  -7  -1  -1   -0.04    0.03
  -7  -1  -1    0.03    0.04
  -7  -1  -1   -0.02    0.04
  -7  -1  -1   -0.09    0.04
  -7  -1  -1    0.02    0.04
   7   1   1   -0.05    0.04
   7   1   1    0.04    0.04
   7   1   1   -0.04    0.04
   7   1   1    0.04    0.04
   7   1   1    0.00    0.03
   7   1   1   -0.04    0.03
   7   1   1    0.02    0.04
   7   1   1    0.02    0.04
  -8  -1  -1   19.76    0.49
  -8  -1  -1   20.92    0.50
  -8  -1  -1   20.27    0.59
  -8  -1  -1   20.58    0.50
  -8  -1  -1   20.23    0.50
   8   1   1   19.67    0.48
   8   1   1   20.06    0.48
   8   1   1   19.95    0.50
   8   1   1   19.84    0.49
   8   1   1   20.15    0.49
   8   1   1   19.16    0.48
   8   1   1   19.92    0.49
   8   1   1   20.52    0.50
  -9  -1  -1    0.04    0.06
  -9  -1  -1   -0.03    0.05
  -9  -1  -1    0.02    0.05
   9   1   1   -0.03    0.05
   9   1   1    0.00    0.05
   9   1   1    0.08    0.05
   9   1   1    0.10    0.05
   9   1   1   -0.01    0.04
   9   1   1   -0.01    0.05
   9   1   1   -0.04    0.04
   9   1   1    0.06    0.04
   9  -2  -1    6.40    0.24
   9  -2  -1    7.01    0.25
   9  -2  -1    6.34    0.26
   9  -2  -1    6.35    0.24
   9  -2  -1    6.63    0.26
   9  -2  -1    6.57    0.25
   9  -2  -1    6.38    0.25
  -9   2   1    6.53    0.25
  -9   2   1    6.68    0.26
  -9   2   1    6.50    0.26
   8  -2  -1    2.03    0.13
   8  -2  -1    2.13    0.13
   8  -2  -1    2.05    0.13
   8  -2  -1    2.20    0.14
   8  -2  -1    2.24    0.14
   8  -2  -1    2.25    0.14
   8  -2  -1    2.21    0.13
   8  -2  -1    1.99    0.13
  -8   2   1    2.01    0.13
  -8   2   1    2.20    0.14
  -8   2   1    2.25    0.14
  -8   2   1    2.26    0.13
   7  -2  -1    8.29    0.27
   7  -2  -1    8.47    0.25
   7  -2  -1    8.33    0.26
   7  -2  -1    8.69    0.26
   7  -2  -1    8.63    0.26
   7  -2  -1    9.08    0.27
   7  -2  -1    8.44    0.26
   7  -2  -1    8.61    0.26
  -7   2   1    8.68    0.26
  -7   2   1    8.96    0.32
  -7   2   1    8.30    0.26
  -7   2   1    8.55    0.26
  -7   2   1    8.62    0.27
  -7   2   1    8.58    0.27
  -7   2   1    8.73    0.27
   6  -2  -1   23.46    0.53
   6  -2  -1   24.03    0.55
   6  -2  -1   24.05    0.53
   6  -2  -1   24.27    0.54
   6  -2  -1   23.99    0.54
   6  -2  -1   23.79    0.54
   6  -2  -1   24.23    0.55
   6  -2  -1   23.40    0.53
  -6   2   1   24.01    0.53
  -6   2   1   24.06    0.53
  -6   2   1   23.57    0.54
  -6   2   1   23.21    0.54
  -6   2   1   23.99    0.54
  -6   2   1   23.51    0.54
  -6   2   1   23.92    0.54
  -6   2   1   23.70    0.55
  -6   2   1   23.39    0.54
   5  -2  -1    6.04    0.25
   5  -2  -1    6.14    0.18
   5  -2  -1    6.34    0.20
   5  -2  -1    6.17    0.18
   5  -2  -1    5.98    0.25
   5  -2  -1    6.08    0.18
   5  -2  -1    6.24    0.50
   5  -2  -1    6.24    0.19
   5  -2  -1    6.34    0.18
   5  -2  -1    6.09    0.19
   5  -2  -1    5.90    0.18
  -5   2   1    6.38    0.18
  -5   2   1    6.46    0.19
  -5   2   1    5.93    0.19
  -5   2   1    6.07    0.19
  -5   2   1    6.12    0.18
  -5   2   1    6.37    0.19
  -5   2   1    6.40    0.19
  -5   2   1    6.21    0.19
  -5   2   1    6.56    0.20
   4  -2  -1    0.48    0.05
   4  -2  -1    0.53    0.05
   4  -2  -1    0.60    0.06
   4  -2  -1    0.47    0.05
   4  -2  -1    0.48    0.05
   4  -2  -1    0.52    0.05
   4  -2  -1    0.49    0.07
   4  -2  -1    0.61    0.06
   4  -2  -1    0.62    0.06
  -4   2   1    0.64    0.06
  -4   2   1    0.67    0.06
  -4   2   1    0.68    0.06
  -4   2   1    0.43    0.05
  -4   2   1    0.67    0.06
  -4   2   1    0.52    0.06
  -4   2   1    0.58    0.06
  -4   2   1    0.41    0.05
  -4   2   1    0.55    0.05
  -4   2   1    0.66    0.06
   3  -2  -1   60.05    1.17
   3  -2  -1   59.14    1.17
   3  -2  -1   64.37    1.64
   3  -2  -1   61.02    1.17
   3  -2  -1   60.40    1.24
   3  -2  -1   59.59    1.17
   3  -2  -1   59.51    1.17
   3  -2  -1   59.52    1.17
   3  -2  -1   61.41    1.61
   3  -2  -1   58.80    1.17
   3  -2  -1   61.20    1.18
  -3   2   1   61.01    1.18
  -3   2   1   59.92    1.17
  -3   2   1   59.29    1.17
  -3   2   1   59.47    1.17
  -3   2   1   58.62    1.17
  -3   2   1   61.07    1.18
  -3   2   1   59.20    1.18
  -3   2   1   59.58    1.17
  -3   2   1   59.77    1.17
   2  -2  -1  149.12    2.79
   2  -2  -1  148.02    2.79
   2  -2  -1  146.33    2.79
   2  -2  -1  156.46    3.20
   2  -2  -1  146.64    2.80
   2  -2  -1  148.35    2.79
   2  -2  -1  146.35    2.79
   2  -2  -1  149.22    2.79
   2  -2  -1  145.25    2.79
  -2   2   1  144.90    2.79
  -2   2   1  150.06    2.79
  -2   2   1  148.40    2.79
  -2   2   1  147.29    2.79
  -2   2   1  147.79    2.79
  -2   2   1  146.16    2.79
  -2   2   1  146.52    2.79
   1  -2  -1    3.17    0.09
   1  -2  -1    3.12    0.09
   1  -2  -1    3.04    0.09
   1  -2  -1    3.12    0.09
   1  -2  -1    3.13    0.09
  -1   2   1    3.21    0.09
  -1   2   1    3.15    0.09
  -1   2   1    3.05    0.09
   0  -2  -1  450.64    8.51
   0  -2  -1  457.63    8.50
   0  -2  -1  443.18    8.46
   0  -2  -1  441.54    8.45
   0  -2  -1  454.11    8.46
   0  -2  -1  442.95    8.46
   0   2   1  452.78    8.46
   0   2   1  444.12    8.46
   0   2   1  448.87    8.47
   0   2   1  445.91    8.46
   0   2   1  443.94    8.48
  -1  -2  -1  904.89   19.62
  -1  -2  -1  983.38   17.88
  -1  -2  -1 1000.00   17.89
  -1  -2  -1  929.48   20.40
  -1  -2  -1  909.61   19.78
   1   2   1  984.40   17.88
   1   2   1  971.46   17.88
   1   2   1  944.54   17.88
   1   2   1  890.45   19.99
   1   2   1  982.63   17.91
   1   2   1  946.81   18.40
   1   2   1  965.75   17.89
  -2  -2  -1   26.91    0.53
  -2  -2  -1   27.15    0.54
  -2  -2  -1   27.13    0.53
  -2  -2  -1   26.27    0.53
  -2  -2  -1   26.63    0.53
  -2  -2  -1   26.13    0.53
  -2  -2  -1   27.34    0.53
   2   2   1   26.63    0.53
   2   2   1   26.52    0.53
   2   2   1   27.05    0.53
   2   2   1   26.83    0.53
   2   2   1   26.34    0.53
   2   2   1   26.94    0.53
  -3  -2  -1   24.29    0.50
  -3  -2  -1   23.82    0.49
  -3  -2  -1   24.22    0.49
  -3  -2  -1   23.59    0.50
  -3  -2  -1   23.74    0.49
  -3  -2  -1   24.16    0.50
  -3  -2  -1   23.72    0.49
  -3  -2  -1   24.44    0.50
   3   2   1   23.78    0.49
   3   2   1   23.80    0.49
   3   2   1   24.35    0.50
   3   2   1   23.39    0.49
   3   2   1   23.98    0.49
   3   2   1   24.13    0.49
   3   2   1   23.90    0.49
   3   2   1   23.70    0.49
   3   2   1   27.21    0.84
  -4  -2  -1   24.90    0.53
  -4  -2  -1   24.71    0.53
  -4  -2  -1   25.08    0.53
  -4  -2  -1   25.46    0.53
  -4  -2  -1   25.53    0.52
  -4  -2  -1   26.69    0.54
  -4  -2  -1   25.07    0.53
  -4  -2  -1   25.40    0.52
  -4  -2  -1   25.06    0.52
   4   2   1   24.93    0.52
   4   2   1   24.57    0.53
   4   2   1   24.85    0.52
   4   2   1   25.41    0.59
   4   2   1   25.42    0.53
   4   2   1   24.85    0.52
   4   2   1   25.44    0.52
   4   2   1   24.60    0.52
   4   2   1   25.18    0.53
  -5  -2  -1   16.32    0.36
  -5  -2  -1   15.74    0.37
  -5  -2  -1   15.35    0.37
  -5  -2  -1   15.59    0.36
  -5  -2  -1   16.39    0.37
  -5  -2  -1   16.01    0.37
  -5  -2  -1   16.47    0.37
  -5  -2  -1   16.10    0.36
  -5  -2  -1   15.68    0.36
   5   2   1   15.93    0.37
   5   2   1   14.78    0.75
   5   2   1   16.13    0.36
   5   2   1   16.00    0.36
   5   2   1   15.65    0.36
   5   2   1   16.35    0.37
   5   2   1   15.53    0.44
   5   2   1   15.91    0.36
   5   2   1   15.49    0.44
   5   2   1   14.75    0.75
   5   2   1   15.69    0.36
   5   2   1   16.11    0.36
  -6  -2  -1    2.04    0.10
  -6  -2  -1    2.20    0.10
  -6  -2  -1    1.83    0.10
  -6  -2  -1    2.06    0.11
  -6  -2  -1    2.17    0.10
  -6  -2  -1    2.21    0.11
  -6  -2  -1    2.06    0.10
  -6  -2  -1    2.15    0.11
  -6  -2  -1    2.00    0.10
   6   2   1    2.22    0.10
   6   2   1    2.01    0.10
   6   2   1    2.13    0.11
   6   2   1    2.06    0.11
   6   2   1    2.11    0.11
   6   2   1    2.06    0.10
   6   2   1    2.13    0.11
   6   2   1    2.13    0.10
   6   2   1    2.37    0.34
  -7  -2  -1   21.69    0.51
  -7  -2  -1   21.88    0.52
  -7  -2  -1   21.43    0.52
  -7  -2  -1   21.98    0.52
  -7  -2  -1   22.48    0.51
  -7  -2  -1   22.49    0.51
  -7  -2  -1   22.72    0.53
  -7  -2  -1   22.02    0.52
   7   2   1   22.31    0.51
   7   2   1   22.24    0.51
   7   2   1   22.17    0.51
   7   2   1   22.42    0.52
   7   2   1   21.28    0.50
   7   2   1   22.45    0.51
   7   2   1   22.85    0.53
   7   2   1   21.95    0.51
  -8  -2  -1    1.47    0.11
  -8  -2  -1    1.61    0.11
  -8  -2  -1    1.52    0.11
  -8  -2  -1    1.48    0.12
  -8  -2  -1    1.69    0.11
   8   2   1    1.49    0.12
   8   2   1    1.31    0.11
   8   2   1    1.50    0.10
   8   2   1    1.58    0.11
   8   2   1    1.37    0.11
   8   2   1    1.57    0.11
   8   2   1    1.47    0.11
   8   2   1    1.56    0.12
  -9  -2  -1    0.48    0.09
  -9  -2  -1    0.51    0.09
  -9  -2  -1    0.45    0.08
  -9  -2  -1    0.48    0.08
   9   2   1    0.45    0.07
   9   2   1    0.50    0.08
   9   2   1    0.58    0.08
   9   2   1    0.48    0.09
   9   2   1    0.39    0.07
   9   2   1    0.53    0.09
   9   2   1    0.51    0.09
   9   2   1    0.48    0.08
 -10  -2  -1    0.54    0.10
 -10  -2  -1    0.71    0.10
 -10  -2  -1    0.66    0.10
  10   2   1    0.70    0.10
  10   2   1    0.64    0.09
  10   2   1    0.60    0.10
  10   2   1    0.66    0.10
  10   2   1    0.51    0.09
  10   2   1    0.52    0.09
   9  -3  -1    0.14    0.07
   9  -3  -1    0.39    0.09
   9  -3  -1    0.42    0.09
   9  -3  -1    0.29    0.08
   9  -3  -1    0.33    0.08
   9  -3  -1    0.34    0.07
   9  -3  -1    0.34    0.08
   9  -3  -1    0.45    0.09
  -9   3   1    0.34    0.09
  -9   3   1    0.28    0.08
   8  -3  -1    0.05    0.05
   8  -3  -1   -0.06    0.05
   8  -3  -1   -0.01    0.05
   8  -3  -1    0.05    0.05
   8  -3  -1    0.04    0.05
   8  -3  -1    0.04    0.05
   8  -3  -1   -0.01    0.04
   8  -3  -1    0.01    0.05
  -8   3   1   -0.02    0.05
  -8   3   1    0.07    0.06
   7  -3  -1    1.27    0.11
   7  -3  -1    0.94    0.10
   7  -3  -1    1.11    0.11
   7  -3  -1    0.90    0.09
   7  -3  -1    1.08    0.10
   7  -3  -1    0.94    0.09
   7  -3  -1    0.94    0.09
   7  -3  -1    0.94    0.09
  -7   3   1    0.78    0.09
  -7   3   1    0.92    0.15
  -7   3   1    0.90    0.10
  -7   3   1    1.05    0.09
   6  -3  -1    2.39    0.13
   6  -3  -1    2.66    0.13
   6  -3  -1    2.85    0.12
   6  -3  -1    2.56    0.13
   6  -3  -1    2.56    0.13
   6  -3  -1    2.59    0.13
   6  -3  -1    2.60    0.12
   6  -3  -1    2.56    0.12
  -6   3   1    2.65    0.14
  -6   3   1    2.61    0.13
  -6   3   1    2.64    0.13
  -6   3   1    2.66    0.12
  -6   3   1    2.39    0.12
   5  -3  -1    0.25    0.05
   5  -3  -1    0.25    0.04
   5  -3  -1    0.25    0.05
   5  -3  -1    0.20    0.09
   5  -3  -1    0.34    0.17
   5  -3  -1    0.28    0.05
   5  -3  -1    0.26    0.05
   5  -3  -1    0.25    0.05
   5  -3  -1    0.34    0.08
   5  -3  -1    0.38    0.06
   5  -3  -1    0.23    0.05
  -5   3   1    0.31    0.05
  -5   3   1    0.25    0.05
  -5   3   1    0.27    0.05
  -5   3   1    0.25    0.05
  -5   3   1    0.26    0.05
  -5   3   1    0.22    0.04
  -5   3   1    0.33    0.05
   4  -3  -1   15.03    0.34
   4  -3  -1   14.75    0.34
   4  -3  -1   14.96    0.34
   4  -3  -1   14.86    0.36
   4  -3  -1   14.87    0.34
   4  -3  -1   14.54    0.73
   4  -3  -1   14.48    0.42
   4  -3  -1   14.79    0.35
   4  -3  -1   15.23    0.35
   4  -3  -1   14.75    0.75
   4  -3  -1   15.06    0.35
   4  -3  -1   14.88    0.34
   4  -3  -1   14.95    0.43
  -4   3   1   15.79    0.36
  -4   3   1   15.26    0.35
  -4   3   1   14.78    0.34
  -4   3   1   14.74    0.35
  -4   3   1   15.14    0.34
  -4   3   1   15.10    0.35
  -4   3   1   14.59    0.35
   3  -3  -1   34.18    0.70
   3  -3  -1   34.77    0.70
   3  -3  -1   33.57    0.69
   3  -3  -1   33.94    1.14
   3  -3  -1   34.98    0.70
   3  -3  -1   34.23    0.70
   3  -3  -1   33.84    0.78
   3  -3  -1   33.92    0.70
   3  -3  -1   34.26    0.70
   3  -3  -1   33.88    1.12
   3  -3  -1   34.42    0.78
   3  -3  -1   35.05    0.71
   3  -3  -1   35.00    0.71
  -3   3   1   34.02    0.69
  -3   3   1   35.32    0.70
  -3   3   1   34.28    0.69
  -3   3   1   34.36    0.70
  -3   3   1   34.93    0.70
  -3   3   1   33.74    0.70
   2  -3  -1   73.53    1.43
   2  -3  -1   75.58    1.87
   2  -3  -1   75.03    1.44
   2  -3  -1   74.04    1.43
   2  -3  -1   74.29    1.44
   2  -3  -1   73.48    1.43
   2  -3  -1   73.42    1.43
   2  -3  -1   74.02    1.43
   2  -3  -1   75.24    1.50
   2  -3  -1   76.11    1.44
   2  -3  -1   73.09    1.43
  -2   3   1   73.21    1.44
  -2   3   1   74.64    1.43
  -2   3   1   75.00    1.43
  -2   3   1   74.68    1.43
  -2   3   1   75.92    1.44
  -2   3   1   75.30    1.44
  -2   3   1   73.50    1.44
   1  -3  -1   46.84    0.92
   1  -3  -1   46.50    0.92
   1  -3  -1   47.36    1.24
   1  -3  -1   47.23    0.92
   1  -3  -1   46.44    0.93
   1  -3  -1   48.83    1.27
   1  -3  -1   47.66    0.92
   1  -3  -1   47.39    0.92
   1  -3  -1   47.16    0.92
   1  -3  -1   46.81    0.93
   1  -3  -1   48.20    0.92
   1  -3  -1   50.66    1.02
  -1   3   1   45.97    0.92
  -1   3   1   46.91    0.92
  -1   3   1   47.61    0.92
  -1   3   1   48.24    0.92
  -1   3   1   47.01    0.92
  -1   3   1   46.85    0.92
   0  -3  -1    8.12    0.19
   0  -3  -1    8.27    0.19
   0  -3  -1    7.92    0.19
   0  -3  -1    8.38    0.44
   0  -3  -1    7.96    0.39
   0  -3  -1    7.94    0.18
   0  -3  -1    7.93    0.19
   0  -3  -1    8.10    0.18
   0   3   1    8.12    0.18
   0   3   1    7.96    0.19
   0   3   1    8.15    0.18
   0   3   1    7.85    0.19
   0   3   1    7.95    0.19
  -1  -3  -1  404.46    7.43
  -1  -3  -1  386.16    7.45
  -1  -3  -1  333.90    8.15
  -1  -3  -1  396.73    7.49
  -1  -3  -1  394.90    7.44
  -1  -3  -1  398.23    7.49
  -1  -3  -1  400.29    7.49
   1   3   1  397.52    7.42
   1   3   1  401.88    7.44
   1   3   1  394.60    7.41
   1   3   1  386.35    7.44
   1   3   1  403.42    7.48
   1   3   1  395.54    7.44
   1   3   1  393.78    7.45
  -2  -3  -1   18.88    0.39
  -2  -3  -1   18.31    0.39
  -2  -3  -1   18.13    0.38
  -2  -3  -1   18.36    0.38
  -2  -3  -1   18.80    0.39
  -2  -3  -1   18.20    0.39
   2   3   1   18.14    0.39
   2   3   1   18.99    0.39
   2   3   1   18.80    0.39
   2   3   1   18.94    0.39
   2   3   1   18.52    0.39
  -3  -3  -1  304.60    5.66
  -3  -3  -1  305.64    5.73
  -3  -3  -1  296.70    5.62
  -3  -3  -1  302.50    5.71
  -3  -3  -1  293.67    5.62
  -3  -3  -1  277.06    6.03
  -3  -3  -1  300.93    5.65
  -3  -3  -1  303.88    5.71
  -3  -3  -1  299.37    5.67
   3   3   1  290.17    5.67
   3   3   1  295.26    5.68
   3   3   1  303.42    5.70
   3   3   1  306.58    5.66
   3   3   1  294.70    5.62
   3   3   1  298.24    5.69
   3   3   1  303.98    5.62
   3   3   1  297.42    5.69
  -4  -3  -1    6.43    0.18
  -4  -3  -1    6.66    0.18
  -4  -3  -1    6.36    0.18
  -4  -3  -1    6.33    0.18
  -4  -3  -1    6.97    0.46
  -4  -3  -1    6.85    0.19
  -4  -3  -1    6.55    0.18
  -4  -3  -1    6.53    0.18
  -4  -3  -1    6.45    0.17
   4   3   1    6.35    0.17
   4   3   1    6.36    0.18
   4   3   1    6.44    0.18
   4   3   1    6.43    0.18
   4   3   1    6.63    0.18
   4   3   1    6.89    0.46
   4   3   1    6.45    0.17
  -5  -3  -1   19.74    0.44
  -5  -3  -1   20.15    0.44
  -5  -3  -1   19.31    0.44
  -5  -3  -1   19.68    0.44
  -5  -3  -1   19.73    0.43
  -5  -3  -1   19.13    0.44
  -5  -3  -1   20.11    0.44
  -5  -3  -1   19.58    0.88
  -5  -3  -1   19.82    0.45
  -5  -3  -1   19.10    0.44
   5   3   1   19.16    0.43
   5   3   1   20.18    0.45
   5   3   1   19.51    0.44
   5   3   1   19.70    0.43
   5   3   1   19.35    0.44
   5   3   1   19.22    0.87
   5   3   1   19.86    0.44
   5   3   1   19.60    0.52
   5   3   1   19.97    0.44
   5   3   1   19.50    0.43
  -6  -3  -1    1.36    0.08
  -6  -3  -1    1.17    0.08
  -6  -3  -1    1.33    0.09
  -6  -3  -1    1.21    0.09
  -6  -3  -1    1.24    0.09
  -6  -3  -1    1.42    0.09
  -6  -3  -1    1.27    0.09
  -6  -3  -1    1.47    0.09
  -6  -3  -1    1.21    0.09
   6   3   1    1.34    0.09
   6   3   1    1.28    0.08
   6   3   1    1.21    0.08
   6   3   1    1.22    0.09
   6   3   1    1.39    0.09
   6   3   1    1.39    0.09
   6   3   1    1.16    0.08
   6   3   1    1.34    0.09
  -7  -3  -1    1.47    0.11
  -7  -3  -1    1.36    0.10
  -7  -3  -1    1.60    0.10
  -7  -3  -1    1.55    0.10
  -7  -3  -1    1.51    0.11
  -7  -3  -1    1.80    0.12
  -7  -3  -1    1.74    0.11
  -7  -3  -1    1.48    0.10
   7   3   1    1.67    0.11
   7   3   1    1.63    0.10
   7   3   1    1.35    0.10
   7   3   1    1.56    0.10
   7   3   1    1.63    0.11
   7   3   1    1.46    0.10
   7   3   1    1.65    0.11
   7   3   1    1.51    0.11
  -8  -3  -1    7.70    0.25
  -8  -3  -1    7.66    0.25
  -8  -3  -1    7.51    0.26
  -8  -3  -1    7.69    0.26
  -8  -3  -1    7.99    0.25
   8   3   1    7.69    0.25
   8   3   1    7.59    0.25
   8   3   1    7.70    0.25
   8   3   1    7.88    0.25
   8   3   1    7.74    0.26
   8   3   1    8.04    0.25
   8   3   1    8.27    0.26
   8   3   1    7.82    0.25
  -9  -3  -1    1.02    0.10
  -9  -3  -1    0.94    0.11
  -9  -3  -1    0.99    0.11
  -9  -3  -1    0.85    0.10
  -9  -3  -1    0.93    0.10
   9   3   1    0.94    0.10
   9   3   1    0.78    0.09
   9   3   1    0.92    0.11
   9   3   1    0.94    0.10
   9   3   1    0.68    0.09
   9   3   1    0.98    0.13
 -10  -3  -1    0.52    0.10
 -10  -3  -1    0.63    0.10
 -10  -3  -1    0.46    0.10
  10   3   1    0.61    0.10
  10   3   1    0.37    0.08
  10   3   1    0.48    0.09
  10   3   1    0.36    0.09
  10   3   1    0.40    0.09
   8  -4  -1    2.45    0.16
   8  -4  -1    2.41    0.15
   8  -4  -1    2.52    0.16
   8  -4  -1    2.45    0.15
   8  -4  -1    2.36    0.16
   8  -4  -1    2.66    0.14
   8  -4  -1    2.52    0.15
  -8   4   1    2.44    0.16
  -8   4   1    2.54    0.17
   7  -4  -1    0.91    0.09
   7  -4  -1    0.74    0.09
   7  -4  -1    0.84    0.09
   7  -4  -1    0.79    0.10
   7  -4  -1    0.71    0.08
   7  -4  -1    0.74    0.09
   7  -4  -1    0.96    0.10
  -7   4   1    0.71    0.09
  -7   4   1    0.80    0.10
   6  -4  -1    7.95    0.25
   6  -4  -1    7.61    0.23
   6  -4  -1    7.77    0.25
   6  -4  -1    7.70    0.24
   6  -4  -1    7.73    0.23
   6  -4  -1    7.57    0.24
   6  -4  -1    7.46    0.24
  -6   4   1    8.23    0.24
  -6   4   1    7.34    0.25
  -6   4   1    7.58    0.25
   5  -4  -1   11.66    0.30
   5  -4  -1   11.91    0.32
   5  -4  -1   11.88    0.30
   5  -4  -1   11.55    0.74
   5  -4  -1   11.82    0.31
   5  -4  -1   12.09    0.30
   5  -4  -1   11.45    0.31
   5  -4  -1   12.13    0.31
  -5   4   1   11.98    0.31
  -5   4   1   12.21    0.30
  -5   4   1   11.75    0.31
  -5   4   1   11.36    0.31
   4  -4  -1    2.61    0.11
   4  -4  -1    2.45    0.12
   4  -4  -1    2.69    0.11
   4  -4  -1    2.31    0.32
   4  -4  -1    2.28    0.31
   4  -4  -1    2.49    0.10
   4  -4  -1    2.36    0.10
   4  -4  -1    2.44    0.10
   4  -4  -1    2.66    0.16
   4  -4  -1    3.08    0.18
   4  -4  -1    2.40    0.11
  -4   4   1    2.62    0.11
  -4   4   1    2.66    0.11
  -4   4   1    2.28    0.11
  -4   4   1    2.58    0.11
  -4   4   1    2.62    0.11
  -4   4   1    2.54    0.11
   3  -4  -1   23.61    0.59
   3  -4  -1   24.76    0.96
   3  -4  -1   24.43    0.52
   3  -4  -1   24.35    0.51
   3  -4  -1   23.89    0.51
   3  -4  -1   23.75    0.93
   3  -4  -1   23.98    0.51
   3  -4  -1   23.83    0.51
   3  -4  -1   23.58    0.52
   3  -4  -1   24.60    0.53
   3  -4  -1   23.79    0.51
   3  -4  -1   24.37    0.53
  -3   4   1   24.33    0.51
  -3   4   1   24.31    0.52
  -3   4   1   24.03    0.52
  -3   4   1   24.11    0.52
  -3   4   1   23.88    0.51
  -3   4   1   24.30    0.52
  -3   4   1   24.67    0.52
   2  -4  -1    4.90    0.15
   2  -4  -1    4.91    0.14
   2  -4  -1    4.70    0.14
   2  -4  -1    5.11    0.15
   2  -4  -1    4.66    0.14
   2  -4  -1    4.79    0.19
   2  -4  -1    4.94    0.37
   2  -4  -1    4.90    0.15
   2  -4  -1    4.66    0.14
   2  -4  -1    4.97    0.14
   2  -4  -1    4.89    0.37
   2  -4  -1    4.95    0.37
   2  -4  -1    4.92    0.14
  -2   4   1    4.94    0.15
  -2   4   1    4.64    0.14
  -2   4   1    4.89    0.14
  -2   4   1    4.80    0.14
  -2   4   1    4.79    0.14
  -2   4   1    4.91    0.14
  -2   4   1    4.62    0.14
   1  -4  -1    7.89    0.20
   1  -4  -1    7.70    0.19
   1  -4  -1    7.94    0.19
   1  -4  -1    7.96    0.20
   1  -4  -1    7.27    0.43
   1  -4  -1    7.68    0.19
   1  -4  -1    7.51    0.44
   1  -4  -1    7.67    0.24
   1  -4  -1    7.74    0.19
   1  -4  -1    7.80    0.19
  -1   4   1    7.82    0.20
  -1   4   1    7.82    0.20
  -1   4   1    7.71    0.19
  -1   4   1    7.97    0.20
  -1   4   1    8.04    0.20
  -1   4   1    7.65    0.19
  -1   4   1    8.29    0.19
   0  -4  -1    4.39    0.13
   0  -4  -1    4.49    0.33
   0  -4  -1    4.74    0.33
   0  -4  -1    4.49    0.13
   0  -4  -1    4.51    0.13
   0  -4  -1    4.57    0.13
   0  -4  -1    4.87    0.17
   0  -4  -1    4.75    0.13
   0  -4  -1    4.57    0.13
   0   4   1    4.37    0.13
   0   4   1    4.74    0.13
   0   4   1    4.64    0.13
   0   4   1    4.38    0.12
   0   4   1    4.60    0.13
   0   4   1    4.57    0.13
  -1  -4  -1   66.00    1.34
  -1  -4  -1   67.43    1.29
  -1  -4  -1   65.88    1.27
  -1  -4  -1   66.06    1.28
  -1  -4  -1   66.60    1.28
  -1  -4  -1   65.60    1.27
  -1  -4  -1   66.58    1.28
  -1  -4  -1   66.47    1.34
  -1  -4  -1   67.23    1.27
   1   4   1   65.72    1.28
   1   4   1   64.71    1.28
   1   4   1   66.48    1.28
   1   4   1   65.31    1.28
   1   4   1   65.79    1.27
   1   4   1   68.22    1.28
   1   4   1   65.77    1.28
   1   4   1   65.00    1.27
  -2  -4  -1   10.01    0.23
  -2  -4  -1    9.17    0.28
  -2  -4  -1   10.10    0.24
  -2  -4  -1    9.77    0.24
  -2  -4  -1    9.99    0.23
  -2  -4  -1   10.03    0.23
  -2  -4  -1    9.99    0.24
  -2  -4  -1    8.42    0.48
  -2  -4  -1   10.34    0.23
  -2  -4  -1    8.99    0.48
   2   4   1   10.34    0.24
   2   4   1   10.28    0.23
   2   4   1    9.98    0.24
   2   4   1   10.16    0.24
   2   4   1    9.97    0.23
   2   4   1   10.06    0.23
   2   4   1   10.40    0.24
  -3  -4  -1  145.00    2.78
  -3  -4  -1  144.57    2.78
  -3  -4  -1  145.29    2.78
  -3  -4  -1  149.32    2.79
  -3  -4  -1  144.52    2.78
  -3  -4  -1  147.40    2.78
  -3  -4  -1  146.29    2.78
  -3  -4  -1  142.70    2.86
  -3  -4  -1  146.69    2.91
  -3  -4  -1  150.27    3.31
   3   4   1  146.10    2.79
   3   4   1  148.63    2.79
   3   4   1  145.93    2.78
   3   4   1  143.26    2.79
   3   4   1  145.72    2.78
   3   4   1  147.11    2.78
   3   4   1  148.16    2.78
   3   4   1  148.79    2.78
  -4  -4  -1    0.14    0.04
  -4  -4  -1    0.13    0.03
  -4  -4  -1    0.08    0.03
  -4  -4  -1    0.17    0.04
  -4  -4  -1    0.09    0.03
  -4  -4  -1    0.12    0.03
  -4  -4  -1    0.21    0.04
  -4  -4  -1    0.45    0.18
  -4  -4  -1    0.17    0.09
  -4  -4  -1    0.12    0.03
   4   4   1    0.09    0.04
   4   4   1    0.05    0.03
   4   4   1    0.12    0.03
   4   4   1    0.19    0.04
   4   4   1    0.23    0.04
   4   4   1    0.15    0.04
   4   4   1    0.14    0.03
   4   4   1    0.13    0.03
  -5  -4  -1   33.02    0.70
  -5  -4  -1   33.04    0.70
  -5  -4  -1   33.82    1.24
  -5  -4  -1   33.61    0.70
  -5  -4  -1   32.56    0.70
  -5  -4  -1   34.67    0.71
  -5  -4  -1   33.87    0.70
  -5  -4  -1   32.77    0.69
  -5  -4  -1   33.52    0.64
  -5  -4  -1   34.11    0.70
  -5  -4  -1   33.48    0.70
   5   4   1   33.05    0.70
   5   4   1   32.80    0.70
   5   4   1   33.01    0.69
   5   4   1   32.32    0.70
   5   4   1   33.52    0.71
   5   4   1   32.67    0.69
   5   4   1   33.21    0.70
   5   4   1   32.79    0.69
  -6  -4  -1    1.58    0.09
  -6  -4  -1    1.69    0.10
  -6  -4  -1    1.67    0.11
  -6  -4  -1    1.68    0.10
  -6  -4  -1    1.70    0.10
  -6  -4  -1    1.60    0.10
  -6  -4  -1    1.57    0.10
  -6  -4  -1    1.71    0.10
  -6  -4  -1    1.66    0.10
   6   4   1    1.63    0.10
   6   4   1    1.63    0.10
   6   4   1    1.55    0.09
   6   4   1    1.76    0.10
   6   4   1    1.67    0.11
   6   4   1    1.74    0.10
   6   4   1    1.60    0.10
  -7  -4  -1    4.93    0.18
  -7  -4  -1    4.55    0.17
  -7  -4  -1    4.49    0.18
  -7  -4  -1    4.49    0.17
  -7  -4  -1    4.97    0.18
  -7  -4  -1    4.80    0.18
  -7  -4  -1    4.64    0.17
   7   4   1    4.52    0.17
   7   4   1    4.57    0.18
   7   4   1    4.63    0.17
   7   4   1    4.63    0.18
   7   4   1    4.19    0.17
   7   4   1    4.64    0.17
   7   4   1    4.56    0.18
  -8  -4  -1    0.96    0.10
  -8  -4  -1    0.86    0.09
  -8  -4  -1    1.19    0.11
  -8  -4  -1    1.25    0.12
  -8  -4  -1    0.89    0.09
   8   4   1    1.03    0.10
   8   4   1    0.99    0.10
   8   4   1    0.94    0.09
   8   4   1    1.05    0.10
   8   4   1    0.99    0.10
   8   4   1    1.04    0.11
   8   4   1    0.82    0.09
  -9  -4  -1   -0.01    0.05
  -9  -4  -1    0.00    0.05
  -9  -4  -1   -0.04    0.05
  -9  -4  -1    0.08    0.06
  -9  -4  -1    0.09    0.06
   9   4   1    0.03    0.05
   9   4   1   -0.02    0.05
   9   4   1    0.03    0.05
   9   4   1    0.02    0.05
   9   4   1   -0.01    0.05
   8  -5  -1    2.06    0.15
   8  -5  -1    2.03    0.15
   8  -5  -1    1.91    0.14
   8  -5  -1    1.94    0.14
   8  -5  -1    1.89    0.14
   8  -5  -1    1.93    0.13
  -8   5   1    1.80    0.15
  -8   5   1    1.94    0.15
   7  -5  -1    0.01    0.05
   7  -5  -1    0.04    0.05
   7  -5  -1    0.03    0.05
   7  -5  -1    0.03    0.04
   7  -5  -1    0.02    0.05
   7  -5  -1    0.04    0.05
   7  -5  -1   -0.05    0.04
  -7   5   1   -0.10    0.04
  -7   5   1    0.14    0.06
   6  -5  -1    4.94    0.20
   6  -5  -1    5.53    0.19
   6  -5  -1    5.43    0.20
   6  -5  -1    4.90    0.19
   6  -5  -1    5.05    0.19
   6  -5  -1    4.74    0.20
   6  -5  -1    4.83    0.18
  -6   5   1    4.95    0.20
  -6   5   1    5.09    0.20
   5  -5  -1    0.92    0.08
   5  -5  -1    0.92    0.29
   5  -5  -1    0.91    0.09
   5  -5  -1    0.90    0.09
   5  -5  -1    0.91    0.09
   5  -5  -1    1.01    0.09
   5  -5  -1    0.86    0.08
   5  -5  -1    0.95    0.08
  -5   5   1    0.90    0.08
  -5   5   1    1.05    0.10
  -5   5   1    0.77    0.08
   4  -5  -1    0.12    0.04
   4  -5  -1    0.07    0.03
   4  -5  -1    0.04    0.12
   4  -5  -1    0.01    0.03
   4  -5  -1    0.08    0.04
   4  -5  -1    0.08    0.04
   4  -5  -1    0.03    0.04
   4  -5  -1    0.03    0.03
   4  -5  -1    0.06    0.05
  -4   5   1    0.07    0.04
  -4   5   1    0.07    0.04
  -4   5   1    0.08    0.04
  -4   5   1    0.09    0.04
   3  -5  -1    7.22    0.52
   3  -5  -1    6.51    0.19
   3  -5  -1    6.98    0.21
   3  -5  -1    6.75    0.19
   3  -5  -1    6.73    0.19
   3  -5  -1    6.78    0.49
   3  -5  -1    6.51    0.20
   3  -5  -1    6.82    0.19
   3  -5  -1    6.98    0.26
   3  -5  -1    6.82    0.19
   3  -5  -1    6.86    0.20
   3  -5  -1    6.58    0.48
  -3   5   1    6.96    0.20
  -3   5   1    6.95    0.19
  -3   5   1    6.57    0.20
  -3   5   1    7.12    0.19
  -3   5   1    6.90    0.20
   2  -5  -1    8.32    0.52
   2  -5  -1    8.66    0.23
   2  -5  -1    8.58    0.22
   2  -5  -1    8.29    0.28
   2  -5  -1    9.09    0.23
   2  -5  -1    7.49    0.50
   2  -5  -1    8.60    0.22
   2  -5  -1    8.71    0.23
   2  -5  -1    8.44    0.22
   2  -5  -1    8.74    0.22
  -2   5   1    8.52    0.22
  -2   5   1    8.70    0.23
  -2   5   1    8.46    0.21
  -2   5   1    8.29    0.22
  -2   5   1    8.48    0.23
  -2   5   1    8.26    0.22
   1  -5  -1    3.55    0.12
   1  -5  -1    3.67    0.13
   1  -5  -1    4.52    0.36
   1  -5  -1    3.38    0.12
   1  -5  -1    3.88    0.17
   1  -5  -1    3.66    0.12
   1  -5  -1    3.55    0.12
   1  -5  -1    3.47    0.12
   1  -5  -1    3.45    0.12
  -1   5   1    3.67    0.12
  -1   5   1    3.75    0.12
  -1   5   1    3.69    0.12
  -1   5   1    3.62    0.12
  -1   5   1    3.49    0.11
  -1   5   1    3.57    0.12
  -1   5   1    4.00    0.13
   0  -5  -1    9.30    0.23
   0  -5  -1    9.32    0.23
   0  -5  -1    9.32    0.22
   0  -5  -1    9.46    0.23
   0  -5  -1    8.38    0.50
   0  -5  -1    9.41    0.22
   0  -5  -1    9.33    0.23
   0  -5  -1    9.16    0.29
   0  -5  -1    9.32    0.22
   0  -5  -1    8.13    0.48
   0   5   1    9.19    0.23
   0   5   1    9.65    0.23
   0   5   1    9.47    0.22
   0   5   1    9.59    0.23
   0   5   1    9.31    0.23
   0   5   1    9.27    0.22
   0   5   1    9.40    0.23
  -1  -5  -1    8.59    0.22
  -1  -5  -1    8.65    0.49
  -1  -5  -1    8.58    0.20
  -1  -5  -1    8.54    0.27
  -1  -5  -1    8.78    0.49
  -1  -5  -1    8.52    0.21
  -1  -5  -1    8.53    0.21
  -1  -5  -1    8.56    0.21
  -1  -5  -1    8.96    0.22
  -1  -5  -1    8.52    0.21
  -1  -5  -1    8.75    0.27
   1   5   1    9.04    0.22
   1   5   1    8.96    0.22
   1   5   1    8.70    0.22
   1   5   1    8.46    0.22
   1   5   1    8.56    0.21
   1   5   1    8.49    0.22
   1   5   1    8.59    0.21
   1   5   1    8.44    0.22
  -2  -5  -1   35.91    0.71
  -2  -5  -1   34.85    0.72
  -2  -5  -1   34.27    0.79
  -2  -5  -1   35.82    0.71
  -2  -5  -1   35.04    0.72
  -2  -5  -1   34.80    0.71
  -2  -5  -1   35.34    0.71
  -2  -5  -1   34.42    0.71
   2   5   1   34.65    0.72
   2   5   1   35.69    0.72
   2   5   1   35.42    0.71
   2   5   1   35.01    0.72
   2   5   1   35.46    0.72
   2   5   1   34.25    0.71
   2   5   1   35.29    0.71
   2   5   1   36.41    0.72
  -3  -5  -1    2.22    0.14
  -3  -5  -1    2.54    0.11
  -3  -5  -1    2.59    0.10
  -3  -5  -1    2.05    0.27
  -3  -5  -1    2.63    0.10
  -3  -5  -1    2.42    0.10
  -3  -5  -1    2.57    0.10
  -3  -5  -1    2.55    0.10
  -3  -5  -1    2.66    0.10
  -3  -5  -1    2.20    0.14
   3   5   1    2.68    0.10
   3   5   1    2.43    0.10
   3   5   1    2.59    0.10
   3   5   1    2.76    0.11
   3   5   1    2.60    0.10
   3   5   1    2.69    0.10
  -4  -5  -1   20.58    0.44
  -4  -5  -1   19.71    0.88
  -4  -5  -1   19.75    0.45
  -4  -5  -1   20.10    0.45
  -4  -5  -1   20.07    0.44
  -4  -5  -1   19.98    0.44
  -4  -5  -1   20.23    0.44
  -4  -5  -1   21.05    0.46
  -4  -5  -1   20.18    0.45
  -4  -5  -1   20.28    0.45
  -4  -5  -1   17.99    0.85
  -4  -5  -1   18.16    0.52
   4   5   1   20.00    0.45
   4   5   1   20.34    0.45
   4   5   1   20.43    0.44
   4   5   1   19.70    0.45
   4   5   1   19.98    0.45
   4   5   1   19.98    0.45
   4   5   1   20.96    0.44
  -5  -5  -1    0.23    0.04
  -5  -5  -1    0.21    0.03
  -5  -5  -1    0.16    0.04
  -5  -5  -1    0.25    0.05
  -5  -5  -1    0.18    0.13
  -5  -5  -1    0.17    0.04
  -5  -5  -1    0.15    0.04
  -5  -5  -1    0.16    0.04
  -5  -5  -1    0.21    0.05
  -5  -5  -1    0.18    0.04
  -5  -5  -1    0.17    0.04
   5   5   1    0.21    0.05
   5   5   1    0.21    0.04
   5   5   1    0.22    0.05
   5   5   1    0.27    0.05
   5   5   1    0.17    0.04
   5   5   1    0.13    0.04
   5   5   1    0.20    0.04
   5   5   1    0.19    0.04
  -6  -5  -1    1.11    0.09
  -6  -5  -1    1.28    0.10
  -6  -5  -1    1.25    0.09
  -6  -5  -1    1.20    0.09
  -6  -5  -1    1.25    0.09
  -6  -5  -1    1.17    0.09
  -6  -5  -1    1.40    0.10
  -6  -5  -1    1.18    0.09
   6   5   1    1.20    0.10
   6   5   1    1.38    0.10
   6   5   1    1.18    0.09
   6   5   1    1.12    0.09
   6   5   1    1.23    0.09
   6   5   1    1.25    0.09
   6   5   1    1.35    0.09
  -7  -5  -1   -0.05    0.04
  -7  -5  -1    0.03    0.04
  -7  -5  -1    0.07    0.04
  -7  -5  -1    0.06    0.05
  -7  -5  -1    0.04    0.04
  -7  -5  -1    0.05    0.05
  -7  -5  -1    0.06    0.04
  -7  -5  -1    0.12    0.05
   7   5   1    0.01    0.04
   7   5   1    0.05    0.07
   7   5   1    0.11    0.05
   7   5   1    0.06    0.04
   7   5   1    0.08    0.04
   7   5   1    0.03    0.05
   7   5   1    0.06    0.05
  -8  -5  -1    2.31    0.14
  -8  -5  -1    2.23    0.13
  -8  -5  -1    2.12    0.14
  -8  -5  -1    2.45    0.14
  -8  -5  -1    2.07    0.13
   8   5   1    2.56    0.14
   8   5   1    2.01    0.13
   8   5   1    2.24    0.14
   8   5   1    2.26    0.13
   8   5   1    1.97    0.13
  -9  -5  -1    0.67    0.10
  -9  -5  -1    0.46    0.09
  -9  -5  -1    0.71    0.10
  -9  -5  -1    0.53    0.09
  -9  -5  -1    0.61    0.09
   9   5   1    0.57    0.09
   9   5   1    0.52    0.09
   9   5   1    0.70    0.09
   9   5   1    0.45    0.09
   9   5   1    0.61    0.09
   7  -6  -1    1.84    0.14
   7  -6  -1    2.21    0.15
   7  -6  -1    2.00    0.12
   7  -6  -1    1.72    0.13
   7  -6  -1    2.17    0.14
   7  -6  -1    1.93    0.14
  -7   6   1    2.20    0.15
  -7   6   1    1.90    0.14
   6  -6  -1   -0.01    0.05
   6  -6  -1   -0.01    0.04
   6  -6  -1    0.00    0.04
   6  -6  -1    0.01    0.04
   6  -6  -1   -0.02    0.04
   6  -6  -1    0.04    0.05
   6  -6  -1   -0.06    0.04
   6  -6  -1   -0.03    0.04
  -6   6   1   -0.06    0.04
  -6   6   1    0.01    0.05
   5  -6  -1    2.67    0.13
   5  -6  -1    2.57    0.12
   5  -6  -1    2.85    0.14
   5  -6  -1    2.49    0.14
   5  -6  -1    2.56    0.14
   5  -6  -1    2.41    0.12
   5  -6  -1    2.43    0.13
  -5   6   1    2.55    0.14
  -5   6   1    2.45    0.14
   4  -6  -1    0.79    0.11
   4  -6  -1    0.68    0.08
   4  -6  -1    0.76    0.08
   4  -6  -1    0.71    0.08
   4  -6  -1    0.79    0.08
   4  -6  -1    0.62    0.21
   4  -6  -1    0.70    0.07
   4  -6  -1    0.87    0.08
  -4   6   1    0.80    0.08
  -4   6   1    0.82    0.08
  -4   6   1    0.63    0.08
   3  -6  -1    1.32    0.08
   3  -6  -1    1.30    0.09
   3  -6  -1    2.14    0.44
   3  -6  -1    1.78    0.31
   3  -6  -1    1.32    0.09
   3  -6  -1    1.33    0.09
   3  -6  -1    1.48    0.13
   3  -6  -1    1.49    0.09
  -3   6   1    1.46    0.08
  -3   6   1    1.36    0.09
  -3   6   1    1.23    0.09
   2  -6  -1    1.17    0.08
   2  -6  -1    1.16    0.08
   2  -6  -1    1.07    0.08
   2  -6  -1    0.92    0.23
   2  -6  -1    1.26    0.07
   2  -6  -1    0.95    0.22
   2  -6  -1    1.19    0.08
   2  -6  -1    1.11    0.11
   2  -6  -1    1.16    0.08
  -2   6   1    1.05    0.07
  -2   6   1    1.25    0.08
  -2   6   1    1.19    0.08
  -2   6   1    1.13    0.08
   1  -6  -1    0.29    0.14
   1  -6  -1    0.11    0.04
   1  -6  -1    0.20    0.04
   1  -6  -1    0.17    0.05
   1  -6  -1    0.21    0.12
   1  -6  -1    0.19    0.04
   1  -6  -1    0.17    0.04
   1  -6  -1    0.14    0.04
   1  -6  -1    0.18    0.03
   1  -6  -1    0.22    0.04
  -1   6   1    0.15    0.04
  -1   6   1    0.21    0.04
  -1   6   1    0.20    0.04
  -1   6   1    0.25    0.05
  -1   6   1    0.20    0.04
  -1   6   1    0.21    0.04
   0  -6  -1    0.05    0.03
   0  -6  -1    0.04    0.03
   0  -6  -1    0.09    0.03
   0  -6  -1    0.00    0.08
   0  -6  -1    0.03    0.03
   0  -6  -1    0.04    0.08
   0  -6  -1    0.03    0.03
   0  -6  -1    0.01    0.04
   0  -6  -1    0.05    0.03
   0  -6  -1    0.08    0.03
   0   6   1    0.00    0.02
   0   6   1    0.01    0.03
   0   6   1   -0.03    0.02
   0   6   1    0.05    0.03
   0   6   1   -0.01    0.03
   0   6   1    0.08    0.03
   0   6   1   -0.02    0.03
  -1  -6  -1    8.60    0.54
  -1  -6  -1    8.42    0.21
  -1  -6  -1    8.15    0.21
  -1  -6  -1    8.74    0.53
  -1  -6  -1    8.11    0.22
  -1  -6  -1    8.11    0.20
  -1  -6  -1    7.94    0.21
  -1  -6  -1    8.04    0.27
  -1  -6  -1    8.44    0.22
  -1  -6  -1    8.61    0.28
  -1  -6  -1    7.82    0.22
   1   6   1    8.39    0.22
   1   6   1    8.37    0.21
   1   6   1    8.13    0.22
   1   6   1    7.74    0.22
   1   6   1    7.90    0.21
   1   6   1    8.05    0.22
   1   6   1    8.42    0.22
   1   6   1    8.28    0.21
  -2  -6  -1    1.95    0.08
  -2  -6  -1    2.11    0.09
  -2  -6  -1    2.14    0.10
  -2  -6  -1    1.75    0.26
  -2  -6  -1    1.73    0.27
  -2  -6  -1    2.05    0.09
  -2  -6  -1    1.89    0.09
  -2  -6  -1    2.04    0.09
  -2  -6  -1    2.03    0.13
  -2  -6  -1    1.90    0.13
  -2  -6  -1    1.94    0.09
   2   6   1    1.97    0.09
   2   6   1    2.00    0.09
   2   6   1    2.07    0.09
   2   6   1    1.91    0.10
   2   6   1    1.83    0.09
   2   6   1    1.94    0.09
   2   6   1    1.87    0.09
   2   6   1    1.99    0.09
  -3  -6  -1    5.76    0.17
  -3  -6  -1    5.68    0.23
  -3  -6  -1    5.63    0.17
  -3  -6  -1    5.83    0.46
  -3  -6  -1    5.76    0.23
  -3  -6  -1    5.69    0.18
  -3  -6  -1    5.99    0.18
  -3  -6  -1    5.72    0.17
  -3  -6  -1    5.51    0.17
  -3  -6  -1    5.72    0.46
  -3  -6  -1    5.64    0.17
   3   6   1    5.86    0.18
   3   6   1    5.53    0.18
   3   6   1    5.63    0.17
   3   6   1    5.63    0.18
   3   6   1    5.61    0.18
   3   6   1    5.54    0.17
   3   6   1    5.62    0.17
   3   6   1    5.74    0.18
  -4  -6  -1    1.81    0.30
  -4  -6  -1    1.67    0.09
  -4  -6  -1    1.95    0.10
  -4  -6  -1    2.14    0.14
  -4  -6  -1    1.93    0.10
  -4  -6  -1    1.65    0.13
  -4  -6  -1    1.71    0.09
  -4  -6  -1    1.85    0.09
  -4  -6  -1    1.90    0.10
   4   6   1    1.72    0.10
   4   6   1    1.87    0.10
   4   6   1    1.95    0.10
   4   6   1    1.93    0.09
   4   6   1    1.86    0.09
   4   6   1    1.90    0.10
  -5  -6  -1   18.06    0.42
  -5  -6  -1   17.98    0.43
  -5  -6  -1   18.13    0.43
  -5  -6  -1   17.84    0.42
  -5  -6  -1   17.84    0.39
  -5  -6  -1   17.53    0.42
  -5  -6  -1   17.96    0.42
  -5  -6  -1   17.88    0.42
   5   6   1   18.04    0.42
   5   6   1   17.91    0.42
   5   6   1   17.43    0.43
   5   6   1   17.90    0.42
   5   6   1   18.23    0.43
   5   6   1   17.51    0.43
   5   6   1   17.44    0.43
  -6  -6  -1    3.09    0.14
  -6  -6  -1    3.14    0.15
  -6  -6  -1    3.16    0.14
  -6  -6  -1    3.03    0.14
  -6  -6  -1    2.85    0.14
  -6  -6  -1    3.40    0.14
  -6  -6  -1    2.94    0.14
  -6  -6  -1    3.13    0.14
   6   6   1    3.11    0.15
   6   6   1    3.27    0.14
   6   6   1    3.25    0.15
   6   6   1    3.18    0.15
   6   6   1    3.19    0.14
  -7  -6  -1    1.15    0.10
  -7  -6  -1    1.17    0.10
  -7  -6  -1    1.26    0.10
  -7  -6  -1    1.26    0.10
  -7  -6  -1    1.17    0.10
  -7  -6  -1    1.44    0.11
  -7  -6  -1    0.94    0.10
  -7  -6  -1    1.48    0.11
   7   6   1    1.34    0.10
   7   6   1    1.24    0.11
   7   6   1    1.15    0.10
   7   6   1    1.24    0.12
   7   6   1    1.05    0.10
  -8  -6  -1    3.47    0.17
  -8  -6  -1    3.47    0.20
  -8  -6  -1    3.61    0.20
  -8  -6  -1    3.83    0.17
  -8  -6  -1    3.31    0.17
  -8  -6  -1    3.62    0.18
  -8  -6  -1    3.33    0.17
  -8  -6  -1    3.66    0.18
   8   6   1    3.53    0.17
   8   6   1    3.48    0.16
   8   6   1    3.10    0.17
   8   6   1    3.65    0.17
   8   6   1    3.52    0.18
  -9  -6  -1    4.33    0.21
  -9  -6  -1    4.64    0.21
  -9  -6  -1    4.56    0.21
  -9  -6  -1    4.61    0.21
  -9  -6  -1    4.52    0.21
   9   6   1    4.32    0.22
   9   6   1    4.58    0.21
   9   6   1    4.90    0.22
   9   6   1    4.82    0.21
   9   6   1    5.21    0.21
   6  -7  -1    1.44    0.12
   6  -7  -1    1.51    0.12
   6  -7  -1    1.52    0.12
   6  -7  -1    1.39    0.11
   6  -7  -1    1.22    0.11
   6  -7  -1    1.20    0.12
  -6   7   1    1.22    0.12
  -6   7   1    1.08    0.11
   5  -7  -1    3.23    0.15
   5  -7  -1    3.15    0.16
   5  -7  -1    3.16    0.15
   5  -7  -1    3.34    0.16
  -5   7   1    3.36    0.17
  -5   7   1    3.32    0.17
   4  -7  -1    0.07    0.05
   4  -7  -1    0.02    0.04
   4  -7  -1    0.05    0.04
   4  -7  -1    0.15    0.05
   4  -7  -1    0.07    0.04
   4  -7  -1    0.19    0.17
  -4   7   1    0.04    0.05
  -4   7   1    0.12    0.05
   3  -7  -1    4.94    0.18
   3  -7  -1    4.66    0.17
   3  -7  -1    5.07    0.50
   3  -7  -1    4.79    0.17
   3  -7  -1    4.84    0.17
   3  -7  -1    4.85    0.18
   3  -7  -1    4.63    0.23
  -3   7   1    5.06    0.18
  -3   7   1    4.58    0.18
   2  -7  -1    1.14    0.09
   2  -7  -1    1.24    0.09
   2  -7  -1    1.17    0.09
   2  -7  -1    1.14    0.26
   2  -7  -1    1.23    0.09
   2  -7  -1    1.10    0.09
   2  -7  -1    1.17    0.12
  -2   7   1    1.09    0.09
  -2   7   1    1.09    0.09
  -2   7   1    1.26    0.08
   1  -7  -1    1.69    0.29
   1  -7  -1    1.72    0.09
   1  -7  -1    1.83    0.09
   1  -7  -1    1.73    0.09
   1  -7  -1    1.54    0.09
   1  -7  -1    1.69    0.28
   1  -7  -1    1.57    0.09
   1  -7  -1    1.64    0.13
   1  -7  -1    1.77    0.10
  -1   7   1    1.65    0.09
  -1   7   1    1.65    0.10
  -1   7   1    1.80    0.10
   0  -7  -1    4.08    0.20
   0  -7  -1    4.46    0.41
   0  -7  -1    3.86    0.15
   0  -7  -1    3.95    0.14
   0  -7  -1    4.12    0.14
   0  -7  -1    3.83    0.14
   0  -7  -1    4.70    0.43
   0  -7  -1    3.79    0.12
   0  -7  -1    4.01    0.14
   0   7   1    4.09    0.15
   0   7   1    4.52    0.17
   0   7   1    4.09    0.14
   0   7   1    4.14    0.15
  -1  -7  -1    0.90    0.10
  -1  -7  -1    1.04    0.08
  -1  -7  -1    0.76    0.22
  -1  -7  -1    1.02    0.07
  -1  -7  -1    1.02    0.07
  -1  -7  -1    0.94    0.10
  -1  -7  -1    1.07    0.07
  -1  -7  -1    0.99    0.07
  -1  -7  -1    1.01    0.06
  -1  -7  -1    0.74    0.22
   1   7   1    0.99    0.08
   1   7   1    1.10    0.08
   1   7   1    1.08    0.08
   1   7   1    1.04    0.08
   1   7   1    1.04    0.07
  -2  -7  -1    2.32    0.10
  -2  -7  -1    2.45    0.10
  -2  -7  -1    2.20    0.15
  -2  -7  -1    2.24    0.10
  -2  -7  -1    2.44    0.11
  -2  -7  -1    2.42    0.10
  -2  -7  -1    2.28    0.32
  -2  -7  -1    2.36    0.31
  -2  -7  -1    2.28    0.11
  -2  -7  -1    2.31    0.15
   2   7   1    2.40    0.11
   2   7   1    2.44    0.11
   2   7   1    2.39    0.11
   2   7   1    2.40    0.10
   2   7   1    2.32    0.11
  -3  -7  -1   -0.03    0.03
  -3  -7  -1    0.01    0.04
  -3  -7  -1    0.01    0.04
  -3  -7  -1    0.00    0.03
  -3  -7  -1    0.00    0.03
  -3  -7  -1   -0.02    0.03
  -3  -7  -1    0.03    0.10
  -3  -7  -1    0.05    0.03
  -3  -7  -1   -0.04    0.03
   3   7   1   -0.03    0.03
   3   7   1    0.00    0.03
   3   7   1    0.01    0.03
   3   7   1    0.05    0.04
   3   7   1    0.02    0.03
  -4  -7  -1    0.19    0.05
  -4  -7  -1    0.28    0.05
  -4  -7  -1    0.31    0.05
  -4  -7  -1    0.20    0.05
  -4  -7  -1    0.37    0.19
  -4  -7  -1    0.27    0.05
  -4  -7  -1    0.27    0.05
  -4  -7  -1    0.28    0.05
   4   7   1    0.34    0.05
   4   7   1    0.18    0.04
   4   7   1    0.26    0.05
   4   7   1    0.18    0.05
   4   7   1    0.26    0.05
  -5  -7  -1   31.14    0.68
  -5  -7  -1   31.67    0.66
  -5  -7  -1   32.41    0.70
  -5  -7  -1   31.82    0.69
  -5  -7  -1   31.64    0.69
  -5  -7  -1   30.72    0.68
  -5  -7  -1   32.01    0.69
  -5  -7  -1   31.55    0.69
   5   7   1   31.77    0.70
   5   7   1   30.44    0.70
   5   7   1   31.62    0.68
   5   7   1   31.75    0.69
   5   7   1   30.83    0.69
  -6  -7  -1    0.03    0.04
  -6  -7  -1    0.10    0.05
  -6  -7  -1    0.07    0.05
  -6  -7  -1    0.06    0.05
  -6  -7  -1    0.04    0.04
  -6  -7  -1    0.06    0.04
  -6  -7  -1    0.00    0.04
  -6  -7  -1    0.09    0.04
   6   7   1    0.05    0.05
   6   7   1    0.01    0.05
   6   7   1    0.05    0.04
   6   7   1    0.00    0.04
   6   7   1    0.12    0.05
  -7  -7  -1   10.63    0.31
  -7  -7  -1   10.67    0.31
  -7  -7  -1   10.60    0.31
  -7  -7  -1   10.38    0.31
  -7  -7  -1   10.85    0.31
  -7  -7  -1   11.04    0.32
  -7  -7  -1   10.33    0.32
  -7  -7  -1   10.53    0.32
   7   7   1   10.51    0.33
   7   7   1   10.63    0.30
   7   7   1   10.55    0.32
   7   7   1   10.69    0.32
  -8  -7  -1    1.79    0.14
  -8  -7  -1    2.09    0.14
  -8  -7  -1    1.76    0.13
  -8  -7  -1    1.80    0.14
  -8  -7  -1    1.73    0.13
  -8  -7  -1    1.76    0.13
  -8  -7  -1    1.99    0.14
  -8  -7  -1    1.70    0.13
   8   7   1    2.08    0.13
   8   7   1    1.69    0.14
   8   7   1    1.83    0.14
   8   7   1    1.99    0.15
  -9  -7  -1    1.25    0.13
  -9  -7  -1    1.07    0.12
  -9  -7  -1    1.12    0.13
  -9  -7  -1    1.26    0.13
  -9  -7  -1    1.22    0.13
   9   7   1    1.16    0.13
   9   7   1    1.19    0.13
   9   7   1    1.07    0.13
   5  -8  -1    1.26    0.12
   5  -8  -1    1.24    0.12
   5  -8  -1    1.32    0.11
   5  -8  -1    1.50    0.13
   5  -8  -1    1.16    0.12
  -5   8   1    1.24    0.12
  -5   8   1    1.44    0.13
   4  -8  -1    5.69    0.20
   4  -8  -1    5.39    0.20
   4  -8  -1    5.77    0.21
   4  -8  -1    5.67    0.22
  -4   8   1    5.58    0.22
  -4   8   1    5.37    0.21
   3  -8  -1    0.75    0.08
   3  -8  -1    0.64    0.12
   3  -8  -1    0.99    0.10
   3  -8  -1    0.64    0.26
   3  -8  -1    0.67    0.08
   3  -8  -1    0.71    0.11
   3  -8  -1    0.67    0.08
  -3   8   1    0.68    0.08
  -3   8   1    0.72    0.09
   2  -8  -1   14.14    0.44
   2  -8  -1   15.25    0.87
   2  -8  -1   13.74    0.36
   2  -8  -1   13.93    0.36
   2  -8  -1   13.95    0.36
   2  -8  -1   14.15    0.37
   2  -8  -1   13.80    0.37
  -2   8   1   13.87    0.37
  -2   8   1   14.00    0.37
   1  -8  -1    0.03    0.04
   1  -8  -1    0.06    0.04
   1  -8  -1    0.12    0.04
   1  -8  -1    0.07    0.05
   1  -8  -1    0.07    0.05
   1  -8  -1    0.19    0.16
   1  -8  -1    0.04    0.04
  -1   8   1    0.03    0.04
  -1   8   1    0.05    0.04
   0  -8  -1    0.51    0.06
   0  -8  -1    0.46    0.06
   0  -8  -1    0.46    0.06
   0  -8  -1    0.54    0.06
   0  -8  -1    0.56    0.07
   0  -8  -1    0.43    0.08
   0  -8  -1    0.25    0.16
   0  -8  -1    0.46    0.09
   0   8   1    0.58    0.07
   0   8   1    0.55    0.07
   0   8   1    0.51    0.07
  -1  -8  -1    1.03    0.08
  -1  -8  -1    1.20    0.12
  -1  -8  -1    1.14    0.07
  -1  -8  -1    1.13    0.08
  -1  -8  -1    1.17    0.09
  -1  -8  -1    1.35    0.13
  -1  -8  -1    1.45    0.30
   1   8   1    1.19    0.09
   1   8   1    1.14    0.08
   1   8   1    1.25    0.09
   1   8   1    1.11    0.09
  -2  -8  -1    1.58    0.14
  -2  -8  -1    1.54    0.08
  -2  -8  -1    1.68    0.10
  -2  -8  -1    1.78    0.14
  -2  -8  -1    1.52    0.09
  -2  -8  -1    1.62    0.10
  -2  -8  -1    1.51    0.10
  -2  -8  -1    1.61    0.31
   2   8   1    1.56    0.09
   2   8   1    1.59    0.10
   2   8   1    1.43    0.10
   2   8   1    1.46    0.10
  -3  -8  -1    3.36    0.20
  -3  -8  -1    3.67    0.13
  -3  -8  -1    3.10    0.40
  -3  -8  -1    3.24    0.14
  -3  -8  -1    3.47    0.14
  -3  -8  -1    3.31    0.14
  -3  -8  -1    3.35    0.14
  -3  -8  -1    3.47    0.20
  -3  -8  -1    3.43    0.14
   3   8   1    3.30    0.14
   3   8   1    3.31    0.15
   3   8   1    3.62    0.15
   3   8   1    3.36    0.14
  -4  -8  -1   -0.02    0.04
  -4  -8  -1    0.00    0.04
  -4  -8  -1   -0.03    0.04
  -4  -8  -1   -0.06    0.03
  -4  -8  -1    0.02    0.04
  -4  -8  -1    0.00    0.04
  -4  -8  -1    0.02    0.04
   4   8   1    0.02    0.03
   4   8   1   -0.04    0.04
   4   8   1    0.02    0.04
   4   8   1    0.01    0.04
  -5  -8  -1    0.22    0.05
  -5  -8  -1    0.24    0.06
  -5  -8  -1    0.20    0.05
  -5  -8  -1    0.19    0.05
  -5  -8  -1    0.13    0.05
  -5  -8  -1    0.14    0.05
  -5  -8  -1    0.17    0.05
  -5  -8  -1    0.13    0.04
  -5  -8  -1    0.18    0.05
   5   8   1    0.07    0.05
   5   8   1    0.10    0.05
   5   8   1    0.09    0.05
   5   8   1    0.04    0.04
  -6  -8  -1    3.53    0.16
  -6  -8  -1    3.74    0.16
  -6  -8  -1    3.22    0.16
  -6  -8  -1    3.31    0.16
  -6  -8  -1    3.77    0.16
  -6  -8  -1    3.58    0.16
  -6  -8  -1    3.42    0.16
  -6  -8  -1    3.80    0.17
   6   8   1    3.29    0.16
   6   8   1    3.55    0.17
   6   8   1    3.41    0.17
   6   8   1    3.58    0.17
  -7  -8  -1    7.64    0.26
  -7  -8  -1    7.72    0.25
  -7  -8  -1    7.70    0.27
  -7  -8  -1    7.28    0.26
  -7  -8  -1    7.67    0.26
  -7  -8  -1    7.60    0.26
  -7  -8  -1    7.78    0.25
  -7  -8  -1    7.73    0.26
   7   8   1    7.72    0.27
   7   8   1    7.81    0.28
   7   8   1    7.35    0.27
  -8  -8  -1    0.21    0.07
  -8  -8  -1    0.23    0.07
  -8  -8  -1    0.25    0.07
  -8  -8  -1    0.15    0.07
  -8  -8  -1    0.21    0.07
  -8  -8  -1    0.26    0.08
  -8  -8  -1    0.25    0.08
  -8  -8  -1    0.24    0.07
   8   8   1    0.28    0.08
   8   8   1    0.32    0.08
   8   8   1    0.28    0.08
   4  -9  -1    9.12    0.31
   4  -9  -1    9.05    0.30
   4  -9  -1    9.24    0.28
   4  -9  -1    9.12    0.29
   4  -9  -1    9.43    0.30
  -4   9   1    9.32    0.31
  -4   9   1    9.22    0.30
   3  -9  -1    2.03    0.13
   3  -9  -1    2.34    0.41
   3  -9  -1    2.17    0.14
   3  -9  -1    1.97    0.13
   3  -9  -1    2.03    0.17
   3  -9  -1    2.17    0.14
  -3   9   1    2.26    0.14
  -3   9   1    1.89    0.13
   2  -9  -1    4.25    0.17
   2  -9  -1    4.40    0.18
   2  -9  -1    4.03    0.18
   2  -9  -1    4.48    0.51
   2  -9  -1    4.08    0.17
   2  -9  -1    4.18    0.23
  -2   9   1    3.86    0.18
  -2   9   1    4.48    0.19
   1  -9  -1    3.35    0.44
   1  -9  -1    3.44    0.15
   1  -9  -1    3.27    0.20
   1  -9  -1    3.38    0.21
   1  -9  -1    3.10    0.15
   1  -9  -1    3.31    0.15
   1  -9  -1    3.08    0.15
  -1   9   1    3.46    0.16
  -1   9   1    3.69    0.16
   0  -9  -1   14.17    0.37
   0  -9  -1   13.90    0.84
   0  -9  -1   14.24    0.45
   0  -9  -1   14.21    0.44
   0  -9  -1   13.43    0.36
   0  -9  -1   14.37    0.36
   0  -9  -1   13.98    0.37
   0   9   1   13.62    0.37
   0   9   1   14.67    0.38
   0   9   1   13.99    0.37
  -1  -9  -1    2.37    0.17
  -1  -9  -1    2.60    0.13
  -1  -9  -1    2.30    0.13
  -1  -9  -1    2.31    0.12
  -1  -9  -1    2.52    0.39
  -1  -9  -1    2.51    0.12
  -1  -9  -1    2.59    0.18
  -1  -9  -1    2.47    0.13
   1   9   1    2.31    0.13
   1   9   1    2.45    0.13
   1   9   1    2.70    0.14
  -2  -9  -1    6.00    0.28
  -2  -9  -1    6.39    0.21
  -2  -9  -1    5.71    0.55
  -2  -9  -1    6.31    0.21
  -2  -9  -1    6.18    0.27
  -2  -9  -1    6.42    0.22
  -2  -9  -1    6.58    0.21
  -2  -9  -1    6.15    0.20
   2   9   1    6.26    0.22
   2   9   1    6.38    0.22
   2   9   1    6.56    0.22
  -3  -9  -1    0.09    0.05
  -3  -9  -1    0.08    0.06
  -3  -9  -1    0.14    0.05
  -3  -9  -1    0.15    0.16
  -3  -9  -1    0.16    0.05
  -3  -9  -1    0.21    0.05
  -3  -9  -1    0.15    0.04
  -3  -9  -1    0.03    0.04
   3   9   1    0.12    0.05
   3   9   1    0.22    0.06
   3   9   1    0.06    0.05
  -4  -9  -1    0.92    0.09
  -4  -9  -1    1.05    0.09
  -4  -9  -1    1.15    0.09
  -4  -9  -1    1.15    0.10
  -4  -9  -1    1.05    0.09
  -4  -9  -1    1.05    0.09
  -4  -9  -1    1.13    0.11
   4   9   1    0.89    0.09
   4   9   1    1.10    0.10
   4   9   1    1.20    0.11
  -5  -9  -1    0.33    0.06
  -5  -9  -1    0.31    0.06
  -5  -9  -1    0.30    0.07
  -5  -9  -1    0.28    0.06
  -5  -9  -1    0.27    0.06
  -5  -9  -1    0.31    0.06
  -5  -9  -1    0.25    0.06
  -5  -9  -1    0.29    0.07
  -5  -9  -1    0.28    0.06
   5   9   1    0.11    0.06
   5   9   1    0.36    0.07
   5   9   1    0.25    0.07
  -6  -9  -1    0.19    0.06
  -6  -9  -1    0.23    0.07
  -6  -9  -1    0.18    0.06
  -6  -9  -1    0.16    0.06
  -6  -9  -1    0.27    0.06
  -6  -9  -1    0.24    0.06
  -6  -9  -1    0.10    0.05
  -6  -9  -1    0.12    0.06
   6   9   1    0.17    0.07
   6   9   1    0.07    0.06
   6   9   1    0.22    0.07
  -7  -9  -1    0.46    0.08
  -7  -9  -1    0.52    0.09
  -7  -9  -1    0.46    0.08
  -7  -9  -1    0.50    0.08
  -7  -9  -1    0.44    0.08
  -7  -9  -1    0.52    0.09
  -7  -9  -1    0.40    0.07
  -7  -9  -1    0.50    0.08
   7   9   1    0.43    0.09
   7   9   1    0.48    0.09
   7   9   1    0.41    0.08
   3 -10  -1    0.01    0.05
   3 -10  -1    0.02    0.07
   3 -10  -1    0.04    0.06
   3 -10  -1    0.00    0.05
   3 -10  -1    0.00    0.06
   3 -10  -1   -0.04    0.05
  -3  10   1    0.01    0.06
  -3  10   1   -0.03    0.05
   2 -10  -1    0.15    0.07
   2 -10  -1    0.24    0.21
   2 -10  -1    0.21    0.08
   2 -10  -1    0.18    0.06
   2 -10  -1    0.13    0.06
   2 -10  -1    0.19    0.06
   2 -10  -1    0.10    0.06
  -2  10   1    0.11    0.06
  -2  10   1    0.05    0.05
   1 -10  -1    2.63    0.14
   1 -10  -1    2.53    0.18
   1 -10  -1    2.66    0.14
   1 -10  -1    2.57    0.19
   1 -10  -1    2.69    0.43
   1 -10  -1    2.51    0.15
   1 -10  -1    2.51    0.14
  -1  10   1    2.43    0.15
  -1  10   1    2.47    0.15
   0 -10  -1    1.49    0.12
   0 -10  -1    1.44    0.11
   0 -10  -1    1.51    0.11
   0 -10  -1    1.63    0.15
   0 -10  -1    1.44    0.15
   0 -10  -1    1.48    0.34
   0 -10  -1    1.71    0.12
   0  10   1    1.55    0.12
   0  10   1    1.68    0.12
   0  10   1    1.67    0.12
  -1 -10  -1    0.79    0.09
  -1 -10  -1    0.59    0.08
  -1 -10  -1    0.56    0.08
  -1 -10  -1    0.78    0.27
  -1 -10  -1    0.73    0.12
  -1 -10  -1    0.62    0.11
  -1 -10  -1    0.53    0.08
   1  10   1    0.70    0.09
   1  10   1    0.61    0.09
   1  10   1    0.60    0.08
  -2 -10  -1    0.88    0.30
  -2 -10  -1    0.77    0.09
  -2 -10  -1    0.91    0.13
  -2 -10  -1    0.90    0.09
  -2 -10  -1    1.03    0.10
  -2 -10  -1    0.75    0.08
  -2 -10  -1    0.88    0.10
   2  10   1    0.75    0.09
   2  10   1    0.84    0.10
   2  10   1    0.76    0.09
  -3 -10  -1    0.17    0.05
  -3 -10  -1    0.20    0.06
  -3 -10  -1    0.16    0.08
  -3 -10  -1    0.21    0.06
  -3 -10  -1    0.26    0.06
  -3 -10  -1    0.09    0.06
  -3 -10  -1    0.21    0.06
   3  10   1    0.09    0.06
   3  10   1    0.21    0.06
   3  10   1    0.19    0.06
  -4 -10  -1    0.08    0.05
  -4 -10  -1    0.23    0.06
  -4 -10  -1    0.03    0.05
  -4 -10  -1    0.20    0.06
  -4 -10  -1    0.16    0.06
  -4 -10  -1    0.31    0.06
  -4 -10  -1    0.16    0.06
   4  10   1    0.24    0.07
   4  10   1    0.01    0.05
   4  10   1    0.23    0.07
  -5 -10  -1   -0.10    0.04
  -5 -10  -1   -0.02    0.05
  -5 -10  -1    0.00    0.04
  -5 -10  -1   -0.04    0.04
  -5 -10  -1   -0.05    0.04
  -5 -10  -1    0.01    0.05
  -5 -10  -1   -0.04    0.05
   5  10   1   -0.04    0.05
   5  10   1   -0.03    0.05
   5  10   1   -0.02    0.05
  -6 -10  -1    0.38    0.08
  -6 -10  -1    0.42    0.08
  -6 -10  -1    0.62    0.09
  -6 -10  -1    0.47    0.09
  -6 -10  -1    0.46    0.07
  -6 -10  -1    0.44    0.09
  -6 -10  -1    0.40    0.08
  -6 -10  -1    0.48    0.08
   6  10   1    0.45    0.09
   6  10   1    0.40    0.09
   6  10   1    0.30    0.08
   1 -11  -1    1.72    0.14
   1 -11  -1    1.70    0.16
   1 -11  -1    1.35    0.14
   1 -11  -1    1.47    0.45
   1 -11  -1    1.80    0.14
   1 -11  -1    1.88    0.13
   1 -11  -1    1.90    0.12
   1 -11  -1    1.75    0.17
  -1  11   1    2.04    0.15
  -1  11   1    1.98    0.15
  -1  11   1    1.55    0.14
   0 -11  -1    0.04    0.06
   0 -11  -1   -0.03    0.06
   0 -11  -1    0.14    0.06
   0 -11  -1    0.12    0.19
   0 -11  -1    0.05    0.06
   0 -11  -1    0.13    0.08
   0 -11  -1    0.11    0.05
   0 -11  -1    0.07    0.06
   0  11   1    0.11    0.07
   0  11   1    0.10    0.06
   0  11   1    0.10    0.06
  -1 -11  -1    0.15    0.08
  -1 -11  -1    0.02    0.06
  -1 -11  -1    0.07    0.05
  -1 -11  -1    0.04    0.05
  -1 -11  -1    0.15    0.06
  -1 -11  -1    0.10    0.07
  -1 -11  -1    0.08    0.05
  -1 -11  -1    0.11    0.06
   1  11   1    0.01    0.05
   1  11   1    0.14    0.06
   1  11   1    0.08    0.06
  -2 -11  -1    2.90    0.15
  -2 -11  -1    3.10    0.18
  -2 -11  -1    2.86    0.15
  -2 -11  -1    2.68    0.20
  -2 -11  -1    2.75    0.15
  -2 -11  -1    2.94    0.16
  -2 -11  -1    2.85    0.16
   2  11   1    2.97    0.17
   2  11   1    2.77    0.16
   2  11   1    2.45    0.15
  -3 -11  -1    0.19    0.06
  -3 -11  -1    0.29    0.09
  -3 -11  -1    0.25    0.07
  -3 -11  -1    0.15    0.06
  -3 -11  -1    0.24    0.07
  -3 -11  -1    0.25    0.06
  -3 -11  -1    0.19    0.07
   3  11   1    0.23    0.07
   3  11   1    0.21    0.07
   3  11   1    0.15    0.06
  -4 -11  -1    2.14    0.15
  -4 -11  -1    2.21    0.14
  -4 -11  -1    1.88    0.14
  -4 -11  -1    2.30    0.14
  -4 -11  -1    2.42    0.15
  -4 -11  -1    2.43    0.15
  -4 -11  -1    2.19    0.12
  -4 -11  -1    2.20    0.15
   4  11   1    2.00    0.15
   4  11   1    2.12    0.15
   4  11   1    2.28    0.16
   4  10  -2    1.22    0.11
   4  10  -2    1.31    0.12
  -4 -10   2    1.16    0.28
  -4 -10   2    1.06    0.11
  -4 -10   2    1.17    0.11
  -4 -10   2    1.14    0.30
  -4 -10   2    1.17    0.10
  -4 -10   2    1.33    0.12
  -4 -10   2    1.15    0.11
   3  10  -2    0.16    0.06
   3  10  -2    0.10    0.05
  -3 -10   2    0.12    0.05
  -3 -10   2    0.01    0.05
  -3 -10   2    0.13    0.06
  -3 -10   2    0.19    0.06
  -3 -10   2    0.14    0.14
  -3 -10   2    0.21    0.16
  -3 -10   2    0.10    0.05
   2  10  -2    2.82    0.15
  -2 -10   2    2.69    0.14
  -2 -10   2    2.80    0.12
  -2 -10   2    2.48    0.14
  -2 -10   2    2.88    0.17
  -2 -10   2    2.43    0.32
  -2 -10   2    2.29    0.33
  -2 -10   2    2.75    0.14
   1  10  -2    4.23    0.18
  -1 -10   2    4.34    0.17
  -1 -10   2    3.98    0.37
  -1 -10   2    3.67    0.37
  -1 -10   2    4.39    0.21
  -1 -10   2    4.59    0.15
  -1 -10   2    4.60    0.18
  -1 -10   2    4.37    0.18
   0  10  -2    2.86    0.15
   0 -10   2    2.74    0.15
   0 -10   2    2.74    0.17
   0 -10   2    2.76    0.14
   0 -10   2    2.71    0.31
   0 -10   2    2.37    0.14
   0 -10   2    2.86    0.32
  -1  10  -2    0.50    0.08
   1 -10   2    0.42    0.07
   1 -10   2    0.25    0.14
   1 -10   2    0.24    0.14
   1 -10   2    0.49    0.08
   1 -10   2    0.38    0.09
   1 -10   2    0.41    0.07
   6   9  -2    3.28    0.18
   6   9  -2    3.25    0.18
  -6  -9   2    2.94    0.44
  -6  -9   2    3.23    0.17
  -6  -9   2    3.52    0.19
  -6  -9   2    3.43    0.18
  -6  -9   2    3.41    0.17
  -6  -9   2    3.21    0.15
  -6  -9   2    3.49    0.20
  -6  -9   2    3.21    0.10
  -6  -9   2    3.21    0.20
  -6  -9   2    3.35    0.15
   5   9  -2    1.30    0.12
   5   9  -2    1.34    0.12
  -5  -9   2    1.27    0.13
  -5  -9   2    1.11    0.11
  -5  -9   2    1.40    0.31
  -5  -9   2    1.44    0.36
  -5  -9   2    1.23    0.10
  -5  -9   2    1.16    0.11
  -5  -9   2    1.12    0.12
  -5  -9   2    1.11    0.09
  -5  -9   2    1.36    0.12
   4   9  -2    2.27    0.14
   4   9  -2    2.56    0.14
  -4  -9   2    2.45    0.14
  -4  -9   2    2.53    0.14
  -4  -9   2    2.54    0.37
  -4  -9   2    2.52    0.12
  -4  -9   2    2.47    0.14
  -4  -9   2    2.57    0.14
  -4  -9   2    2.54    0.15
  -4  -9   2    2.42    0.34
  -4  -9   2    2.43    0.13
  -4  -9   2    2.61    0.12
   3   9  -2    0.58    0.08
   3   9  -2    0.58    0.08
  -3  -9   2    0.54    0.07
  -3  -9   2    0.59    0.08
  -3  -9   2    0.75    0.08
  -3  -9   2    0.59    0.07
  -3  -9   2    0.76    0.22
  -3  -9   2    0.53    0.06
  -3  -9   2    0.60    0.07
  -3  -9   2    0.68    0.08
  -3  -9   2    0.81    0.24
  -3  -9   2    0.63    0.08
   2   9  -2    0.32    0.06
   2   9  -2    0.23    0.06
  -2  -9   2    0.24    0.05
  -2  -9   2    0.23    0.06
  -2  -9   2    0.39    0.17
  -2  -9   2    0.22    0.06
  -2  -9   2    0.16    0.05
  -2  -9   2    0.25    0.04
  -2  -9   2    0.36    0.16
  -2  -9   2    0.36    0.06
   1   9  -2    3.74    0.16
   1   9  -2    3.81    0.16
  -1  -9   2    3.87    0.35
  -1  -9   2    3.69    0.18
  -1  -9   2    3.83    0.13
  -1  -9   2    4.09    0.37
  -1  -9   2    3.81    0.16
  -1  -9   2    3.39    0.15
  -1  -9   2    3.61    0.15
   0   9  -2    1.02    0.09
   0   9  -2    1.19    0.10
   0  -9   2    1.18    0.23
   0  -9   2    0.99    0.09
   0  -9   2    1.29    0.23
   0  -9   2    1.07    0.10
   0  -9   2    1.21    0.09
   0  -9   2    1.04    0.11
  -1   9  -2    4.40    0.17
   1  -9   2    4.38    0.20
   1  -9   2    4.53    0.18
   1  -9   2    4.34    0.17
   1  -9   2    3.92    0.35
   1  -9   2    4.34    0.17
   1  -9   2    4.01    0.36
   2  -9   2    2.54    0.13
   2  -9   2    2.56    0.14
   2  -9   2    2.21    0.27
   2  -9   2    2.94    0.17
   2  -9   2    2.50    0.13
   2  -9   2    2.55    0.30
   3  -9   2    0.49    0.07
   3  -9   2    0.38    0.07
   3  -9   2    0.32    0.15
   3  -9   2    0.34    0.08
   3  -9   2    0.55    0.08
   3  -9   2    0.34    0.15
   7   8  -2    1.87    0.14
   7   8  -2    2.08    0.15
   7   8  -2    2.37    0.15
  -7  -8   2    2.02    0.10
  -7  -8   2    1.67    0.39
  -7  -8   2    2.15    0.19
  -7  -8   2    2.13    0.15
  -7  -8   2    2.03    0.13
  -7  -8   2    2.20    0.14
  -7  -8   2    2.31    0.13
  -7  -8   2    2.27    0.15
  -7  -8   2    2.05    0.18
  -7  -8   2    2.14    0.13
  -7  -8   2    2.32    0.15
   6   8  -2    0.02    0.05
   6   8  -2    0.02    0.05
   6   8  -2   -0.02    0.05
  -6  -8   2    0.02    0.06
  -6  -8   2    0.04    0.06
  -6  -8   2    0.01    0.04
  -6  -8   2    0.05    0.04
  -6  -8   2    0.07    0.05
  -6  -8   2    0.03    0.05
  -6  -8   2    0.04    0.07
  -6  -8   2    0.01    0.03
  -6  -8   2   -0.03    0.02
  -6  -8   2    0.01    0.12
  -6  -8   2   -0.01    0.04
  -6  -8   2    0.03    0.05
   5   8  -2    0.23    0.06
   5   8  -2    0.24    0.06
   5   8  -2    0.20    0.06
  -5  -8   2    0.21    0.03
  -5  -8   2    0.15    0.15
  -5  -8   2    0.12    0.14
  -5  -8   2    0.18    0.07
  -5  -8   2    0.24    0.06
  -5  -8   2    0.14    0.05
  -5  -8   2    0.21    0.03
  -5  -8   2    0.15    0.05
  -5  -8   2    0.22    0.05
  -5  -8   2    0.17    0.07
  -5  -8   2    0.13    0.05
  -5  -8   2    0.15    0.06
   4   8  -2    0.15    0.05
   4   8  -2    0.15    0.05
  -4  -8   2    0.21    0.06
  -4  -8   2    0.18    0.05
  -4  -8   2    0.30    0.16
  -4  -8   2    0.25    0.06
  -4  -8   2    0.15    0.05
  -4  -8   2    0.22    0.05
  -4  -8   2    0.35    0.17
  -4  -8   2    0.17    0.05
  -4  -8   2    0.17    0.05
  -4  -8   2    0.19    0.05
  -4  -8   2    0.19    0.05
   3   8  -2    4.82    0.18
   3   8  -2    4.75    0.18
  -3  -8   2    4.67    0.17
  -3  -8   2    4.94    0.16
  -3  -8   2    4.98    0.19
  -3  -8   2    4.88    0.18
  -3  -8   2    4.77    0.43
  -3  -8   2    4.69    0.17
  -3  -8   2    4.99    0.16
  -3  -8   2    4.90    0.42
  -3  -8   2    4.94    0.16
  -3  -8   2    4.90    0.18
  -3  -8   2    4.99    0.19
   2   8  -2    0.21    0.05
   2   8  -2    0.15    0.05
  -2  -8   2    0.15    0.12
  -2  -8   2    0.26    0.04
  -2  -8   2    0.10    0.04
  -2  -8   2    0.15    0.04
  -2  -8   2    0.27    0.04
  -2  -8   2    0.12    0.12
  -2  -8   2    0.21    0.05
  -2  -8   2    0.21    0.04
  -2  -8   2    0.19    0.05
  -2  -8   2    0.24    0.05
   1   8  -2    0.15    0.04
   1   8  -2    0.11    0.05
  -1  -8   2    0.13    0.03
  -1  -8   2    0.11    0.05
  -1  -8   2    0.18    0.04
  -1  -8   2    0.13    0.11
  -1  -8   2    0.21    0.12
  -1  -8   2    0.14    0.04
  -1  -8   2    0.09    0.04
  -1  -8   2    0.13    0.04
   0   8  -2    0.08    0.04
   0   8  -2    0.07    0.04
   0  -8   2    0.08    0.03
   0  -8   2    0.01    0.03
   0  -8   2    0.11    0.04
   0  -8   2    0.09    0.04
   0  -8   2   -0.02    0.05
   0  -8   2    0.16    0.11
   0  -8   2    0.09    0.10
  -1   8  -2   12.62    0.32
   1  -8   2   12.11    0.35
   1  -8   2   11.98    0.27
   1  -8   2   12.16    0.31
   1  -8   2   12.47    0.32
   1  -8   2   11.21    0.57
   1  -8   2   12.49    0.31
   1  -8   2   11.07    0.55
  -2   8  -2    1.51    0.10
   2  -8   2    1.50    0.24
   2  -8   2    1.37    0.10
   2  -8   2    1.42    0.10
   2  -8   2    1.36    0.23
   2  -8   2    1.45    0.10
   2  -8   2    1.78    0.13
  -3   8  -2    1.49    0.11
   3  -8   2    1.37    0.12
   3  -8   2    1.21    0.23
   3  -8   2    1.43    0.10
   3  -8   2    1.15    0.23
   3  -8   2    1.28    0.10
   3  -8   2    1.47    0.10
   4  -8   2    1.24    0.10
   4  -8   2    1.24    0.25
   4  -8   2    1.11    0.11
   4  -8   2    1.10    0.24
   4  -8   2    0.98    0.10
   4  -8   2    1.32    0.11
   5  -8   2    3.07    0.16
   5  -8   2    2.82    0.17
   5  -8   2    2.68    0.35
   5  -8   2    2.89    0.15
   5  -8   2    2.67    0.35
   5  -8   2    2.86    0.16
   8   7  -2    1.83    0.15
   8   7  -2    1.78    0.14
   8   7  -2    1.91    0.15
  -8  -7   2    1.62    0.13
  -8  -7   2    2.10    0.14
  -8  -7   2    1.91    0.12
  -8  -7   2    1.98    0.14
  -8  -7   2    1.99    0.14
  -8  -7   2    1.66    0.14
  -8  -7   2    1.78    0.13
  -8  -7   2    1.84    0.14
   7   7  -2    3.48    0.17
   7   7  -2    3.62    0.18
   7   7  -2    3.56    0.18
  -7  -7   2    3.40    0.16
  -7  -7   2    3.49    0.17
  -7  -7   2    3.29    0.16
  -7  -7   2    3.19    0.22
  -7  -7   2    3.02    0.26
  -7  -7   2    3.34    0.17
  -7  -7   2    3.39    0.16
  -7  -7   2    3.55    0.16
  -7  -7   2    3.41    0.14
  -7  -7   2    3.58    0.17
   6   7  -2    2.08    0.13
   6   7  -2    2.26    0.13
   6   7  -2    2.18    0.13
  -6  -7   2    2.20    0.17
  -6  -7   2    2.10    0.13
  -6  -7   2    2.22    0.12
  -6  -7   2    2.23    0.12
  -6  -7   2    2.08    0.12
  -6  -7   2    2.25    0.10
  -6  -7   2    2.18    0.36
  -6  -7   2    2.12    0.13
  -6  -7   2    2.37    0.14
  -6  -7   2    2.11    0.12
  -6  -7   2    2.40    0.17
   5   7  -2    0.80    0.09
   5   7  -2    0.90    0.09
   5   7  -2    0.76    0.08
  -5  -7   2    0.74    0.10
  -5  -7   2    0.72    0.08
  -5  -7   2    0.74    0.08
  -5  -7   2    0.68    0.07
  -5  -7   2    0.69    0.06
  -5  -7   2    0.74    0.23
  -5  -7   2    0.77    0.08
  -5  -7   2    0.78    0.08
  -5  -7   2    0.76    0.07
  -5  -7   2    0.67    0.07
  -5  -7   2    0.76    0.10
  -5  -7   2    0.71    0.23
  -5  -7   2    0.83    0.06
  -5  -7   2    0.77    0.08
   4   7  -2    5.18    0.19
   4   7  -2    5.13    0.19
   4   7  -2    5.52    0.19
  -4  -7   2    5.33    0.17
  -4  -7   2    5.75    0.46
  -4  -7   2    5.53    0.14
  -4  -7   2    5.36    0.17
  -4  -7   2    5.15    0.14
  -4  -7   2    5.43    0.17
  -4  -7   2    5.35    0.17
  -4  -7   2    5.11    0.18
  -4  -7   2    5.44    0.18
  -4  -7   2    5.39    0.18
  -4  -7   2    5.40    0.22
  -4  -7   2    5.33    0.19
  -4  -7   2    5.88    0.22
  -4  -7   2    6.70    0.51
   3   7  -2    8.89    0.25
   3   7  -2    8.79    0.25
   3   7  -2    8.41    0.25
  -3  -7   2    9.02    0.27
  -3  -7   2    8.42    0.24
  -3  -7   2    8.70    0.23
  -3  -7   2    9.33    0.55
  -3  -7   2    9.59    0.27
  -3  -7   2    8.41    0.24
  -3  -7   2   10.12    0.57
  -3  -7   2    8.76    0.23
  -3  -7   2    8.40    0.23
  -3  -7   2    8.69    0.25
  -3  -7   2    8.59    0.24
   2   7  -2    0.52    0.06
   2   7  -2    0.70    0.07
   2   7  -2    0.53    0.06
  -2  -7   2    0.52    0.07
  -2  -7   2    0.60    0.05
  -2  -7   2    0.57    0.07
  -2  -7   2    0.67    0.06
  -2  -7   2    0.55    0.06
  -2  -7   2    0.51    0.06
  -2  -7   2    0.44    0.16
  -2  -7   2    0.59    0.06
  -2  -7   2    0.59    0.05
  -2  -7   2    0.47    0.06
  -2  -7   2    0.56    0.17
   1   7  -2    1.02    0.09
   1   7  -2    1.08    0.08
   1   7  -2    0.93    0.08
  -1  -7   2    1.31    0.21
  -1  -7   2    1.04    0.19
  -1  -7   2    1.02    0.09
  -1  -7   2    0.96    0.06
  -1  -7   2    0.85    0.07
  -1  -7   2    0.96    0.07
  -1  -7   2    0.95    0.06
  -1  -7   2    0.91    0.07
   0   7  -2    1.34    0.08
   0   7  -2    1.34    0.08
   0  -7   2    1.14    0.19
   0  -7   2    1.03    0.19
   0  -7   2    1.25    0.10
   0  -7   2    1.37    0.08
   0  -7   2    1.49    0.07
   0  -7   2    1.23    0.08
   0  -7   2    1.27    0.08
   0  -7   2    1.29    0.06
  -1   7  -2    0.52    0.06
   1  -7   2    0.58    0.06
   1  -7   2    0.56    0.05
   1  -7   2    0.58    0.06
   1  -7   2    0.60    0.16
   1  -7   2    0.44    0.07
   1  -7   2    0.54    0.06
   1  -7   2    0.57    0.16
  -2   7  -2    2.50    0.12
   2  -7   2    2.53    0.12
   2  -7   2    2.47    0.11
   2  -7   2    2.55    0.14
   2  -7   2    1.92    0.25
   2  -7   2    2.65    0.09
   2  -7   2    2.55    0.11
  -3   7  -2    0.07    0.04
   3  -7   2    0.05    0.04
   3  -7   2    0.01    0.09
   3  -7   2    0.02    0.03
   3  -7   2    0.18    0.06
   3  -7   2    0.04    0.10
   3  -7   2    0.11    0.04
   3  -7   2    0.08    0.03
  -4   7  -2    3.25    0.15
   4  -7   2    3.58    0.36
   4  -7   2    3.23    0.14
   4  -7   2    3.21    0.34
   4  -7   2    3.25    0.15
   4  -7   2    3.10    0.16
   4  -7   2    3.16    0.14
   4  -7   2    3.26    0.12
  -5   7  -2    0.96    0.10
   5  -7   2    0.98    0.10
   5  -7   2    1.17    0.12
   5  -7   2    1.06    0.10
   5  -7   2    0.90    0.24
   5  -7   2    0.96    0.25
   5  -7   2    1.09    0.10
  -6   7  -2    0.68    0.09
   6  -7   2    0.54    0.08
   6  -7   2    0.68    0.24
   6  -7   2    0.65    0.09
   6  -7   2    0.48    0.21
   6  -7   2    0.73    0.09
   6  -7   2    0.68    0.10
   8   6  -2    0.22    0.07
   8   6  -2    0.15    0.07
   8   6  -2    0.16    0.06
  -8  -6   2    0.29    0.07
  -8  -6   2    0.21    0.06
  -8  -6   2    0.28    0.06
  -8  -6   2    0.19    0.07
  -8  -6   2    0.20    0.07
  -8  -6   2    0.27    0.07
  -8  -6   2    0.12    0.06
  -8  -6   2    0.21    0.05
   7   6  -2    0.62    0.09
   7   6  -2    0.55    0.08
   7   6  -2    0.38    0.07
  -7  -6   2    0.49    0.07
  -7  -6   2    0.31    0.06
  -7  -6   2    0.41    0.07
  -7  -6   2    0.35    0.07
  -7  -6   2    0.44    0.10
  -7  -6   2    0.49    0.06
  -7  -6   2    0.47    0.07
  -7  -6   2    0.49    0.08
  -7  -6   2    0.25    0.06
   6   6  -2    0.10    0.05
   6   6  -2    0.09    0.05
   6   6  -2    0.16    0.06
  -6  -6   2    0.12    0.05
  -6  -6   2    0.09    0.05
  -6  -6   2    0.17    0.05
  -6  -6   2    0.23    0.05
  -6  -6   2    0.18    0.07
  -6  -6   2    0.16    0.05
  -6  -6   2    0.15    0.05
  -6  -6   2    0.14    0.04
  -6  -6   2    0.16    0.06
  -6  -6   2    0.20    0.15
  -6  -6   2    0.14    0.05
   5   6  -2   13.33    0.34
   5   6  -2   13.15    0.34
   5   6  -2   13.70    0.35
  -5  -6   2   13.16    0.32
  -5  -6   2   12.28    0.39
  -5  -6   2   13.42    0.31
  -5  -6   2   13.49    0.33
  -5  -6   2   12.86    0.40
  -5  -6   2   12.78    0.30
  -5  -6   2   13.23    0.33
  -5  -6   2   13.61    0.33
  -5  -6   2   12.84    0.32
  -5  -6   2   13.45    0.34
  -5  -6   2   13.25    0.30
  -5  -6   2   11.80    0.72
  -5  -6   2   13.42    0.34
  -5  -6   2   12.25    0.72
   4   6  -2    3.57    0.14
   4   6  -2    3.68    0.14
   4   6  -2    3.68    0.14
  -4  -6   2    3.71    0.17
  -4  -6   2    3.50    0.11
  -4  -6   2    3.51    0.13
  -4  -6   2    3.48    0.13
  -4  -6   2    3.76    0.13
  -4  -6   2    3.59    0.36
  -4  -6   2    3.73    0.13
  -4  -6   2    3.74    0.13
  -4  -6   2    3.73    0.14
  -4  -6   2    3.82    0.11
  -4  -6   2    3.64    0.36
  -4  -6   2    3.65    0.14
  -4  -6   2    3.55    0.14
  -4  -6   2    3.44    0.17
   3   6  -2    7.29    0.21
   3   6  -2    7.00    0.20
   3   6  -2    7.23    0.20
  -3  -6   2    7.00    0.20
  -3  -6   2    7.00    0.19
  -3  -6   2    6.70    0.22
  -3  -6   2    7.64    0.19
  -3  -6   2    7.13    0.20
  -3  -6   2    6.89    0.45
  -3  -6   2    7.16    0.16
  -3  -6   2    6.99    0.21
  -3  -6   2    7.18    0.16
  -3  -6   2    6.75    0.45
  -3  -6   2    7.48    0.20
  -3  -6   2    7.07    0.19
  -3  -6   2    7.14    0.23
  -3  -6   2    7.17    0.19
  -3  -6   2    6.89    0.20
   2   6  -2   -0.02    0.03
   2   6  -2    0.04    0.03
   2   6  -2    0.05    0.03
  -2  -6   2    0.04    0.08
  -2  -6   2    0.01    0.03
  -2  -6   2    0.03    0.02
  -2  -6   2   -0.02    0.03
  -2  -6   2    0.00    0.08
  -2  -6   2    0.03    0.03
  -2  -6   2    0.03    0.02
  -2  -6   2    0.05    0.03
  -2  -6   2    0.03    0.03
  -2  -6   2    0.04    0.03
  -2  -6   2    0.00    0.02
  -2  -6   2    0.01    0.02
   1   6  -2    5.64    0.16
   1   6  -2    5.45    0.16
   1   6  -2    5.39    0.16
  -1  -6   2    5.11    0.15
  -1  -6   2    5.50    0.16
  -1  -6   2    5.29    0.16
  -1  -6   2    5.54    0.14
  -1  -6   2    5.43    0.16
  -1  -6   2    5.54    0.35
  -1  -6   2    5.49    0.14
  -1  -6   2    5.56    0.34
  -1  -6   2    5.39    0.15
  -1  -6   2    5.07    0.18
   0   6  -2    2.34    0.10
   0   6  -2    2.39    0.10
   0   6  -2    2.42    0.10
   0  -6   2    2.53    0.23
   0  -6   2    2.30    0.09
   0  -6   2    2.56    0.08
   0  -6   2    2.59    0.10
   0  -6   2    2.54    0.12
   0  -6   2    2.55    0.08
   0  -6   2    2.57    0.24
   0  -6   2    2.45    0.10
  -1   6  -2    0.23    0.04
  -1   6  -2    0.25    0.04
   1  -6   2    0.24    0.04
   1  -6   2    0.23    0.04
   1  -6   2    0.30    0.12
   1  -6   2    0.21    0.05
   1  -6   2    0.18    0.04
   1  -6   2    0.23    0.03
   1  -6   2    0.38    0.12
  -2   6  -2    3.89    0.16
  -2   6  -2    4.27    0.14
   2  -6   2    4.07    0.31
   2  -6   2    3.98    0.31
   2  -6   2    3.89    0.16
   2  -6   2    3.93    0.13
   2  -6   2    3.75    0.13
   2  -6   2    3.73    0.14
   2  -6   2    3.90    0.12
  -3   6  -2    1.56    0.09
   3  -6   2    1.49    0.09
   3  -6   2    1.53    0.11
   3  -6   2    1.72    0.24
   3  -6   2    1.54    0.07
   3  -6   2    1.50    0.09
   3  -6   2    1.84    0.24
   3  -6   2    1.58    0.09
  -4   6  -2    3.37    0.14
   4  -6   2    3.32    0.14
   4  -6   2    3.48    0.13
   4  -6   2    3.33    0.16
   4  -6   2    3.51    0.14
   4  -6   2    3.51    0.12
   4  -6   2    3.20    0.13
   4  -6   2    3.41    0.34
   4  -6   2    3.65    0.35
  -5   6  -2    2.76    0.14
   5  -6   2    2.58    0.13
   5  -6   2    2.27    0.31
   5  -6   2    2.51    0.11
   5  -6   2    2.58    0.13
   5  -6   2    2.52    0.13
   5  -6   2    2.64    0.13
   5  -6   2    2.57    0.33
   5  -6   2    2.49    0.14
  -6   6  -2    0.05    0.05
   6  -6   2    0.07    0.04
   6  -6   2    0.02    0.04
   6  -6   2    0.06    0.05
   6  -6   2    0.12    0.05
   6  -6   2    0.02    0.11
   6  -6   2    0.04    0.13
   6  -6   2    0.04    0.05
   6  -6   2    0.07    0.05
  -7   6  -2    3.10    0.17
   7  -6   2    3.47    0.15
   7  -6   2    3.17    0.17
   7  -6   2    2.94    0.17
   7  -6   2    3.18    0.16
   7  -6   2    2.51    0.39
   7  -6   2    2.75    0.41
   7  -6   2    3.25    0.17
   9   5  -2   -0.03    0.06
   9   5  -2    0.13    0.06
   9   5  -2   -0.04    0.06
  -9  -5   2   -0.05    0.04
  -9  -5   2    0.08    0.06
  -9  -5   2   -0.01    0.06
  -9  -5   2    0.08    0.07
  -9  -5   2   -0.01    0.05
  -9  -5   2   -0.05    0.05
  -9  -5   2   -0.04    0.05
  -9  -5   2    0.11    0.06
   8   5  -2   -0.04    0.05
   8   5  -2    0.01    0.05
   8   5  -2   -0.01    0.05
  -8  -5   2    0.00    0.04
  -8  -5   2   -0.03    0.04
  -8  -5   2   -0.06    0.04
  -8  -5   2   -0.02    0.04
  -8  -5   2    0.00    0.05
  -8  -5   2   -0.04    0.05
  -8  -5   2    0.00    0.06
  -8  -5   2   -0.02    0.05
   7   5  -2    3.37    0.16
   7   5  -2    3.38    0.16
   7   5  -2    3.53    0.16
  -7  -5   2    3.37    0.15
  -7  -5   2    3.07    0.14
  -7  -5   2    3.54    0.16
  -7  -5   2    3.48    0.16
  -7  -5   2    3.77    0.23
  -7  -5   2    3.30    0.15
  -7  -5   2    3.40    0.16
  -7  -5   2    3.23    0.15
  -7  -5   2    3.42    0.16
   6   5  -2   25.39    0.59
   6   5  -2   25.30    0.59
   6   5  -2   26.34    0.59
  -6  -5   2   26.42    0.58
  -6  -5   2   25.17    0.66
  -6  -5   2   24.81    0.58
  -6  -5   2   25.93    0.57
  -6  -5   2   25.88    0.67
  -6  -5   2   25.93    1.15
  -6  -5   2   25.74    0.57
  -6  -5   2   25.96    0.58
  -6  -5   2   25.83    0.59
  -6  -5   2   26.03    0.58
  -6  -5   2   26.34    0.56
   5   5  -2    6.70    0.20
   5   5  -2    6.55    0.20
   5   5  -2    6.10    0.20
  -5  -5   2    6.36    0.19
  -5  -5   2    6.62    0.19
  -5  -5   2    6.52    0.19
  -5  -5   2    6.43    0.19
  -5  -5   2    6.34    0.20
  -5  -5   2    5.62    0.24
  -5  -5   2    6.42    0.17
  -5  -5   2    6.14    0.19
  -5  -5   2    5.29    0.47
  -5  -5   2    5.77    0.19
  -5  -5   2    6.31    0.19
  -5  -5   2    5.89    0.17
  -5  -5   2    6.11    0.25
  -5  -5   2    6.45    0.18
   4   5  -2   25.04    0.54
   4   5  -2   24.89    0.54
   4   5  -2   24.78    0.55
   4   5  -2   24.48    0.56
  -4  -5   2   25.91    0.98
  -4  -5   2   24.78    0.60
  -4  -5   2   24.45    0.59
  -4  -5   2   24.18    0.53
  -4  -5   2   24.93    0.54
  -4  -5   2   25.08    0.53
  -4  -5   2   25.27    0.54
  -4  -5   2   24.12    0.53
  -4  -5   2   24.80    0.51
  -4  -5   2   24.97    0.96
  -4  -5   2   24.83    0.53
  -4  -5   2   24.93    0.53
  -4  -5   2   25.06    0.54
  -4  -5   2   25.49    0.51
  -4  -5   2   24.83    0.53
   3   5  -2    0.05    0.03
   3   5  -2    0.02    0.03
   3   5  -2    0.01    0.02
   3   5  -2    0.03    0.03
  -3  -5   2    0.02    0.02
  -3  -5   2    0.03    0.03
  -3  -5   2   -0.01    0.07
  -3  -5   2    0.01    0.03
  -3  -5   2    0.02    0.02
  -3  -5   2    0.03    0.03
  -3  -5   2    0.05    0.04
  -3  -5   2    0.00    0.02
  -3  -5   2    0.01    0.02
  -3  -5   2    0.04    0.03
  -3  -5   2    0.04    0.02
  -3  -5   2   -0.01    0.07
  -3  -5   2    0.00    0.02
  -3  -5   2    0.05    0.02
  -3  -5   2    0.01    0.02
   2   5  -2    0.04    0.03
   2   5  -2    0.08    0.02
   2   5  -2    0.06    0.03
   2   5  -2    0.05    0.03
   2   5  -2    0.06    0.03
  -2  -5   2    0.06    0.03
  -2  -5   2    0.09    0.02
  -2  -5   2    0.09    0.03
  -2  -5   2    0.08    0.02
  -2  -5   2    0.08    0.03
  -2  -5   2    0.04    0.02
  -2  -5   2    0.09    0.08
  -2  -5   2    0.13    0.09
  -2  -5   2    0.02    0.03
  -2  -5   2    0.07    0.03
  -2  -5   2    0.07    0.03
  -2  -5   2    0.05    0.03
  -2  -5   2    0.04    0.02
   1   5  -2   67.78    1.29
   1   5  -2   65.33    1.29
   1   5  -2   66.14    1.29
   1   5  -2   66.87    1.30
  -1  -5   2   68.25    1.60
  -1  -5   2   65.19    1.57
  -1  -5   2   67.01    1.26
  -1  -5   2   66.55    1.27
  -1  -5   2   66.11    1.28
  -1  -5   2   66.10    1.28
  -1  -5   2   66.91    1.27
  -1  -5   2   65.47    1.29
  -1  -5   2   67.34    1.28
  -1  -5   2   64.88    1.27
  -1  -5   2   65.01    1.31
   0   5  -2    9.68    0.23
   0   5  -2    9.37    0.23
   0   5  -2    9.59    0.23
   0   5  -2    9.39    0.23
   0  -5   2    9.61    0.41
   0  -5   2    9.64    0.22
   0  -5   2    9.62    0.22
   0  -5   2    9.46    0.21
   0  -5   2    9.24    0.25
   0  -5   2    9.60    0.41
   0  -5   2    9.55    0.23
   0  -5   2    9.65    0.21
  -1   5  -2   10.69    0.25
  -1   5  -2   10.57    0.26
  -1   5  -2   10.55    0.25
   1  -5   2   10.13    0.24
   1  -5   2   10.46    0.28
   1  -5   2   11.28    0.45
   1  -5   2   10.62    0.25
   1  -5   2   10.85    0.23
   1  -5   2   10.57    0.25
   1  -5   2   10.54    0.43
   1  -5   2   10.90    0.25
  -2   5  -2    1.71    0.08
  -2   5  -2    1.47    0.08
   2  -5   2    1.42    0.07
   2  -5   2    1.41    0.07
   2  -5   2    1.48    0.06
   2  -5   2    1.13    0.17
   2  -5   2    1.21    0.18
   2  -5   2    1.52    0.08
   2  -5   2    1.49    0.07
   2  -5   2    1.58    0.09
  -3   5  -2   71.05    1.40
  -3   5  -2   72.25    1.41
   3  -5   2   70.84    1.40
   3  -5   2   69.31    1.40
   3  -5   2   72.10    1.80
   3  -5   2   70.88    1.43
   3  -5   2   71.24    1.79
   3  -5   2   71.79    1.40
   3  -5   2   71.56    1.39
   3  -5   2   72.76    1.38
  -4   5  -2    5.47    0.17
  -4   5  -2    5.24    0.17
   4  -5   2    5.35    0.15
   4  -5   2    5.49    0.17
   4  -5   2    5.29    0.17
   4  -5   2    5.05    0.17
   4  -5   2    5.03    0.18
   4  -5   2    5.33    0.17
   4  -5   2    4.39    0.37
   4  -5   2    4.43    0.37
  -5   5  -2    1.60    0.10
   5  -5   2    1.42    0.10
   5  -5   2    1.50    0.10
   5  -5   2    1.56    0.27
   5  -5   2    1.59    0.11
   5  -5   2    1.75    0.09
   5  -5   2    1.52    0.10
   5  -5   2    1.43    0.26
   5  -5   2    1.56    0.10
  -6   5  -2    6.23    0.22
  -6   5  -2    5.73    0.22
   6  -5   2    6.00    0.19
   6  -5   2    5.95    0.21
   6  -5   2    6.42    0.23
   6  -5   2    5.63    0.48
   6  -5   2    6.03    0.21
   6  -5   2    5.91    0.21
   6  -5   2    6.02    0.19
   6  -5   2    5.81    0.21
   6  -5   2    6.08    0.51
  -7   5  -2    0.14    0.07
  -7   5  -2    0.19    0.06
   7  -5   2    0.13    0.17
   7  -5   2    0.16    0.05
   7  -5   2    0.10    0.15
   7  -5   2    0.22    0.06
   7  -5   2    0.15    0.06
   7  -5   2    0.14    0.06
   7  -5   2    0.16    0.06
   7  -5   2    0.06    0.05
   9   4  -2    0.14    0.07
   9   4  -2    0.15    0.07
   9   4  -2    0.20    0.07
  -9  -4   2    0.02    0.06
  -9  -4   2    0.18    0.07
  -9  -4   2    0.18    0.07
  -9  -4   2    0.05    0.06
  -9  -4   2    0.10    0.06
  -9  -4   2    0.09    0.06
  -9  -4   2    0.09    0.06
  -9  -4   2    0.16    0.07
   8   4  -2    3.23    0.17
   8   4  -2    3.36    0.17
   8   4  -2    3.28    0.17
  -8  -4   2    3.34    0.16
  -8  -4   2    3.49    0.16
  -8  -4   2    3.32    0.16
  -8  -4   2    2.96    0.16
  -8  -4   2    3.33    0.16
  -8  -4   2    3.29    0.17
  -8  -4   2    3.36    0.17
  -8  -4   2    3.13    0.15
   7   4  -2   16.58    0.43
   7   4  -2   16.74    0.43
   7   4  -2   17.33    0.43
  -7  -4   2   17.18    0.42
  -7  -4   2   16.72    0.43
  -7  -4   2   17.32    0.42
  -7  -4   2   17.28    0.43
  -7  -4   2   17.16    0.43
  -7  -4   2   16.26    0.42
  -7  -4   2   17.28    0.41
  -7  -4   2   16.64    0.41
   6   4  -2    1.62    0.10
   6   4  -2    1.62    0.11
   6   4  -2    1.56    0.09
   6   4  -2    1.66    0.11
  -6  -4   2    1.64    0.10
  -6  -4   2    1.43    0.10
  -6  -4   2    1.50    0.10
  -6  -4   2    1.60    0.14
  -6  -4   2    1.34    0.10
  -6  -4   2    1.41    0.10
  -6  -4   2    1.59    0.09
  -6  -4   2    1.45    0.09
  -6  -4   2    1.49    0.10
  -6  -4   2    1.81    0.31
  -6  -4   2    1.70    0.14
   5   4  -2   18.28    0.43
   5   4  -2   19.03    0.41
   5   4  -2   18.64    0.43
   5   4  -2   18.38    0.43
  -5  -4   2   18.92    0.42
  -5  -4   2   17.53    0.85
  -5  -4   2   18.63    0.42
  -5  -4   2   18.35    0.43
  -5  -4   2   18.81    0.50
  -5  -4   2   18.44    0.42
  -5  -4   2   18.37    0.42
  -5  -4   2   17.42    0.49
  -5  -4   2   19.31    0.43
  -5  -4   2   19.32    0.39
  -5  -4   2   18.12    0.41
  -5  -4   2   18.49    0.43
  -5  -4   2   18.52    0.41
  -5  -4   2   16.63    0.81
  -5  -4   2   18.53    0.42
   4   4  -2   17.01    0.38
   4   4  -2   16.93    0.39
   4   4  -2   16.73    0.38
   4   4  -2   17.21    0.37
  -4  -4   2   16.35    0.38
  -4  -4   2   16.64    0.44
  -4  -4   2   17.09    0.39
  -4  -4   2   16.72    0.37
  -4  -4   2   16.20    0.37
  -4  -4   2   17.24    0.75
  -4  -4   2   16.49    0.36
  -4  -4   2   16.95    0.75
  -4  -4   2   16.66    0.39
  -4  -4   2   16.84    0.37
  -4  -4   2   16.64    0.38
  -4  -4   2   16.80    0.44
  -4  -4   2   16.95    0.38
  -4  -4   2   17.24    0.36
  -4  -4   2   17.49    0.36
   3   4  -2   -0.01    0.02
   3   4  -2    0.03    0.03
   3   4  -2    0.08    0.02
   3   4  -2   -0.01    0.02
   3   4  -2    0.08    0.03
  -3  -4   2    0.01    0.02
  -3  -4   2    0.00    0.06
  -3  -4   2    0.01    0.02
  -3  -4   2    0.01    0.03
  -3  -4   2    0.05    0.03
  -3  -4   2    0.01    0.03
  -3  -4   2    0.01    0.02
  -3  -4   2    0.01    0.07
  -3  -4   2   -0.02    0.02
  -3  -4   2    0.03    0.02
  -3  -4   2    0.04    0.02
  -3  -4   2    0.05    0.02
  -3  -4   2    0.04    0.02
  -3  -4   2    0.05    0.03
  -3  -4   2   -0.01    0.02
   2   4  -2   27.92    0.59
   2   4  -2   28.43    0.60
   2   4  -2   29.56    0.58
   2   4  -2   29.09    0.59
   2   4  -2   29.74    0.59
  -2  -4   2   28.52    0.58
  -2  -4   2   29.19    0.59
  -2  -4   2   29.12    0.60
  -2  -4   2   29.85    0.58
  -2  -4   2   29.48    0.58
  -2  -4   2   29.23    0.61
  -2  -4   2   30.08    0.61
  -2  -4   2   28.94    0.85
  -2  -4   2   29.59    0.58
  -2  -4   2   30.93    0.88
  -2  -4   2   28.41    0.61
  -2  -4   2   28.86    0.59
  -2  -4   2   28.74    0.59
   1   4  -2    1.16    0.06
   1   4  -2    1.04    0.05
   1   4  -2    1.08    0.05
   1   4  -2    1.07    0.06
  -1  -4   2    1.19    0.05
  -1  -4   2    1.09    0.04
  -1  -4   2    1.09    0.05
  -1  -4   2    1.04    0.05
  -1  -4   2    1.13    0.05
  -1  -4   2    1.23    0.07
  -1  -4   2    1.14    0.05
  -1  -4   2    1.45    0.15
  -1  -4   2    1.12    0.07
  -1  -4   2    1.11    0.06
   0   4  -2   81.47    1.53
   0   4  -2   81.47    1.53
   0   4  -2   79.61    1.53
   0   4  -2   79.09    1.53
   0  -4   2   78.45    1.72
   0  -4   2   80.58    1.51
   0  -4   2   78.89    1.72
   0  -4   2   80.49    1.52
   0  -4   2   81.17    1.51
   0  -4   2   79.15    1.56
   0  -4   2   79.37    1.53
   0  -4   2   80.38    1.52
  -1   4  -2   27.82    0.56
  -1   4  -2   27.71    0.56
  -1   4  -2   28.34    0.56
   1  -4   2   27.61    0.55
   1  -4   2   25.96    0.58
   1  -4   2   29.47    0.76
   1  -4   2   27.07    0.55
   1  -4   2   28.40    0.74
   1  -4   2   27.86    0.56
   1  -4   2   27.98    0.54
   1  -4   2   27.08    0.56
  -2   4  -2    4.40    0.13
  -2   4  -2    4.47    0.13
  -2   4  -2    4.50    0.13
   2  -4   2    4.58    0.15
   2  -4   2    4.24    0.13
   2  -4   2    4.36    0.27
   2  -4   2    4.65    0.13
   2  -4   2    4.37    0.27
   2  -4   2    4.41    0.12
   2  -4   2    4.43    0.11
   2  -4   2    4.36    0.12
  -3   4  -2   17.54    0.40
  -3   4  -2   17.94    0.39
  -3   4  -2   18.21    0.40
   3  -4   2   17.01    0.65
   3  -4   2   17.71    0.66
   3  -4   2   18.31    0.38
   3  -4   2   17.89    0.39
   3  -4   2   17.75    0.39
   3  -4   2   18.51    0.40
   3  -4   2   17.90    0.40
   3  -4   2   17.82    0.41
   3  -4   2   17.84    0.39
  -4   4  -2    0.16    0.04
  -4   4  -2    0.16    0.04
  -4   4  -2    0.18    0.04
   4  -4   2    0.32    0.05
   4  -4   2    0.23    0.04
   4  -4   2    0.21    0.04
   4  -4   2    0.10    0.04
   4  -4   2    0.17    0.04
   4  -4   2    0.18    0.04
   4  -4   2    0.12    0.10
   4  -4   2    0.15    0.04
   4  -4   2    0.08    0.10
   4  -4   2    0.17    0.04
  -5   4  -2   13.26    0.34
  -5   4  -2   13.14    0.33
  -5   4  -2   12.98    0.34
  -5   4  -2   13.55    0.31
   5  -4   2   13.22    0.68
   5  -4   2   12.75    0.66
   5  -4   2   12.95    0.33
   5  -4   2   12.85    0.31
   5  -4   2   13.44    0.33
   5  -4   2   13.01    0.33
   5  -4   2   13.54    0.31
   5  -4   2   12.97    0.67
   5  -4   2   13.52    0.36
   5  -4   2   13.07    0.33
  -6   4  -2    0.27    0.06
  -6   4  -2    0.43    0.07
  -6   4  -2    0.45    0.07
   6  -4   2    0.36    0.17
   6  -4   2    0.35    0.16
   6  -4   2    0.33    0.06
   6  -4   2    0.44    0.06
   6  -4   2    0.37    0.06
   6  -4   2    0.40    0.08
   6  -4   2    0.37    0.06
   6  -4   2    0.34    0.06
   6  -4   2    0.40    0.06
  -7   4  -2    0.39    0.07
  -7   4  -2    0.44    0.08
  -7   4  -2    0.36    0.07
   7  -4   2    0.35    0.06
   7  -4   2    0.43    0.09
   7  -4   2    0.47    0.07
   7  -4   2    0.49    0.07
   7  -4   2    0.44    0.22
   7  -4   2    0.37    0.06
   7  -4   2    0.38    0.07
  -8   4  -2    0.47    0.09
  -8   4  -2    0.51    0.09
   8  -4   2    0.37    0.08
   8  -4   2    0.52    0.10
   8  -4   2    0.38    0.08
   8  -4   2    0.51    0.25
   8  -4   2    0.43    0.07
   8  -4   2    0.48    0.08
   8  -4   2    0.48    0.07
   9   3  -2    3.72    0.19
   9   3  -2    3.65    0.19
   9   3  -2    3.75    0.19
  -9  -3   2    3.82    0.18
  -9  -3   2    4.21    0.20
  -9  -3   2    4.05    0.19
  -9  -3   2    3.86    0.18
  -9  -3   2    3.73    0.18
  -9  -3   2    3.91    0.19
  -9  -3   2    4.03    0.19
  -9  -3   2    3.35    0.18
  -9  -3   2    3.86    0.20
   8   3  -2    3.55    0.16
   8   3  -2    3.65    0.17
   8   3  -2    3.67    0.18
   8   3  -2    3.47    0.17
  -8  -3   2    3.77    0.18
  -8  -3   2    3.68    0.17
  -8  -3   2    3.88    0.17
  -8  -3   2    3.75    0.18
  -8  -3   2    3.65    0.17
  -8  -3   2    3.71    0.17
  -8  -3   2    3.33    0.17
  -8  -3   2    3.80    0.17
   7   3  -2   24.65    0.59
   7   3  -2   25.84    0.57
   7   3  -2   25.04    0.59
   7   3  -2   25.39    0.58
  -7  -3   2   24.73    0.57
  -7  -3   2   25.75    0.58
  -7  -3   2   25.00    0.59
  -7  -3   2   24.99    0.58
  -7  -3   2   25.25    0.58
  -7  -3   2   25.86    0.57
  -7  -3   2   25.63    0.58
  -7  -3   2   25.07    0.59
   6   3  -2    0.05    0.04
   6   3  -2   -0.06    0.03
   6   3  -2    0.08    0.04
   6   3  -2    0.00    0.04
  -6  -3   2    0.05    0.03
  -6  -3   2    0.01    0.04
  -6  -3   2    0.05    0.04
  -6  -3   2    0.06    0.03
  -6  -3   2    0.01    0.04
  -6  -3   2    0.02    0.04
  -6  -3   2    0.07    0.04
  -6  -3   2   -0.01    0.10
  -6  -3   2    0.00    0.03
  -6  -3   2    0.04    0.04
  -6  -3   2    0.02    0.05
   5   3  -2    6.46    0.19
   5   3  -2    6.71    0.18
   5   3  -2    6.47    0.20
   5   3  -2    6.28    0.20
   5   3  -2    6.34    0.19
  -5  -3   2    7.05    0.51
  -5  -3   2    6.45    0.19
  -5  -3   2    6.44    0.19
  -5  -3   2    6.63    0.19
  -5  -3   2    6.15    0.19
  -5  -3   2    7.28    0.51
  -5  -3   2    6.65    0.18
  -5  -3   2    6.26    0.19
  -5  -3   2    6.79    0.18
  -5  -3   2    6.33    0.19
  -5  -3   2    6.38    0.15
  -5  -3   2    6.48    0.20
  -5  -3   2    6.89    0.25
  -5  -3   2    6.51    0.25
   4   3  -2    5.51    0.15
   4   3  -2    5.43    0.16
   4   3  -2    5.37    0.16
   4   3  -2    5.49    0.16
   4   3  -2    5.49    0.15
  -4  -3   2    5.44    0.14
  -4  -3   2    5.36    0.16
  -4  -3   2    6.09    0.43
  -4  -3   2    5.18    0.16
  -4  -3   2    5.49    0.16
  -4  -3   2    5.64    0.21
  -4  -3   2    5.16    0.16
  -4  -3   2    5.89    0.40
  -4  -3   2    5.54    0.15
  -4  -3   2    5.39    0.20
  -4  -3   2    5.60    0.16
  -4  -3   2    5.39    0.15
  -4  -3   2    5.42    0.16
  -4  -3   2    5.34    0.16
  -4  -3   2    5.51    0.15
   3   3  -2    7.63    0.20
   3   3  -2    7.93    0.20
   3   3  -2    8.05    0.19
   3   3  -2    7.55    0.20
   3   3  -2    7.78    0.20
  -3  -3   2    8.11    0.23
  -3  -3   2    8.71    0.45
  -3  -3   2    7.70    0.18
  -3  -3   2    7.71    0.23
  -3  -3   2    8.36    0.18
  -3  -3   2    7.76    0.20
  -3  -3   2    7.98    0.19
  -3  -3   2    7.66    0.19
  -3  -3   2    7.71    0.19
  -3  -3   2    8.23    0.43
  -3  -3   2    7.97    0.19
  -3  -3   2    7.76    0.19
  -3  -3   2    8.03    0.21
  -3  -3   2    7.89    0.20
  -3  -3   2    7.69    0.19
   2   3  -2    8.11    0.17
   2   3  -2    7.81    0.19
   2   3  -2    7.91    0.19
   2   3  -2    8.07    0.19
   2   3  -2    7.81    0.19
  -2  -3   2    7.95    0.20
  -2  -3   2    7.87    0.21
  -2  -3   2    8.13    0.18
  -2  -3   2    7.63    0.19
  -2  -3   2    7.89    0.19
  -2  -3   2    7.86    0.37
  -2  -3   2    7.89    0.18
  -2  -3   2    7.84    0.18
  -2  -3   2    7.66    0.16
  -2  -3   2    7.72    0.37
  -2  -3   2    8.05    0.18
  -2  -3   2    8.07    0.16
  -2  -3   2    7.86    0.18
  -2  -3   2    7.79    0.18
  -2  -3   2    7.56    0.20
   1   3  -2    0.43    0.03
   1   3  -2    0.40    0.04
   1   3  -2    0.41    0.03
   1   3  -2    0.39    0.04
  -1  -3   2    0.44    0.03
  -1  -3   2    0.41    0.03
  -1  -3   2    0.39    0.03
  -1  -3   2    0.42    0.03
  -1  -3   2    0.47    0.10
  -1  -3   2    0.27    0.04
  -1  -3   2    0.36    0.03
  -1  -3   2    0.43    0.03
  -1  -3   2    0.41    0.03
  -1  -3   2    0.41    0.05
   0   3  -2    0.23    0.03
   0   3  -2    0.23    0.02
   0   3  -2    0.26    0.03
   0   3  -2    0.28    0.03
   0  -3   2    0.21    0.02
   0  -3   2    0.23    0.04
   0  -3   2    0.27    0.02
   0  -3   2    0.27    0.02
   0  -3   2    0.29    0.04
   0  -3   2    0.22    0.02
  -1   3  -2   40.74    0.78
  -1   3  -2   40.18    0.78
  -1   3  -2   40.75    0.78
  -1   3  -2   40.68    0.78
   1  -3   2   40.28    0.78
   1  -3   2   40.79    0.91
   1  -3   2   39.97    0.81
   1  -3   2   40.70    0.76
   1  -3   2   38.15    0.89
   1  -3   2   39.79    0.78
   1  -3   2   40.21    0.78
   1  -3   2   41.01    0.78
  -2   3  -2   40.83    0.81
  -2   3  -2   41.14    0.78
  -2   3  -2   40.39    0.80
  -2   3  -2   40.52    0.80
  -2   3  -2   39.96    0.80
   2  -3   2   40.47    0.80
   2  -3   2   40.41    0.82
   2  -3   2   42.06    1.02
   2  -3   2   41.31    0.80
   2  -3   2   41.70    0.80
   2  -3   2   41.01    1.01
   2  -3   2   42.07    0.79
   2  -3   2   39.97    0.80
  -3   3  -2    0.03    0.02
  -3   3  -2    0.02    0.02
  -3   3  -2    0.03    0.02
  -3   3  -2    0.07    0.02
  -3   3  -2    0.01    0.02
   3  -3   2    0.03    0.02
   3  -3   2    0.02    0.02
   3  -3   2    0.02    0.02
   3  -3   2    0.05    0.03
   3  -3   2    0.02    0.03
   3  -3   2    0.06    0.02
   3  -3   2    0.10    0.07
   3  -3   2    0.03    0.02
   3  -3   2    0.04    0.06
   3  -3   2    0.01    0.02
  -4   3  -2    6.84    0.19
  -4   3  -2    6.61    0.17
  -4   3  -2    6.77    0.20
  -4   3  -2    6.90    0.19
   4  -3   2    6.87    0.19
   4  -3   2    7.43    0.43
   4  -3   2    6.65    0.18
   4  -3   2    6.72    0.18
   4  -3   2    7.40    0.22
   4  -3   2    6.74    0.19
   4  -3   2    6.97    0.19
   4  -3   2    6.88    0.19
   4  -3   2    6.76    0.19
   4  -3   2    7.31    0.43
  -5   3  -2  120.29    2.34
  -5   3  -2  122.58    2.31
  -5   3  -2  123.99    2.33
  -5   3  -2  121.16    2.33
   5  -3   2  120.30    2.28
   5  -3   2  119.64    2.32
   5  -3   2  119.96    2.32
   5  -3   2  118.50    2.88
   5  -3   2  122.72    2.33
   5  -3   2  120.81    2.38
   5  -3   2  120.13    2.89
   5  -3   2  119.63    2.32
   5  -3   2  120.98    2.31
   5  -3   2  116.98    2.32
   5  -3   2  119.76    2.31
  -6   3  -2   10.41    0.29
  -6   3  -2   10.36    0.29
  -6   3  -2   10.42    0.30
  -6   3  -2   10.49    0.27
   6  -3   2   10.21    0.27
   6  -3   2   10.00    0.64
   6  -3   2   10.63    0.29
   6  -3   2   10.35    0.28
   6  -3   2   10.86    0.27
   6  -3   2   10.20    0.33
   6  -3   2   10.37    0.24
   6  -3   2   10.06    0.63
   6  -3   2   10.50    0.28
   6  -3   2   10.48    0.27
  -7   3  -2   18.34    0.46
  -7   3  -2   18.65    0.44
  -7   3  -2   18.66    0.46
  -7   3  -2   18.20    0.47
   7  -3   2   18.33    0.45
   7  -3   2   18.34    0.40
   7  -3   2   17.61    0.51
   7  -3   2   18.49    0.43
   7  -3   2   18.83    0.45
   7  -3   2   18.07    0.43
   7  -3   2   18.14    0.45
   7  -3   2   16.70    0.91
  -8   3  -2    1.69    0.13
  -8   3  -2    1.84    0.13
  -8   3  -2    1.87    0.12
  -8   3  -2    1.67    0.13
   8  -3   2    1.84    0.12
   8  -3   2    1.95    0.13
   8  -3   2    1.68    0.11
   8  -3   2    1.68    0.36
   8  -3   2    1.89    0.13
   8  -3   2    1.82    0.16
   8  -3   2    1.77    0.09
   8  -3   2    1.82    0.13
   9   2  -2    3.62    0.19
   9   2  -2    3.72    0.18
   9   2  -2    3.92    0.20
   9   2  -2    3.78    0.18
  -9  -2   2    4.05    0.19
  -9  -2   2    3.40    0.19
  -9  -2   2    3.59    0.19
  -9  -2   2    3.95    0.23
  -9  -2   2    3.90    0.18
  -9  -2   2    3.50    0.18
  -9  -2   2    4.06    0.20
  -9  -2   2    3.85    0.19
   8   2  -2    5.17    0.19
   8   2  -2    5.01    0.21
   8   2  -2    4.91    0.20
   8   2  -2    5.35    0.21
  -8  -2   2    4.91    0.19
  -8  -2   2    4.83    0.20
  -8  -2   2    5.19    0.21
  -8  -2   2    5.03    0.19
  -8  -2   2    4.89    0.20
  -8  -2   2    4.76    0.20
  -8  -2   2    5.16    0.20
  -8  -2   2    4.69    0.20
  -8  -2   2    5.19    0.20
   7   2  -2    0.30    0.06
   7   2  -2    0.31    0.06
   7   2  -2    0.21    0.06
   7   2  -2    0.29    0.05
   7   2  -2    0.25    0.06
  -7  -2   2    0.37    0.06
  -7  -2   2    0.31    0.06
  -7  -2   2    0.22    0.05
  -7  -2   2    0.38    0.06
  -7  -2   2    0.31    0.06
  -7  -2   2    0.15    0.06
  -7  -2   2    0.24    0.06
  -7  -2   2    0.33    0.06
   6   2  -2    8.09    0.22
   6   2  -2    8.07    0.23
   6   2  -2    8.07    0.23
   6   2  -2    8.03    0.24
   6   2  -2    8.04    0.24
  -6  -2   2    8.07    0.59
  -6  -2   2    7.71    0.23
  -6  -2   2    8.02    0.23
  -6  -2   2    7.90    0.22
  -6  -2   2    7.77    0.24
  -6  -2   2    7.69    0.30
  -6  -2   2    8.01    0.23
  -6  -2   2    7.84    0.23
  -6  -2   2    7.88    0.23
  -6  -2   2    7.68    0.23
   5   2  -2   11.54    0.27
   5   2  -2   11.57    0.27
   5   2  -2   10.97    0.28
   5   2  -2   11.11    0.29
   5   2  -2   11.45    0.29
   5   2  -2   10.72    0.28
   5   2  -2   11.53    0.28
  -5  -2   2   11.39    0.65
  -5  -2   2   10.78    0.28
  -5  -2   2   11.01    0.28
  -5  -2   2   11.15    0.35
  -5  -2   2   11.17    0.28
  -5  -2   2   11.28    0.29
  -5  -2   2   11.22    0.28
  -5  -2   2   11.80    0.28
  -5  -2   2   11.45    0.35
  -5  -2   2   11.30    0.29
  -5  -2   2   11.10    0.28
  -5  -2   2   11.52    0.64
  -5  -2   2   11.39    0.27
  -5  -2   2   10.90    0.28
   4   2  -2    0.59    0.05
   4   2  -2    0.57    0.05
   4   2  -2    0.64    0.06
   4   2  -2    0.62    0.05
   4   2  -2    0.59    0.05
   4   2  -2    0.59    0.06
   4   2  -2    0.61    0.05
  -4  -2   2    0.66    0.06
  -4  -2   2    0.67    0.05
  -4  -2   2    0.55    0.05
  -4  -2   2    0.90    0.19
  -4  -2   2    0.56    0.05
  -4  -2   2    0.70    0.08
  -4  -2   2    0.71    0.05
  -4  -2   2    0.59    0.05
  -4  -2   2    0.71    0.08
  -4  -2   2    0.62    0.05
  -4  -2   2    0.66    0.04
  -4  -2   2    0.61    0.05
  -4  -2   2    0.62    0.06
  -4  -2   2    0.76    0.05
  -4  -2   2    0.87    0.18
   3   2  -2    8.47    0.21
   3   2  -2    8.49    0.21
   3   2  -2    8.52    0.20
   3   2  -2    8.54    0.21
   3   2  -2    8.60    0.20
  -3  -2   2    8.56    0.20
  -3  -2   2    8.62    0.44
  -3  -2   2    8.60    0.19
  -3  -2   2    8.56    0.19
  -3  -2   2    8.79    0.20
  -3  -2   2    8.43    0.20
  -3  -2   2    8.42    0.20
  -3  -2   2    8.43    0.19
  -3  -2   2    8.42    0.20
  -3  -2   2    8.25    0.20
  -3  -2   2    8.50    0.24
  -3  -2   2    8.44    0.24
  -3  -2   2    8.33    0.20
  -3  -2   2    8.39    0.21
  -3  -2   2    8.33    0.44
   2   2  -2    0.17    0.03
   2   2  -2    0.25    0.03
   2   2  -2    0.25    0.03
   2   2  -2    0.25    0.03
   2   2  -2    0.24    0.03
  -2  -2   2    0.27    0.03
  -2  -2   2    0.27    0.03
  -2  -2   2    0.22    0.03
  -2  -2   2    0.29    0.05
  -2  -2   2    0.24    0.03
  -2  -2   2    0.27    0.03
  -2  -2   2    0.21    0.03
  -2  -2   2    0.19    0.03
  -2  -2   2    0.16    0.09
  -2  -2   2    0.21    0.04
  -2  -2   2    0.27    0.03
  -2  -2   2    0.23    0.03
  -2  -2   2    0.25    0.04
  -2  -2   2    0.16    0.09
  -2  -2   2    0.20    0.02
   1   2  -2    0.38    0.03
   1   2  -2    0.35    0.03
   1   2  -2    0.35    0.03
  -1  -2   2    0.40    0.03
  -1  -2   2    0.35    0.02
  -1  -2   2    0.35    0.02
  -1  -2   2    0.36    0.03
  -1  -2   2    0.38    0.04
  -1  -2   2    0.38    0.03
  -1  -2   2    0.40    0.02
  -1  -2   2    0.37    0.02
  -1  -2   2    0.35    0.03
   0   2  -2    0.26    0.02
   0   2  -2    0.30    0.02
   0   2  -2    0.27    0.02
   0   2  -2    0.22    0.02
   0  -2   2    0.23    0.02
   0  -2   2    0.27    0.04
   0  -2   2    0.24    0.02
   0  -2   2    0.26    0.02
   0  -2   2    0.25    0.02
   0  -2   2    0.20    0.03
  -1   2  -2   -0.01    0.01
  -1   2  -2   -0.02    0.01
  -1   2  -2    0.00    0.01
  -1   2  -2   -0.02    0.01
   1  -2   2   -0.03    0.01
   1  -2   2   -0.02    0.01
   1  -2   2    0.00    0.02
   1  -2   2   -0.01    0.01
   1  -2   2    0.00    0.01
   1  -2   2    0.00    0.01
  -2   2  -2    5.75    0.13
  -2   2  -2    5.94    0.14
  -2   2  -2    5.58    0.14
  -2   2  -2    5.69    0.14
   2  -2   2    5.81    0.13
   2  -2   2    4.66    0.24
   2  -2   2    5.78    0.14
   2  -2   2    5.57    0.12
   2  -2   2    5.74    0.14
   2  -2   2    5.85    0.13
   2  -2   2    5.08    0.24
   2  -2   2    5.57    0.13
   2  -2   2    5.54    0.15
  -3   2  -2   64.86    1.23
  -3   2  -2   64.27    1.24
  -3   2  -2   64.62    1.23
  -3   2  -2   64.99    1.24
  -3   2  -2   64.16    1.25
   3  -2   2   63.20    1.26
   3  -2   2   64.09    1.23
   3  -2   2   62.42    1.24
   3  -2   2   62.41    1.52
   3  -2   2   64.28    1.25
   3  -2   2   64.98    1.54
   3  -2   2   64.02    1.24
   3  -2   2   64.31    1.24
   3  -2   2   64.18    1.23
   3  -2   2   65.98    1.24
  -4   2  -2   25.11    0.51
  -4   2  -2   25.03    0.53
  -4   2  -2   24.85    0.52
  -4   2  -2   24.83    0.52
  -4   2  -2   24.59    0.51
   4  -2   2   24.63    0.51
   4  -2   2   25.39    0.87
   4  -2   2   24.30    0.49
   4  -2   2   24.38    0.52
   4  -2   2   24.99    0.56
   4  -2   2   25.00    0.52
   4  -2   2   24.63    0.51
   4  -2   2   25.05    0.52
   4  -2   2   24.60    0.52
   4  -2   2   25.11    0.85
   4  -2   2   24.69    0.52
  -5   2  -2    1.08    0.08
  -5   2  -2    1.41    0.08
  -5   2  -2    1.25    0.07
  -5   2  -2    1.15    0.08
  -5   2  -2    1.19    0.07
   5  -2   2    1.18    0.07
   5  -2   2    1.25    0.07
   5  -2   2    1.07    0.21
   5  -2   2    1.30    0.07
   5  -2   2    1.04    0.08
   5  -2   2    1.11    0.06
   5  -2   2    1.21    0.07
   5  -2   2    1.23    0.08
   5  -2   2    1.16    0.10
   5  -2   2    1.14    0.10
   5  -2   2    1.21    0.08
   5  -2   2    1.08    0.22
   5  -2   2    1.23    0.08
  -6   2  -2   26.11    0.58
  -6   2  -2   26.33    0.59
  -6   2  -2   26.24    0.59
  -6   2  -2   26.41    0.57
   6  -2   2   25.31    0.56
   6  -2   2   27.33    1.07
   6  -2   2   25.97    0.54
   6  -2   2   25.92    0.58
   6  -2   2   27.52    1.09
   6  -2   2   24.98    0.57
   6  -2   2   26.28    0.59
   6  -2   2   25.59    0.55
   6  -2   2   26.05    0.58
   6  -2   2   26.18    0.57
   6  -2   2   27.00    0.65
   6  -2   2   26.55    0.65
   6  -2   2   26.19    0.57
  -7   2  -2    6.20    0.22
  -7   2  -2    6.20    0.23
  -7   2  -2    6.48    0.21
  -7   2  -2    6.41    0.22
   7  -2   2    6.04    0.18
   7  -2   2    6.39    0.20
   7  -2   2    6.22    0.21
   7  -2   2    6.64    0.56
   7  -2   2    6.50    0.27
   7  -2   2    6.35    0.21
   7  -2   2    6.58    0.27
   7  -2   2    6.21    0.22
   7  -2   2    6.28    0.20
   7  -2   2    6.36    0.20
  -8   2  -2    0.04    0.05
  -8   2  -2    0.04    0.05
  -8   2  -2    0.09    0.05
  -8   2  -2   -0.01    0.05
   8  -2   2    0.06    0.04
   8  -2   2    0.16    0.07
   8  -2   2    0.07    0.05
   8  -2   2    0.01    0.04
   8  -2   2    0.04    0.14
   8  -2   2    0.05    0.05
   8  -2   2    0.06    0.04
   8  -2   2    0.05    0.06
   8  -2   2   -0.06    0.04
   8  -2   2   -0.03    0.04
  -9   2  -2    1.88    0.15
  -9   2  -2    1.85    0.15
  -9   2  -2    1.78    0.14
  -9   2  -2    1.92    0.13
   9  -2   2    1.68    0.17
   9  -2   2    1.62    0.13
   9  -2   2    1.89    0.13
   9  -2   2    1.92    0.13
   9  -2   2    1.73    0.10
   9  -2   2    1.87    0.14
   9  -2   2    2.12    0.14
   9  -2   2    1.97    0.14
   9   1  -2    2.01    0.14
   9   1  -2    2.04    0.15
   9   1  -2    2.04    0.15
   9   1  -2    2.08    0.14
   9   1  -2    2.05    0.15
  -9  -1   2    1.89    0.14
  -9  -1   2    1.89    0.14
  -9  -1   2    1.91    0.14
  -9  -1   2    2.14    0.14
  -9  -1   2    1.97    0.15
   8   1  -2    1.47    0.12
   8   1  -2    1.59    0.11
   8   1  -2    1.80    0.12
   8   1  -2    1.68    0.13
   8   1  -2    1.60    0.12
  -8  -1   2    1.57    0.12
  -8  -1   2    1.63    0.12
  -8  -1   2    1.66    0.12
  -8  -1   2    1.59    0.12
  -8  -1   2    1.77    0.13
  -8  -1   2    1.64    0.13
  -8  -1   2    1.58    0.12
  -8  -1   2    1.93    0.12
   7   1  -2    0.15    0.05
   7   1  -2    0.13    0.05
   7   1  -2    0.08    0.04
   7   1  -2    0.10    0.05
   7   1  -2    0.08    0.04
  -7  -1   2    0.04    0.04
  -7  -1   2    0.05    0.05
  -7  -1   2    0.18    0.06
  -7  -1   2    0.14    0.04
  -7  -1   2    0.17    0.05
  -7  -1   2    0.15    0.05
  -7  -1   2    0.11    0.05
  -7  -1   2    0.10    0.04
  -7  -1   2    0.05    0.05
   6   1  -2    5.74    0.18
   6   1  -2    6.00    0.18
   6   1  -2    5.68    0.19
   6   1  -2    5.82    0.19
   6   1  -2    5.65    0.19
   6   1  -2    5.83    0.20
   6   1  -2    5.72    0.19
  -6  -1   2    5.83    0.19
  -6  -1   2    5.86    0.19
  -6  -1   2    5.84    0.19
  -6  -1   2    5.95    0.19
  -6  -1   2    6.04    0.19
  -6  -1   2    5.81    0.19
  -6  -1   2    5.41    0.56
  -6  -1   2    5.89    0.19
  -6  -1   2    5.72    0.19
   5   1  -2   24.54    0.52
   5   1  -2   24.68    0.52
   5   1  -2   23.83    0.53
   5   1  -2   24.15    0.52
   5   1  -2   24.08    0.52
   5   1  -2   24.27    0.53
   5   1  -2   24.00    0.53
   5   1  -2   24.71    0.53
  -5  -1   2   23.66    0.52
  -5  -1   2   23.63    0.52
  -5  -1   2   24.52    0.52
  -5  -1   2   24.68    0.53
  -5  -1   2   24.54    0.53
  -5  -1   2   24.55    0.53
  -5  -1   2   23.88    0.61
  -5  -1   2   24.17    0.98
  -5  -1   2   24.07    0.52
  -5  -1   2   23.05    0.98
  -5  -1   2   24.03    0.53
  -5  -1   2   24.29    0.52
  -5  -1   2   22.72    0.59
   4   1  -2   73.03    1.40
   4   1  -2   70.89    1.40
   4   1  -2   71.07    1.40
   4   1  -2   71.22    1.40
   4   1  -2   71.69    1.39
   4   1  -2   70.34    1.40
   4   1  -2   73.72    1.40
   4   1  -2   72.92    1.39
  -4  -1   2   70.83    1.39
  -4  -1   2   73.06    1.39
  -4  -1   2   70.81    1.40
  -4  -1   2   73.54    1.90
  -4  -1   2   72.47    1.40
  -4  -1   2   70.93    1.40
  -4  -1   2   70.97    1.39
  -4  -1   2   70.34    1.39
  -4  -1   2   71.98    1.47
  -4  -1   2   70.47    1.40
  -4  -1   2   73.28    1.47
  -4  -1   2   71.48    1.40
  -4  -1   2   74.19    1.88
  -4  -1   2   71.88    1.40
   3   1  -2   40.04    0.80
   3   1  -2   40.56    0.79
   3   1  -2   40.08    0.80
   3   1  -2   40.90    0.79
   3   1  -2   40.87    0.80
   3   1  -2   40.61    0.80
  -3  -1   2   40.89    0.79
  -3  -1   2   41.09    1.14
  -3  -1   2   39.56    0.80
  -3  -1   2   40.09    0.79
  -3  -1   2   39.51    0.79
  -3  -1   2   40.34    0.79
  -3  -1   2   40.33    0.80
  -3  -1   2   39.20    1.13
  -3  -1   2   40.12    0.79
  -3  -1   2   39.73    0.79
  -3  -1   2   39.45    0.79
  -3  -1   2   41.00    0.80
  -3  -1   2   39.40    0.84
  -3  -1   2   39.99    0.84
   2   1  -2    0.25    0.03
   2   1  -2    0.26    0.03
   2   1  -2    0.23    0.03
   2   1  -2    0.25    0.03
   2   1  -2    0.28    0.03
  -2  -1   2    0.25    0.02
  -2  -1   2    0.31    0.03
  -2  -1   2    0.28    0.03
  -2  -1   2    0.25    0.03
  -2  -1   2    0.27    0.03
  -2  -1   2    0.20    0.08
  -2  -1   2    0.30    0.03
  -2  -1   2    0.28    0.04
  -2  -1   2    0.27    0.03
  -2  -1   2    0.22    0.03
  -2  -1   2    0.26    0.04
  -2  -1   2    0.23    0.03
  -2  -1   2    0.27    0.02
  -2  -1   2    0.24    0.03
  -2  -1   2    0.24    0.09
   1   1  -2   35.98    0.70
   1   1  -2   36.55    0.70
   1   1  -2   35.34    0.70
  -1  -1   2   37.33    0.80
  -1  -1   2   38.29    0.81
  -1  -1   2   36.24    0.70
  -1  -1   2   36.52    0.70
  -1  -1   2   36.13    0.71
  -1  -1   2   36.98    0.69
  -1  -1   2   36.34    0.70
  -1  -1   2   37.01    0.73
  -1  -1   2   36.44    0.69
  -1  -1   2   35.73    0.69
   0   1  -2    3.49    0.07
   0  -1   2    3.63    0.07
   0  -1   2    3.56    0.10
   0  -1   2    3.62    0.11
  -1   1  -2    3.36    0.08
  -1   1  -2    3.26    0.08
   1  -1   2    3.40    0.08
   1  -1   2    3.28    0.11
   1  -1   2    3.37    0.08
   1  -1   2    3.36    0.07
  -2   1  -2   56.70    1.10
  -2   1  -2   56.54    1.10
  -2   1  -2   58.42    1.12
  -2   1  -2   58.86    1.10
  -2   1  -2   57.65    1.10
   2  -1   2   57.20    1.12
   2  -1   2   58.89    1.10
   2  -1   2   59.85    1.27
   2  -1   2   57.74    1.11
   2  -1   2   58.00    1.26
   2  -1   2   57.82    1.10
   2  -1   2   58.31    1.11
   2  -1   2   57.87    1.10
   2  -1   2   57.55    1.10
  -3   1  -2   65.76    1.23
  -3   1  -2   63.60    1.24
  -3   1  -2   64.27    1.25
  -3   1  -2   65.13    1.24
  -3   1  -2   64.57    1.24
   3  -1   2   64.80    1.24
   3  -1   2   63.39    1.27
   3  -1   2   64.57    1.24
   3  -1   2   65.14    1.27
   3  -1   2   65.22    1.24
   3  -1   2   64.44    1.23
   3  -1   2   64.56    1.23
   3  -1   2   63.30    1.52
   3  -1   2   64.29    1.24
   3  -1   2   63.63    1.53
   3  -1   2   64.24    1.22
   3  -1   2   63.84    1.24
   3  -1   2   67.87    1.25
  -4   1  -2   67.98    1.34
  -4   1  -2   68.17    1.34
  -4   1  -2   68.34    1.33
  -4   1  -2   68.90    1.35
  -4   1  -2   70.01    1.35
   4  -1   2   69.52    1.32
   4  -1   2   68.76    1.34
   4  -1   2   72.86    1.77
   4  -1   2   70.35    1.35
   4  -1   2   68.87    1.34
   4  -1   2   68.11    1.33
   4  -1   2   68.97    1.35
   4  -1   2   67.68    1.34
   4  -1   2   71.26    1.34
   4  -1   2   67.84    1.39
   4  -1   2   69.22    1.73
   4  -1   2   71.17    1.40
   4  -1   2   68.20    1.33
  -5   1  -2   11.36    0.28
  -5   1  -2   11.19    0.26
  -5   1  -2   11.50    0.28
  -5   1  -2   11.15    0.27
  -5   1  -2   11.33    0.29
  -5   1  -2   11.62    0.27
   5  -1   2   11.05    0.27
   5  -1   2   11.38    0.33
   5  -1   2   10.54    0.57
   5  -1   2   10.39    0.58
   5  -1   2   11.21    0.25
   5  -1   2   11.23    0.27
   5  -1   2   11.54    0.27
   5  -1   2   10.89    0.32
   5  -1   2   11.55    0.28
   5  -1   2   11.94    0.27
   5  -1   2   11.41    0.27
   5  -1   2   11.04    0.28
   5  -1   2   10.78    0.25
  -6   1  -2   11.70    0.31
  -6   1  -2   12.12    0.32
  -6   1  -2   12.10    0.30
  -6   1  -2   11.98    0.30
  -6   1  -2   12.01    0.31
  -6   1  -2   11.70    0.29
   6  -1   2   11.74    0.30
   6  -1   2   11.64    0.68
   6  -1   2   11.90    0.30
   6  -1   2   11.53    0.30
   6  -1   2   11.83    0.67
   6  -1   2   12.06    0.28
   6  -1   2   12.21    0.30
   6  -1   2   11.94    0.37
   6  -1   2   11.75    0.36
   6  -1   2   11.84    0.29
   6  -1   2   11.96    0.31
   6  -1   2   11.68    0.30
   6  -1   2   11.98    0.27
  -7   1  -2   19.47    0.46
  -7   1  -2   19.38    0.47
  -7   1  -2   19.48    0.48
  -7   1  -2   18.71    0.46
   7  -1   2   19.62    0.55
   7  -1   2   19.43    0.47
   7  -1   2   18.83    0.54
   7  -1   2   19.53    0.45
   7  -1   2   18.81    0.44
   7  -1   2   18.46    0.95
   7  -1   2   19.06    0.43
   7  -1   2   19.01    0.46
   7  -1   2   19.57    0.45
   7  -1   2   19.23    0.46
   7  -1   2   19.57    0.46
  -8   1  -2    0.19    0.06
  -8   1  -2    0.18    0.06
  -8   1  -2    0.19    0.06
  -8   1  -2    0.36    0.07
   8  -1   2    0.30    0.29
   8  -1   2    0.23    0.05
   8  -1   2    0.23    0.06
   8  -1   2    0.18    0.06
   8  -1   2    0.25    0.06
   8  -1   2    0.18    0.05
   8  -1   2    0.18    0.06
   8  -1   2    0.19    0.05
   8  -1   2    0.18    0.07
  -9   1  -2    0.60    0.13
  -9   1  -2    0.52    0.09
  -9   1  -2    0.56    0.09
  -9   1  -2    0.53    0.09
   9  -1   2    0.53    0.08
   9  -1   2    0.45    0.08
   9  -1   2    0.53    0.07
   9  -1   2    0.48    0.08
   9  -1   2    0.64    0.10
   9  -1   2    0.55    0.08
   9  -1   2    0.58    0.09
   9   0  -2    1.36    0.12
   9   0  -2    1.35    0.13
   9   0  -2    1.36    0.12
   9   0  -2    1.45    0.14
   9   0  -2    1.18    0.12
  -9   0   2    1.22    0.12
  -9   0   2    1.20    0.12
  -9   0   2    1.47    0.14
  -9   0   2    1.62    0.14
  -9   0   2    1.59    0.13
   8   0  -2    0.14    0.06
   8   0  -2    0.20    0.06
   8   0  -2    0.15    0.06
   8   0  -2    0.10    0.05
   8   0  -2    0.14    0.06
  -8   0   2    0.24    0.07
  -8   0   2    0.16    0.06
  -8   0   2    0.23    0.06
  -8   0   2    0.17    0.06
  -8   0   2    0.21    0.06
  -8   0   2    0.18    0.06
  -8   0   2    0.16    0.06
   7   0  -2    1.96    0.11
   7   0  -2    2.03    0.12
   7   0  -2    1.91    0.12
   7   0  -2    1.91    0.12
   7   0  -2    1.88    0.12
   7   0  -2    2.11    0.12
  -7   0   2    2.04    0.12
  -7   0   2    2.05    0.12
  -7   0   2    2.15    0.12
  -7   0   2    2.21    0.12
  -7   0   2    2.13    0.12
  -7   0   2    2.11    0.12
  -7   0   2    2.05    0.12
  -7   0   2    1.98    0.12
   6   0  -2   12.19    0.33
   6   0  -2   13.20    0.32
   6   0  -2   12.83    0.32
   6   0  -2   12.80    0.34
   6   0  -2   12.19    0.33
   6   0  -2   12.06    0.32
   6   0  -2   13.13    0.32
  -6   0   2   12.90    0.33
  -6   0   2   12.95    0.32
  -6   0   2   13.19    0.33
  -6   0   2   12.63    0.32
  -6   0   2   13.00    0.33
  -6   0   2   12.84    0.33
  -6   0   2   12.95    0.33
  -6   0   2   12.96    0.33
   5   0  -2    2.79    0.11
   5   0  -2    2.78    0.11
   5   0  -2    2.62    0.11
   5   0  -2    2.82    0.12
   5   0  -2    2.82    0.12
   5   0  -2    2.93    0.11
   5   0  -2    2.79    0.11
   5   0  -2    2.75    0.11
  -5   0   2    2.35    0.15
  -5   0   2    2.75    0.11
  -5   0   2    2.72    0.11
  -5   0   2    2.56    0.11
  -5   0   2    2.82    0.11
  -5   0   2    2.82    0.13
  -5   0   2    2.83    0.12
  -5   0   2    2.88    0.12
  -5   0   2    2.52    0.11
  -5   0   2    2.62    0.11
  -5   0   2    2.67    0.11
  -5   0   2    2.28    0.15
  -5   0   2    2.76    0.12
   4   0  -2    0.53    0.05
   4   0  -2    0.51    0.05
   4   0  -2    0.55    0.05
   4   0  -2    0.58    0.05
   4   0  -2    0.59    0.06
   4   0  -2    0.47    0.05
   4   0  -2    0.58    0.05
   4   0  -2    0.57    0.06
  -4   0   2    0.58    0.08
  -4   0   2    0.53    0.05
  -4   0   2    0.55    0.05
  -4   0   2    0.44    0.04
  -4   0   2    0.57    0.06
  -4   0   2    0.45    0.07
  -4   0   2    0.54    0.05
  -4   0   2    0.60    0.05
  -4   0   2    0.42    0.05
  -4   0   2    0.59    0.17
  -4   0   2    0.89    0.26
  -4   0   2    0.50    0.05
  -4   0   2    0.47    0.05
  -4   0   2    0.62    0.06
  -4   0   2    0.53    0.05
   3   0  -2   75.90    1.45
   3   0  -2   75.76    1.45
   3   0  -2   75.41    1.46
   3   0  -2   75.54    1.45
   3   0  -2   73.97    1.46
   3   0  -2   77.24    1.46
   3   0  -2   75.71    1.46
  -3   0   2   76.47    1.46
  -3   0   2   78.19    1.46
  -3   0   2   77.04    1.51
  -3   0   2   74.25    1.45
  -3   0   2   74.51    1.45
  -3   0   2   74.29    1.45
  -3   0   2   80.30    1.87
  -3   0   2   72.24    1.46
  -3   0   2   74.23    1.45
  -3   0   2   75.48    1.45
  -3   0   2   73.61    1.45
  -3   0   2   74.92    1.45
  -3   0   2   77.50    1.87
  -3   0   2   75.79    1.52
   2   0  -2    3.65    0.10
   2   0  -2    3.60    0.10
   2   0  -2    3.71    0.10
   2   0  -2    3.65    0.10
   2   0  -2    3.72    0.12
   2   0  -2    3.60    0.10
  -2   0   2    3.77    0.10
  -2   0   2    3.76    0.10
  -2   0   2    3.73    0.10
  -2   0   2    3.54    0.10
  -2   0   2    3.59    0.10
  -2   0   2    3.63    0.10
  -2   0   2    3.63    0.24
  -2   0   2    3.59    0.10
  -2   0   2    3.71    0.10
  -2   0   2    3.66    0.13
  -2   0   2    3.73    0.13
  -2   0   2    3.59    0.24
  -2   0   2    3.52    0.10
  -2   0   2    3.76    0.10
   1   0  -2   24.61    0.50
   1   0  -2   26.16    0.50
   1   0  -2   25.26    0.50
   1   0  -2   25.58    0.49
  -1   0   2   26.25    0.64
  -1   0   2   25.40    0.49
  -1   0   2   24.95    0.51
  -1   0   2   25.50    0.49
  -1   0   2   25.66    0.50
  -1   0   2   25.85    0.50
  -1   0   2   25.15    0.49
  -1   0   2   25.61    0.49
  -1   0   2   25.70    0.49
  -1   0   2   25.55    0.49
  -1   0   2   25.71    0.64
  -1   0   2   25.25    0.51
   0   0  -2    0.26    0.02
   0   0   2    0.31    0.02
   0   0   2    0.27    0.03
  -1   0  -2   17.41    0.35
  -1   0  -2   17.15    0.34
   1   0   2   17.32    0.35
   1   0   2   17.37    0.33
   1   0   2   17.85    0.34
   1   0   2   17.88    0.33
   1   0   2   17.68    0.34
   1   0   2   17.21    0.33
   1   0   2   17.98    0.38
  -2   0  -2   66.95    1.29
  -2   0  -2   67.44    1.28
  -2   0  -2   67.30    1.29
  -2   0  -2   68.81    1.28
  -2   0  -2   65.83    1.28
   2   0   2   68.87    1.28
   2   0   2   67.53    1.28
   2   0   2   68.06    1.28
   2   0   2   66.72    1.29
   2   0   2   68.61    1.29
   2   0   2   67.64    1.28
   2   0   2   66.98    1.45
   2   0   2   67.53    1.28
   2   0   2   70.71    1.47
   2   0   2   68.01    1.29
   2   0   2   67.15    1.28
   2   0   2   66.24    1.27
  -3   0  -2    7.71    0.18
  -3   0  -2    7.69    0.19
  -3   0  -2    8.03    0.18
  -3   0  -2    7.73    0.19
  -3   0  -2    7.76    0.18
   3   0   2    7.61    0.18
   3   0   2    7.80    0.21
   3   0   2    7.93    0.18
   3   0   2    7.68    0.18
   3   0   2    7.89    0.18
   3   0   2    7.63    0.18
   3   0   2    7.43    0.37
   3   0   2    7.82    0.18
   3   0   2    7.85    0.18
   3   0   2    7.79    0.17
   3   0   2    7.96    0.19
   3   0   2    7.49    0.36
   3   0   2    7.90    0.21
  -4   0  -2    0.26    0.04
  -4   0  -2    0.22    0.03
  -4   0  -2    0.21    0.03
  -4   0  -2    0.21    0.03
  -4   0  -2    0.19    0.03
  -4   0  -2    0.20    0.03
   4   0   2    0.29    0.04
   4   0   2    0.31    0.12
   4   0   2    0.19    0.03
   4   0   2    0.21    0.05
   4   0   2    0.15    0.03
   4   0   2    0.21    0.03
   4   0   2    0.24    0.03
   4   0   2    0.23    0.10
   4   0   2    0.20    0.04
   4   0   2    0.20    0.03
   4   0   2    0.19    0.03
   4   0   2    0.16    0.03
   4   0   2    0.22    0.03
  -5   0  -2    4.48    0.15
  -5   0  -2    4.40    0.15
  -5   0  -2    4.56    0.14
  -5   0  -2    4.51    0.13
  -5   0  -2    4.33    0.14
  -5   0  -2    4.38    0.14
  -5   0  -2    4.50    0.15
   5   0   2    4.59    0.37
   5   0   2    4.52    0.14
   5   0   2    4.53    0.15
   5   0   2    4.56    0.19
   5   0   2    4.56    0.14
   5   0   2    4.52    0.14
   5   0   2    4.46    0.12
   5   0   2    4.47    0.14
   5   0   2    4.33    0.14
   5   0   2    4.29    0.18
   5   0   2    4.34    0.13
   5   0   2    4.50    0.14
   5   0   2    4.69    0.39
  -6   0  -2   15.25    0.37
  -6   0  -2   14.64    0.36
  -6   0  -2   14.91    0.36
  -6   0  -2   14.95    0.36
  -6   0  -2   15.63    0.35
   6   0   2   15.30    0.37
   6   0   2   14.44    0.36
   6   0   2   14.60    0.35
   6   0   2   14.21    0.76
   6   0   2   14.37    0.35
   6   0   2   15.03    0.43
   6   0   2   14.70    0.34
   6   0   2   14.23    0.74
   6   0   2   14.51    0.35
   6   0   2   14.45    0.35
   6   0   2   14.93    0.43
   6   0   2   14.86    0.35
  -7   0  -2    7.39    0.23
  -7   0  -2    7.09    0.25
  -7   0  -2    7.32    0.23
  -7   0  -2    7.07    0.24
  -7   0  -2    7.31    0.23
   7   0   2    7.28    0.23
   7   0   2    7.40    0.22
   7   0   2    7.31    0.30
   7   0   2    7.20    0.23
   7   0   2    7.07    0.21
   7   0   2    7.45    0.29
   7   0   2    7.20    0.21
   7   0   2    7.09    0.58
   7   0   2    7.53    0.23
   7   0   2    7.31    0.22
   7   0   2    7.18    0.22
  -8   0  -2    1.90    0.13
  -8   0  -2    1.68    0.12
  -8   0  -2    1.47    0.12
  -8   0  -2    1.96    0.13
   8   0   2    1.86    0.10
   8   0   2    1.78    0.12
   8   0   2    1.85    0.16
   8   0   2    1.95    0.12
   8   0   2    1.67    0.11
   8   0   2    1.78    0.12
   8   0   2    1.75    0.11
   8   0   2    1.79    0.12
   8   0   2    1.80    0.12
  -9   0  -2    1.04    0.11
  -9   0  -2    1.07    0.12
  -9   0  -2    0.82    0.10
   9   0   2    1.01    0.10
   9   0   2    1.06    0.09
   9   0   2    0.72    0.09
   9   0   2    0.89    0.10
   9   0   2    1.00    0.10
   9   0   2    1.02    0.10
   9   0   2    0.91    0.10
   9  -1  -2    6.28    0.24
   9  -1  -2    6.34    0.24
   9  -1  -2    5.64    0.25
   9  -1  -2    6.37    0.25
   9  -1  -2    6.42    0.25
  -9   1   2    5.99    0.25
  -9   1   2    6.46    0.25
  -9   1   2    6.60    0.25
  -9   1   2    6.14    0.25
  -9   1   2    5.98    0.23
  -9   1   2    6.16    0.24
   8  -1  -2    0.17    0.06
   8  -1  -2    0.24    0.06
   8  -1  -2    0.16    0.06
   8  -1  -2    0.21    0.06
   8  -1  -2    0.17    0.06
  -8   1   2    0.24    0.07
  -8   1   2    0.17    0.06
  -8   1   2    0.13    0.06
  -8   1   2    0.31    0.06
  -8   1   2    0.23    0.07
  -8   1   2    0.26    0.07
   7  -1  -2   21.20    0.50
   7  -1  -2   20.72    0.49
   7  -1  -2   20.70    0.48
   7  -1  -2   20.36    0.49
   7  -1  -2   20.78    0.49
   7  -1  -2   19.73    0.49
   7  -1  -2   20.16    0.50
  -7   1   2   20.16    0.49
  -7   1   2   20.40    0.49
  -7   1   2   20.62    0.49
  -7   1   2   20.64    0.50
  -7   1   2   19.72    0.49
  -7   1   2   20.36    0.50
  -7   1   2   19.96    0.49
   6  -1  -2   -0.01    0.03
   6  -1  -2    0.05    0.04
   6  -1  -2   -0.01    0.03
   6  -1  -2    0.03    0.04
   6  -1  -2   -0.01    0.03
   6  -1  -2    0.04    0.04
   6  -1  -2    0.01    0.03
   6  -1  -2    0.03    0.04
  -6   1   2    0.03    0.04
  -6   1   2    0.03    0.04
  -6   1   2   -0.05    0.03
  -6   1   2    0.07    0.04
  -6   1   2   -0.02    0.03
  -6   1   2   -0.02    0.04
  -6   1   2   -0.04    0.03
  -6   1   2   -0.02    0.04
  -6   1   2   -0.01    0.03
   5  -1  -2   14.98    0.36
   5  -1  -2   15.14    0.37
   5  -1  -2   15.55    0.36
   5  -1  -2   15.73    0.36
   5  -1  -2   15.46    0.36
   5  -1  -2   15.60    0.37
   5  -1  -2   15.44    0.37
   5  -1  -2   15.48    0.36
  -5   1   2   15.82    0.37
  -5   1   2   15.58    0.37
  -5   1   2   15.19    0.46
  -5   1   2   16.02    0.80
  -5   1   2   15.39    0.37
  -5   1   2   15.26    0.36
  -5   1   2   14.98    0.36
  -5   1   2   14.83    0.36
  -5   1   2   14.86    0.36
  -5   1   2   15.39    0.36
  -5   1   2   15.37    0.37
   4  -1  -2    1.69    0.08
   4  -1  -2    1.61    0.08
   4  -1  -2    1.61    0.08
   4  -1  -2    1.45    0.08
   4  -1  -2    1.77    0.08
   4  -1  -2    1.51    0.08
  -4   1   2    1.57    0.08
  -4   1   2    1.66    0.12
  -4   1   2    1.60    0.08
  -4   1   2    1.70    0.08
  -4   1   2    1.63    0.09
  -4   1   2    1.58    0.08
  -4   1   2    1.76    0.25
  -4   1   2    1.72    0.08
  -4   1   2    1.79    0.12
  -4   1   2    1.68    0.08
  -4   1   2    1.62    0.08
  -4   1   2    1.58    0.08
   3  -1  -2   38.39    0.76
   3  -1  -2   38.38    0.76
   3  -1  -2   38.69    0.76
   3  -1  -2   38.51    0.76
   3  -1  -2   37.61    0.75
   3  -1  -2   37.75    0.75
   3  -1  -2   38.19    0.77
   3  -1  -2   38.24    0.76
  -3   1   2   38.46    0.76
  -3   1   2   38.49    0.76
  -3   1   2   36.85    1.14
  -3   1   2   37.38    0.76
  -3   1   2   38.17    0.76
  -3   1   2   38.16    0.76
  -3   1   2   37.50    1.13
  -3   1   2   37.93    0.76
  -3   1   2   37.50    0.76
  -3   1   2   39.20    0.77
  -3   1   2   38.21    0.76
  -3   1   2   37.82    0.82
  -3   1   2   38.05    0.83
  -3   1   2   38.84    0.77
   2  -1  -2    2.50    0.08
   2  -1  -2    2.60    0.09
   2  -1  -2    2.62    0.08
   2  -1  -2    2.62    0.08
   2  -1  -2    2.63    0.08
  -2   1   2    2.60    0.22
  -2   1   2    2.67    0.08
  -2   1   2    2.50    0.08
  -2   1   2    2.61    0.08
  -2   1   2    2.66    0.08
  -2   1   2    2.63    0.08
  -2   1   2    2.56    0.08
  -2   1   2    2.57    0.08
  -2   1   2    2.63    0.23
  -2   1   2    2.56    0.08
  -2   1   2    2.67    0.11
   1  -1  -2   72.49    1.38
   1  -1  -2   72.42    1.38
   1  -1  -2   72.52    1.38
   1  -1  -2   73.15    1.38
  -1   1   2   74.05    1.38
  -1   1   2   73.04    1.38
  -1   1   2   72.76    1.61
  -1   1   2   73.58    1.41
  -1   1   2   72.81    1.38
  -1   1   2   71.45    1.41
  -1   1   2   72.41    1.38
  -1   1   2   72.99    1.59
  -1   1   2   72.01    1.38
  -1   1   2   71.79    1.38
  -1   1   2   74.31    1.38
  -1   1   2   71.72    1.38
  -1   1   2   73.93    1.38
   0  -1  -2  185.24    3.51
   0  -1  -2  179.61    3.54
   0   1   2  186.37    3.52
   0   1   2  185.24    3.57
   0   1   2  186.71    3.52
   0   1   2  181.66    3.51
   0   1   2  192.64    4.06
   0   1   2  187.10    3.59
   0   1   2  188.27    4.03
   0   1   2  182.05    3.51
   0   1   2  182.79    3.50
   0   1   2  186.56    3.63
   0   1   2  183.78    3.49
   0   1   2  188.29    3.51
  -1  -1  -2   60.56    1.16
  -1  -1  -2   61.53    1.15
  -1  -1  -2   61.98    1.16
   1   1   2   62.06    1.15
   1   1   2   61.22    1.15
   1   1   2   59.07    1.30
   1   1   2   61.57    1.15
   1   1   2   61.00    1.15
   1   1   2   64.57    1.16
   1   1   2   57.84    1.29
   1   1   2   62.15    1.15
   1   1   2   61.26    1.15
   1   1   2   62.13    1.15
   1   1   2   59.07    1.17
   1   1   2   60.01    1.17
   1   1   2   60.41    1.14
  -2  -1  -2   63.67    1.19
  -2  -1  -2   62.73    1.20
  -2  -1  -2   63.37    1.19
  -2  -1  -2   62.91    1.19
  -2  -1  -2   61.88    1.20
   2   1   2   62.15    1.19
   2   1   2   61.65    1.18
   2   1   2   64.79    1.43
   2   1   2   62.35    1.19
   2   1   2   60.73    1.22
   2   1   2   62.13    1.19
   2   1   2   62.52    1.19
   2   1   2   62.92    1.42
   2   1   2   62.03    1.19
   2   1   2   62.35    1.19
   2   1   2   63.34    1.19
  -3  -1  -2   10.19    0.23
  -3  -1  -2   10.17    0.23
  -3  -1  -2   10.05    0.24
  -3  -1  -2   10.04    0.23
  -3  -1  -2   10.85    0.24
  -3  -1  -2   10.18    0.23
   3   1   2   11.30    0.47
   3   1   2    9.91    0.26
   3   1   2   10.16    0.24
   3   1   2   10.27    0.23
   3   1   2   10.07    0.22
   3   1   2    9.98    0.23
   3   1   2   10.31    0.23
   3   1   2   10.03    0.23
   3   1   2   12.05    0.48
   3   1   2   10.01    0.23
   3   1   2   10.90    0.27
   3   1   2   10.13    0.23
  -4  -1  -2    1.04    0.06
  -4  -1  -2    0.87    0.06
  -4  -1  -2    1.06    0.06
  -4  -1  -2    0.94    0.05
  -4  -1  -2    1.01    0.06
  -4  -1  -2    1.07    0.06
  -4  -1  -2    1.04    0.07
   4   1   2    0.93    0.06
   4   1   2    0.94    0.06
   4   1   2    0.98    0.06
   4   1   2    0.96    0.05
   4   1   2    1.02    0.06
   4   1   2    1.11    0.09
   4   1   2    0.94    0.06
   4   1   2    0.94    0.06
   4   1   2    0.96    0.06
   4   1   2    1.23    0.19
  -5  -1  -2    0.02    0.02
  -5  -1  -2    0.05    0.03
  -5  -1  -2    0.04    0.03
  -5  -1  -2    0.04    0.03
  -5  -1  -2    0.02    0.03
  -5  -1  -2    0.03    0.03
  -5  -1  -2   -0.01    0.02
  -5  -1  -2   -0.01    0.02
  -5  -1  -2    0.02    0.02
  -5  -1  -2    0.02    0.03
   5   1   2   -0.01    0.03
   5   1   2    0.01    0.02
   5   1   2    0.02    0.03
   5   1   2    0.01    0.08
   5   1   2    0.01    0.02
   5   1   2    0.00    0.02
   5   1   2   -0.01    0.02
   5   1   2   -0.02    0.02
   5   1   2   -0.01    0.06
   5   1   2   -0.01    0.02
   5   1   2   -0.05    0.03
   5   1   2    0.00    0.03
  -6  -1  -2    0.09    0.04
  -6  -1  -2    0.05    0.04
  -6  -1  -2    0.07    0.04
  -6  -1  -2    0.03    0.03
  -6  -1  -2    0.10    0.04
  -6  -1  -2    0.12    0.04
   6   1   2    0.03    0.03
   6   1   2    0.06    0.04
   6   1   2    0.08    0.05
   6   1   2    0.04    0.03
   6   1   2    0.07    0.04
   6   1   2    0.07    0.11
   6   1   2    0.06    0.03
   6   1   2    0.06    0.03
   6   1   2    0.06    0.03
   6   1   2    0.02    0.11
   6   1   2    0.08    0.05
   6   1   2    0.09    0.04
  -7  -1  -2    2.26    0.13
  -7  -1  -2    2.49    0.13
  -7  -1  -2    2.49    0.13
  -7  -1  -2    2.44    0.12
  -7  -1  -2    2.43    0.13
   7   1   2    2.26    0.12
   7   1   2    2.04    0.36
   7   1   2    2.20    0.12
   7   1   2    2.35    0.12
   7   1   2    2.35    0.12
   7   1   2    2.44    0.17
   7   1   2    2.46    0.13
   7   1   2    2.38    0.13
   7   1   2    2.41    0.11
   7   1   2    2.27    0.11
  -8  -1  -2   21.46    0.54
  -8  -1  -2   22.23    0.53
  -8  -1  -2   22.76    0.54
  -8  -1  -2   22.02    0.53
   8   1   2   22.72    0.53
   8   1   2   21.66    0.52
   8   1   2   21.64    0.51
   8   1   2   21.50    0.52
   8   1   2   22.25    0.51
   8   1   2   22.55    0.54
   8   1   2   21.56    0.52
   8   1   2   22.06    0.53
  -9  -1  -2    5.42    0.22
  -9  -1  -2    5.13    0.21
  -9  -1  -2    5.06    0.22
   9   1   2    4.93    0.19
   9   1   2    4.87    0.20
   9   1   2    5.08    0.20
   9   1   2    5.14    0.22
   9   1   2    5.20    0.22
   9   1   2    4.87    0.21
   9   1   2    5.00    0.21
   9   1   2    4.74    0.20
   9  -2  -2    1.04    0.13
   9  -2  -2    1.05    0.12
   9  -2  -2    1.00    0.12
   9  -2  -2    1.04    0.11
   9  -2  -2    0.91    0.10
  -9   2   2    1.15    0.13
  -9   2   2    0.87    0.11
  -9   2   2    1.01    0.12
  -9   2   2    0.91    0.13
   8  -2  -2    0.07    0.06
   8  -2  -2    0.07    0.05
   8  -2  -2    0.01    0.05
   8  -2  -2    0.01    0.05
   8  -2  -2    0.12    0.05
  -8   2   2    0.14    0.06
  -8   2   2    0.15    0.06
  -8   2   2    0.14    0.06
  -8   2   2    0.02    0.05
   7  -2  -2    0.29    0.06
   7  -2  -2    0.38    0.07
   7  -2  -2    0.20    0.05
   7  -2  -2    0.26    0.06
   7  -2  -2    0.30    0.07
   7  -2  -2    0.32    0.07
   7  -2  -2    0.26    0.06
  -7   2   2    0.23    0.06
  -7   2   2    0.35    0.07
  -7   2   2    0.36    0.07
  -7   2   2    0.15    0.06
  -7   2   2    0.35    0.06
  -7   2   2    0.28    0.06
   6  -2  -2   26.94    0.59
   6  -2  -2   26.50    0.59
   6  -2  -2   25.19    0.59
   6  -2  -2   26.49    0.59
   6  -2  -2   26.58    0.60
   6  -2  -2   26.33    0.60
   6  -2  -2   25.73    0.58
   6  -2  -2   26.17    0.59
  -6   2   2   25.80    0.59
  -6   2   2   26.21    0.59
  -6   2   2   25.98    0.58
  -6   2   2   25.81    0.59
  -6   2   2   27.36    0.59
  -6   2   2   26.25    0.60
  -6   2   2   27.42    0.60
  -6   2   2   26.96    0.60
  -6   2   2   26.24    0.61
  -6   2   2   25.87    0.59
   5  -2  -2    0.50    0.06
   5  -2  -2    0.46    0.05
   5  -2  -2    0.51    0.06
   5  -2  -2    0.49    0.06
   5  -2  -2    0.45    0.06
   5  -2  -2    0.41    0.06
   5  -2  -2    0.39    0.05
   5  -2  -2    0.51    0.06
  -5   2   2    0.40    0.06
  -5   2   2    0.37    0.06
  -5   2   2    0.53    0.06
  -5   2   2    0.47    0.06
  -5   2   2    0.43    0.06
  -5   2   2    0.40    0.06
  -5   2   2    0.55    0.06
  -5   2   2    0.45    0.06
  -5   2   2    0.37    0.05
  -5   2   2    0.32    0.05
   4  -2  -2    4.96    0.42
   4  -2  -2    5.00    0.16
   4  -2  -2    5.14    0.16
   4  -2  -2    5.07    0.15
   4  -2  -2    4.91    0.16
   4  -2  -2    4.84    0.15
   4  -2  -2    4.77    0.15
   4  -2  -2    4.97    0.16
   4  -2  -2    5.02    0.15
  -4   2   2    5.02    0.16
  -4   2   2    5.08    0.16
  -4   2   2    4.87    0.15
  -4   2   2    5.19    0.16
  -4   2   2    5.12    0.16
  -4   2   2    5.21    0.15
  -4   2   2    5.12    0.16
  -4   2   2    5.15    0.16
  -4   2   2    5.10    0.41
  -4   2   2    4.84    0.21
  -4   2   2    5.03    0.15
   3  -2  -2    5.94    0.16
   3  -2  -2    5.71    0.16
   3  -2  -2    6.04    0.17
   3  -2  -2    6.02    0.17
   3  -2  -2    5.83    0.16
   3  -2  -2    5.97    0.16
   3  -2  -2    5.81    0.16
  -3   2   2    5.81    0.16
  -3   2   2    5.93    0.16
  -3   2   2    6.12    0.17
  -3   2   2    5.76    0.16
  -3   2   2    5.82    0.16
  -3   2   2    6.28    0.16
  -3   2   2    6.29    0.41
  -3   2   2    5.82    0.16
  -3   2   2    5.83    0.17
   2  -2  -2    0.58    0.04
   2  -2  -2    0.66    0.05
   2  -2  -2    0.62    0.05
   2  -2  -2    0.58    0.05
   2  -2  -2    0.60    0.04
   2  -2  -2    0.58    0.05
   2  -2  -2    0.64    0.04
  -2   2   2    0.64    0.05
  -2   2   2    0.62    0.04
  -2   2   2    0.58    0.05
  -2   2   2    0.57    0.14
  -2   2   2    0.60    0.05
  -2   2   2    0.39    0.06
  -2   2   2    0.58    0.05
  -2   2   2    0.59    0.05
  -2   2   2    0.58    0.05
   1  -2  -2    5.86    0.14
   1  -2  -2    5.49    0.14
   1  -2  -2    5.53    0.14
   1  -2  -2    5.54    0.13
   1  -2  -2    5.58    0.14
  -1   2   2    5.68    0.14
  -1   2   2    5.77    0.18
  -1   2   2    5.61    0.14
  -1   2   2    5.66    0.14
  -1   2   2    5.55    0.32
  -1   2   2    5.55    0.14
  -1   2   2    5.48    0.14
  -1   2   2    5.75    0.31
  -1   2   2    5.63    0.14
  -1   2   2    5.92    0.14
  -1   2   2    5.50    0.14
   0  -2  -2   75.59    1.46
   0  -2  -2   75.02    1.46
   0  -2  -2   74.78    1.46
   0  -2  -2   76.29    1.46
   0  -2  -2   76.02    1.46
   0   2   2   76.03    1.46
   0   2   2   76.34    1.46
   0   2   2   75.93    1.46
   0   2   2   76.86    1.46
   0   2   2   76.58    1.46
   0   2   2   80.22    1.72
   0   2   2   74.22    1.46
   0   2   2   75.70    1.46
   0   2   2   74.21    1.46
   0   2   2   80.82    1.72
   0   2   2   86.91    1.52
  -1  -2  -2  325.94    6.34
  -1  -2  -2  338.61    6.31
  -1  -2  -2  330.16    6.29
  -1  -2  -2  325.40    6.30
   1   2   2  319.51    7.18
   1   2   2  340.98    6.32
   1   2   2  325.57    6.33
   1   2   2  319.94    6.30
   1   2   2  329.53    6.29
   1   2   2  339.01    6.47
   1   2   2  341.37    6.35
   1   2   2  322.05    6.31
   1   2   2  338.29    6.30
   1   2   2  332.46    6.32
   1   2   2  333.05    6.34
   1   2   2  357.77    7.65
   1   2   2  336.94    6.31
  -2  -2  -2   29.55    0.59
  -2  -2  -2   29.70    0.59
  -2  -2  -2   29.93    0.59
  -2  -2  -2   28.77    0.58
  -2  -2  -2   29.57    0.58
  -2  -2  -2   29.50    0.59
   2   2   2   28.55    0.58
   2   2   2   29.02    0.59
   2   2   2   30.38    0.63
   2   2   2   29.11    0.58
   2   2   2   29.45    0.59
   2   2   2   29.05    0.59
   2   2   2   31.77    0.86
   2   2   2   29.16    0.58
   2   2   2   33.06    0.88
   2   2   2   29.42    0.59
   2   2   2   29.69    0.59
   2   2   2   29.43    0.59
  -3  -2  -2   24.14    0.51
  -3  -2  -2   25.14    0.50
  -3  -2  -2   25.00    0.51
  -3  -2  -2   25.39    0.50
  -3  -2  -2   24.87    0.52
  -3  -2  -2   25.26    0.51
   3   2   2   24.52    0.81
   3   2   2   24.91    0.51
   3   2   2   24.30    0.81
   3   2   2   24.89    0.50
   3   2   2   24.60    0.50
   3   2   2   24.82    0.56
   3   2   2   25.08    0.51
   3   2   2   24.68    0.50
   3   2   2   25.57    0.51
   3   2   2   24.92    0.51
   3   2   2   25.27    0.56
   3   2   2   24.49    0.50
  -4  -2  -2   44.36    0.88
  -4  -2  -2   43.74    0.87
  -4  -2  -2   44.20    0.88
  -4  -2  -2   44.00    0.88
  -4  -2  -2   44.07    0.87
  -4  -2  -2   42.49    0.88
  -4  -2  -2   44.50    0.88
  -4  -2  -2   44.15    0.87
   4   2   2   43.54    0.88
   4   2   2   43.31    0.88
   4   2   2   43.68    0.87
   4   2   2   45.29    1.32
   4   2   2   44.01    0.94
   4   2   2   42.79    0.87
   4   2   2   44.36    0.95
   4   2   2   44.41    0.87
   4   2   2   44.33    1.30
   4   2   2   43.19    0.86
   4   2   2   42.75    0.87
   4   2   2   43.83    0.87
  -5  -2  -2    9.58    0.25
  -5  -2  -2    9.37    0.25
  -5  -2  -2    9.49    0.24
  -5  -2  -2    9.25    0.24
  -5  -2  -2    9.48    0.24
  -5  -2  -2    9.70    0.24
  -5  -2  -2    9.59    0.24
  -5  -2  -2    9.81    0.24
  -5  -2  -2    9.02    0.24
   5   2   2    9.34    0.24
   5   2   2    9.58    0.24
   5   2   2    9.61    0.24
   5   2   2    9.23    0.30
   5   2   2    9.90    0.25
   5   2   2    9.15    0.56
   5   2   2    9.59    0.24
   5   2   2    9.18    0.23
   5   2   2    8.58    0.54
   5   2   2    9.40    0.31
   5   2   2    9.15    0.24
   5   2   2    9.42    0.24
  -6  -2  -2   19.50    0.45
  -6  -2  -2   18.96    0.43
  -6  -2  -2   18.72    0.44
  -6  -2  -2   18.94    0.43
  -6  -2  -2   18.66    0.44
  -6  -2  -2   19.36    0.45
  -6  -2  -2   18.98    0.44
  -6  -2  -2   18.66    0.43
   6   2   2   18.43    0.51
   6   2   2   19.49    0.91
   6   2   2   18.66    0.43
   6   2   2   19.64    0.45
   6   2   2   19.41    0.53
   6   2   2   18.49    0.43
   6   2   2   18.70    0.43
   6   2   2   19.04    0.43
   6   2   2   19.04    0.44
   6   2   2   19.02    0.43
   6   2   2   18.09    0.43
  -7  -2  -2    6.08    0.20
  -7  -2  -2    5.95    0.21
  -7  -2  -2    6.38    0.20
  -7  -2  -2    5.63    0.20
  -7  -2  -2    5.75    0.21
  -7  -2  -2    6.01    0.20
   7   2   2    6.25    0.21
   7   2   2    6.16    0.20
   7   2   2    5.90    0.20
   7   2   2    6.15    0.20
   7   2   2    6.08    0.20
   7   2   2    6.04    0.20
   7   2   2    6.09    0.19
   7   2   2    6.10    0.19
  -8  -2  -2   10.48    0.31
  -8  -2  -2   10.59    0.30
  -8  -2  -2    9.91    0.30
  -8  -2  -2   10.19    0.31
  -8  -2  -2   10.34    0.32
   8   2   2   10.44    0.31
   8   2   2    9.82    0.29
   8   2   2   10.07    0.28
   8   2   2    9.98    0.29
   8   2   2   10.00    0.30
   8   2   2    9.92    0.29
   8   2   2   10.32    0.31
   8   2   2   10.21    0.29
  -9  -2  -2    5.37    0.22
  -9  -2  -2    5.10    0.22
  -9  -2  -2    5.30    0.22
   9   2   2    5.50    0.22
   9   2   2    5.16    0.19
   9   2   2    5.45    0.21
   9   2   2    5.32    0.21
   9   2   2    5.62    0.22
   9   2   2    5.35    0.21
   9   2   2    5.22    0.21
   9   2   2    5.27    0.21
 -10  -2  -2   -0.01    0.06
 -10  -2  -2   -0.05    0.06
 -10  -2  -2   -0.07    0.06
  10   2   2    0.02    0.06
  10   2   2   -0.07    0.05
  10   2   2   -0.01    0.06
  10   2   2   -0.11    0.05
  10   2   2   -0.03    0.04
  10   2   2   -0.02    0.05
  10   2   2    0.03    0.06
   8  -3  -2    0.02    0.05
   8  -3  -2    0.01    0.05
   8  -3  -2   -0.06    0.04
   8  -3  -2   -0.02    0.05
   8  -3  -2    0.01    0.05
   8  -3  -2   -0.03    0.06
  -8   3   2   -0.04    0.05
  -8   3   2   -0.06    0.04
  -8   3   2    0.00    0.05
   7  -3  -2    0.29    0.07
   7  -3  -2    0.31    0.07
   7  -3  -2    0.35    0.07
   7  -3  -2    0.39    0.07
   7  -3  -2    0.28    0.06
   7  -3  -2    0.33    0.06
   7  -3  -2    0.43    0.08
   7  -3  -2    0.32    0.06
  -7   3   2    0.24    0.07
  -7   3   2    0.32    0.07
  -7   3   2    0.44    0.07
  -7   3   2    0.25    0.07
   6  -3  -2    0.36    0.06
   6  -3  -2    0.41    0.07
   6  -3  -2    0.32    0.06
   6  -3  -2    0.34    0.06
   6  -3  -2    0.20    0.05
   6  -3  -2    0.27    0.05
   6  -3  -2    0.31    0.06
   6  -3  -2    0.29    0.05
  -6   3   2    0.37    0.06
  -6   3   2    0.39    0.06
  -6   3   2    0.38    0.06
  -6   3   2    0.27    0.06
  -6   3   2    0.50    0.08
  -6   3   2    0.37    0.06
   5  -3  -2    5.60    0.19
   5  -3  -2    5.74    0.18
   5  -3  -2    5.98    0.19
   5  -3  -2    5.42    0.18
   5  -3  -2    5.40    0.18
   5  -3  -2    5.32    0.18
   5  -3  -2    5.62    0.18
   5  -3  -2    5.35    0.18
  -5   3   2    5.46    0.18
  -5   3   2    5.48    0.18
  -5   3   2    5.32    0.18
  -5   3   2    5.53    0.18
  -5   3   2    5.82    0.19
  -5   3   2    5.66    0.18
  -5   3   2    5.80    0.19
   4  -3  -2    1.74    0.09
   4  -3  -2    1.76    0.09
   4  -3  -2    1.82    0.10
   4  -3  -2    1.49    0.12
   4  -3  -2    1.71    0.09
   4  -3  -2    1.67    0.09
   4  -3  -2    1.65    0.15
   4  -3  -2    1.60    0.08
   4  -3  -2    1.73    0.09
   4  -3  -2    1.48    0.27
  -4   3   2    1.67    0.09
  -4   3   2    2.26    0.38
  -4   3   2    1.61    0.09
  -4   3   2    1.62    0.09
  -4   3   2    1.80    0.09
  -4   3   2    1.76    0.09
   3  -3  -2    1.26    0.07
   3  -3  -2    1.38    0.08
   3  -3  -2    1.59    0.11
   3  -3  -2    1.42    0.07
   3  -3  -2    1.33    0.08
   3  -3  -2    1.40    0.08
   3  -3  -2    1.50    0.08
   3  -3  -2    1.41    0.07
   3  -3  -2    1.47    0.07
  -3   3   2    1.39    0.07
  -3   3   2    1.36    0.08
  -3   3   2    1.39    0.08
  -3   3   2    1.45    0.08
  -3   3   2    1.46    0.08
  -3   3   2    1.34    0.07
  -3   3   2    1.35    0.07
  -3   3   2    1.76    0.26
   2  -3  -2   21.25    0.45
   2  -3  -2   21.89    0.47
   2  -3  -2   21.19    0.45
   2  -3  -2   21.94    0.45
   2  -3  -2   21.79    0.46
   2  -3  -2   21.94    0.46
   2  -3  -2   21.40    0.46
   2  -3  -2   22.22    0.46
  -2   3   2   21.59    0.45
  -2   3   2   21.49    0.45
  -2   3   2   21.43    0.46
  -2   3   2   22.28    0.92
  -2   3   2   21.50    0.45
  -2   3   2   21.34    0.46
  -2   3   2   21.74    0.46
  -2   3   2   21.80    0.46
   1  -3  -2    7.57    0.19
   1  -3  -2    7.69    0.18
   1  -3  -2    7.70    0.18
   1  -3  -2    7.65    0.18
   1  -3  -2    7.53    0.18
   1  -3  -2    7.62    0.18
   1  -3  -2    7.47    0.18
  -1   3   2    7.79    0.18
  -1   3   2    7.61    0.18
  -1   3   2    7.53    0.18
  -1   3   2    7.55    0.18
  -1   3   2    7.61    0.19
  -1   3   2    7.53    0.41
  -1   3   2    7.35    0.18
  -1   3   2    7.55    0.18
   0  -3  -2   63.52    1.24
   0  -3  -2   63.74    1.24
   0  -3  -2   64.92    1.24
   0  -3  -2   63.26    1.23
   0  -3  -2   63.44    1.24
   0  -3  -2   63.27    1.24
   0  -3  -2   64.08    1.23
   0   3   2   64.74    1.24
   0   3   2   64.49    1.23
   0   3   2   63.05    1.24
   0   3   2   69.39    1.59
   0   3   2   69.28    1.60
   0   3   2   63.68    1.23
   0   3   2   62.77    1.24
   0   3   2   62.97    1.23
   0   3   2   63.49    1.24
  -1  -3  -2   60.54    1.14
  -1  -3  -2   59.25    1.14
  -1  -3  -2   57.40    1.15
  -1  -3  -2   61.39    1.15
  -1  -3  -2   60.58    1.15
   1   3   2   60.11    1.15
   1   3   2   60.58    1.15
   1   3   2   60.85    1.15
   1   3   2   59.60    1.15
   1   3   2   58.39    1.48
   1   3   2   59.54    1.14
   1   3   2   59.14    1.15
   1   3   2   59.14    1.15
   1   3   2   58.13    1.14
   1   3   2   58.90    1.15
  -2  -3  -2    3.90    0.11
  -2  -3  -2    3.90    0.11
  -2  -3  -2    4.13    0.12
  -2  -3  -2    3.96    0.12
  -2  -3  -2    4.32    0.11
  -2  -3  -2    4.05    0.12
   2   3   2    3.96    0.12
   2   3   2    3.91    0.11
   2   3   2    4.24    0.30
   2   3   2    3.76    0.11
   2   3   2    3.80    0.11
   2   3   2    3.90    0.11
   2   3   2    4.52    0.33
   2   3   2    4.04    0.10
   2   3   2    3.82    0.11
   2   3   2    3.92    0.12
  -3  -3  -2    0.27    0.04
  -3  -3  -2    0.21    0.03
  -3  -3  -2    0.26    0.04
  -3  -3  -2    0.16    0.03
  -3  -3  -2    0.12    0.03
  -3  -3  -2    0.25    0.03
   3   3   2    0.09    0.04
   3   3   2    0.24    0.03
   3   3   2    0.19    0.03
   3   3   2    0.30    0.04
   3   3   2    0.19    0.03
   3   3   2    0.16    0.03
   3   3   2    0.20    0.03
   3   3   2    0.24    0.04
   3   3   2    0.22    0.04
  -4  -3  -2   14.02    0.32
  -4  -3  -2   14.01    0.33
  -4  -3  -2   14.20    0.33
  -4  -3  -2   14.21    0.33
  -4  -3  -2   14.52    0.32
  -4  -3  -2   13.43    0.32
  -4  -3  -2   14.19    0.32
   4   3   2   13.42    0.32
   4   3   2   13.88    0.32
   4   3   2   14.07    0.32
   4   3   2   14.18    0.33
   4   3   2   14.64    0.40
   4   3   2   14.94    0.67
   4   3   2   14.15    0.32
   4   3   2   14.21    0.33
   4   3   2   14.84    0.68
   4   3   2   14.25    0.39
   4   3   2   13.96    0.32
   4   3   2   14.01    0.32
  -5  -3  -2    1.32    0.08
  -5  -3  -2    1.20    0.08
  -5  -3  -2    1.29    0.07
  -5  -3  -2    1.31    0.08
  -5  -3  -2    1.32    0.08
  -5  -3  -2    1.29    0.08
  -5  -3  -2    1.56    0.09
   5   3   2    1.18    0.08
   5   3   2    1.28    0.08
   5   3   2    1.27    0.08
   5   3   2    1.23    0.07
   5   3   2    1.51    0.12
   5   3   2    1.43    0.09
   5   3   2    1.36    0.08
   5   3   2    1.24    0.08
   5   3   2    1.31    0.07
   5   3   2    1.56    0.12
  -6  -3  -2    0.03    0.03
  -6  -3  -2    0.05    0.04
  -6  -3  -2    0.01    0.03
  -6  -3  -2    0.07    0.04
  -6  -3  -2    0.08    0.04
  -6  -3  -2    0.03    0.04
  -6  -3  -2    0.07    0.04
  -6  -3  -2    0.02    0.04
   6   3   2    0.02    0.03
   6   3   2    0.07    0.04
   6   3   2    0.02    0.04
   6   3   2    0.13    0.04
   6   3   2    0.04    0.12
   6   3   2    0.11    0.04
   6   3   2   -0.03    0.03
   6   3   2    0.01    0.03
   6   3   2    0.09    0.04
   6   3   2    0.03    0.03
  -7  -3  -2    0.07    0.05
  -7  -3  -2    0.01    0.04
  -7  -3  -2    0.07    0.05
  -7  -3  -2    0.07    0.05
  -7  -3  -2   -0.03    0.03
  -7  -3  -2    0.01    0.04
   7   3   2    0.04    0.04
   7   3   2    0.06    0.04
   7   3   2    0.05    0.04
   7   3   2    0.01    0.04
   7   3   2    0.08    0.04
   7   3   2   -0.02    0.04
   7   3   2    0.07    0.04
   7   3   2    0.02    0.05
  -8  -3  -2   10.01    0.30
  -8  -3  -2    9.65    0.29
  -8  -3  -2   10.34    0.29
  -8  -3  -2    9.60    0.30
   8   3   2    9.82    0.30
   8   3   2   10.12    0.29
   8   3   2    9.78    0.29
   8   3   2    9.87    0.28
   8   3   2    9.90    0.29
   8   3   2    9.17    0.29
   8   3   2    9.61    0.29
   8   3   2    9.78    0.30
  -9  -3  -2    3.58    0.18
  -9  -3  -2    3.72    0.19
  -9  -3  -2    3.80    0.19
   9   3   2    4.05    0.19
   9   3   2    3.88    0.18
   9   3   2    3.79    0.18
   9   3   2    3.85    0.18
   9   3   2    3.93    0.17
   9   3   2    3.64    0.17
   9   3   2    4.02    0.19
   9   3   2    3.83    0.18
 -10  -3  -2    0.09    0.07
 -10  -3  -2    0.11    0.07
 -10  -3  -2    0.09    0.07
  10   3   2    0.18    0.07
  10   3   2    0.22    0.08
  10   3   2    0.04    0.06
  10   3   2    0.19    0.07
  10   3   2    0.24    0.07
  10   3   2    0.21    0.06
  10   3   2    0.07    0.07
   8  -4  -2    1.03    0.11
   8  -4  -2    0.90    0.11
   8  -4  -2    1.15    0.12
   8  -4  -2    0.90    0.10
   8  -4  -2    0.84    0.11
   8  -4  -2    1.08    0.11
   8  -4  -2    0.87    0.11
  -8   4   2    0.95    0.12
  -8   4   2    0.79    0.10
   7  -4  -2    0.49    0.08
   7  -4  -2    0.33    0.06
   7  -4  -2    0.40    0.08
   7  -4  -2    0.36    0.07
   7  -4  -2    0.31    0.07
   7  -4  -2    0.34    0.07
   7  -4  -2    0.37    0.07
  -7   4   2    0.56    0.08
  -7   4   2    0.33    0.07
  -7   4   2    0.34    0.07
   6  -4  -2   21.58    0.50
   6  -4  -2   20.21    0.49
   6  -4  -2   21.35    0.51
   6  -4  -2   20.95    0.49
   6  -4  -2   20.72    0.50
   6  -4  -2   20.74    0.52
   6  -4  -2   21.14    0.50
  -6   4   2   20.85    0.51
  -6   4   2   20.92    0.50
  -6   4   2   20.71    0.51
  -6   4   2   21.85    0.51
   5  -4  -2    5.39    0.18
   5  -4  -2    5.04    0.17
   5  -4  -2    5.09    0.19
   5  -4  -2    5.14    0.17
   5  -4  -2    5.16    0.18
   5  -4  -2    4.93    0.18
   5  -4  -2    4.91    0.17
  -5   4   2    5.03    0.17
  -5   4   2    5.16    0.17
  -5   4   2    4.89    0.18
  -5   4   2    4.92    0.18
  -5   4   2    5.25    0.18
   4  -4  -2    0.01    0.03
   4  -4  -2    0.02    0.03
   4  -4  -2    0.01    0.10
   4  -4  -2    0.01    0.03
   4  -4  -2    0.01    0.03
   4  -4  -2    0.01    0.03
   4  -4  -2   -0.01    0.05
   4  -4  -2    0.01    0.03
   4  -4  -2    0.08    0.04
   4  -4  -2    0.04    0.03
  -4   4   2    0.03    0.03
  -4   4   2    0.03    0.03
  -4   4   2    0.00    0.03
  -4   4   2    0.02    0.03
  -4   4   2    0.01    0.03
  -4   4   2    0.03    0.03
  -4   4   2    0.02    0.03
   3  -4  -2    6.16    0.24
   3  -4  -2    6.03    0.17
   3  -4  -2    6.28    0.18
   3  -4  -2    6.16    0.18
   3  -4  -2    6.19    0.19
   3  -4  -2    6.34    0.18
   3  -4  -2    6.24    0.18
   3  -4  -2    5.13    0.44
   3  -4  -2    5.98    0.17
   3  -4  -2    6.15    0.19
  -3   4   2    5.96    0.18
  -3   4   2    6.39    0.18
  -3   4   2    6.05    0.18
  -3   4   2    6.23    0.18
  -3   4   2    6.15    0.18
  -3   4   2    6.26    0.18
  -3   4   2    6.11    0.18
   2  -4  -2    9.54    0.23
   2  -4  -2    9.73    0.24
   2  -4  -2    9.52    0.23
   2  -4  -2    9.47    0.24
   2  -4  -2    8.83    0.41
   2  -4  -2    9.73    0.25
   2  -4  -2    9.03    0.23
   2  -4  -2    9.06    0.53
   2  -4  -2    9.59    0.23
   2  -4  -2   10.88    0.63
  -2   4   2    9.87    0.24
  -2   4   2    9.42    0.24
  -2   4   2    9.66    0.24
  -2   4   2    9.67    0.23
  -2   4   2    9.22    0.23
  -2   4   2    9.61    0.24
   1  -4  -2   19.35    0.41
   1  -4  -2   19.10    0.42
   1  -4  -2   19.14    0.41
   1  -4  -2   19.47    0.78
   1  -4  -2   18.47    0.41
   1  -4  -2   19.42    0.41
   1  -4  -2   19.25    0.42
   1  -4  -2   18.84    0.41
  -1   4   2   18.99    0.41
  -1   4   2   19.29    0.41
  -1   4   2   19.11    0.41
  -1   4   2   19.02    0.41
  -1   4   2   19.62    0.41
  -1   4   2   19.10    0.41
  -1   4   2   18.86    0.41
   0  -4  -2   15.15    0.33
   0  -4  -2   16.05    0.34
   0  -4  -2   15.48    0.33
   0  -4  -2   15.39    0.34
   0  -4  -2   15.27    0.66
   0  -4  -2   15.57    0.34
   0  -4  -2   15.31    0.33
   0   4   2   15.48    0.34
   0   4   2   15.61    0.33
   0   4   2   14.85    0.33
   0   4   2   15.13    0.33
   0   4   2   14.63    0.33
   0   4   2   15.32    0.33
   0   4   2   15.30    0.33
  -1  -4  -2  121.34    2.34
  -1  -4  -2  122.21    2.33
  -1  -4  -2  126.12    2.81
  -1  -4  -2  122.93    2.33
  -1  -4  -2  123.01    2.34
  -1  -4  -2  119.36    2.33
   1   4   2  124.36    2.34
   1   4   2  121.50    2.33
   1   4   2  122.17    2.33
   1   4   2  122.97    2.34
   1   4   2  121.25    2.33
   1   4   2  124.19    2.33
   1   4   2  122.40    2.33
   1   4   2  125.53    2.33
  -2  -4  -2    4.78    0.13
  -2  -4  -2    4.82    0.14
  -2  -4  -2    4.69    0.13
  -2  -4  -2    4.67    0.14
  -2  -4  -2    4.60    0.14
   2   4   2    4.70    0.13
   2   4   2    4.65    0.14
   2   4   2    5.68    0.38
   2   4   2    4.83    0.14
   2   4   2    4.46    0.13
   2   4   2    4.48    0.14
   2   4   2    4.68    0.14
   2   4   2    4.77    0.14
  -3  -4  -2    6.78    0.18
  -3  -4  -2    7.03    0.18
  -3  -4  -2    6.97    0.18
  -3  -4  -2    7.04    0.19
  -3  -4  -2    6.81    0.19
   3   4   2    6.92    0.19
   3   4   2    7.11    0.19
   3   4   2    6.82    0.50
   3   4   2    6.76    0.18
   3   4   2    6.90    0.19
   3   4   2    7.06    0.19
   3   4   2    7.14    0.18
  -4  -4  -2    0.19    0.04
  -4  -4  -2    0.20    0.04
  -4  -4  -2    0.18    0.04
  -4  -4  -2    0.23    0.04
  -4  -4  -2    0.16    0.04
  -4  -4  -2    0.19    0.04
  -4  -4  -2    0.17    0.04
  -4  -4  -2    0.17    0.04
   4   4   2    0.24    0.04
   4   4   2    0.17    0.04
   4   4   2    0.17    0.04
   4   4   2    0.23    0.04
   4   4   2    0.06    0.11
   4   4   2    0.15    0.03
   4   4   2    0.15    0.06
   4   4   2    0.09    0.05
   4   4   2    0.21    0.04
   4   4   2    0.19    0.03
   4   4   2    0.02    0.09
   4   4   2    0.18    0.04
  -5  -4  -2    0.10    0.04
  -5  -4  -2    0.12    0.04
  -5  -4  -2    0.11    0.03
  -5  -4  -2    0.13    0.04
  -5  -4  -2    0.10    0.04
  -5  -4  -2    0.14    0.04
  -5  -4  -2    0.13    0.04
  -5  -4  -2    0.06    0.03
   5   4   2    0.10    0.04
   5   4   2    0.06    0.05
   5   4   2    0.10    0.03
   5   4   2    0.15    0.04
   5   4   2    0.03    0.10
   5   4   2    0.12    0.06
   5   4   2    0.16    0.04
   5   4   2    0.13    0.04
   5   4   2    0.18    0.04
   5   4   2    0.14    0.04
   5   4   2    0.11    0.04
  -6  -4  -2   11.95    0.33
  -6  -4  -2   12.17    0.31
  -6  -4  -2   12.05    0.31
  -6  -4  -2   11.80    0.32
  -6  -4  -2   11.64    0.32
  -6  -4  -2   12.57    0.32
  -6  -4  -2   12.62    0.31
  -6  -4  -2   12.77    0.32
   6   4   2   12.42    0.31
   6   4   2   12.20    0.32
   6   4   2   12.34    0.31
   6   4   2   12.04    0.32
   6   4   2   12.35    0.31
   6   4   2   12.07    0.31
   6   4   2   12.54    0.33
   6   4   2   12.50    0.32
  -7  -4  -2    2.12    0.12
  -7  -4  -2    2.37    0.12
  -7  -4  -2    2.33    0.13
  -7  -4  -2    2.34    0.14
  -7  -4  -2    2.35    0.13
  -7  -4  -2    2.32    0.12
   7   4   2    2.33    0.12
   7   4   2    2.14    0.13
   7   4   2    2.36    0.12
   7   4   2    2.49    0.13
   7   4   2    2.34    0.12
   7   4   2    2.12    0.12
   7   4   2    2.25    0.12
   7   4   2    2.26    0.13
  -8  -4  -2    5.23    0.21
  -8  -4  -2    5.38    0.20
  -8  -4  -2    5.01    0.20
  -8  -4  -2    4.93    0.20
  -8  -4  -2    5.14    0.19
   8   4   2    5.07    0.20
   8   4   2    5.43    0.20
   8   4   2    4.98    0.20
   8   4   2    5.38    0.21
   8   4   2    5.04    0.20
   8   4   2    5.17    0.19
   8   4   2    5.58    0.20
   8   4   2    5.22    0.20
  -9  -4  -2    0.83    0.10
  -9  -4  -2    0.70    0.10
  -9  -4  -2    0.64    0.09
  -9  -4  -2    0.94    0.11
   9   4   2    0.79    0.10
   9   4   2    0.79    0.11
   9   4   2    0.90    0.10
   9   4   2    0.62    0.08
   9   4   2    0.76    0.10
   9   4   2    0.77    0.09
   9   4   2    0.87    0.11
   9   4   2    0.91    0.10
   8  -5  -2    0.06    0.05
   8  -5  -2    0.03    0.06
   8  -5  -2    0.03    0.06
   8  -5  -2    0.16    0.07
   8  -5  -2    0.06    0.07
   8  -5  -2   -0.01    0.06
   8  -5  -2    0.09    0.07
  -8   5   2   -0.01    0.06
  -8   5   2    0.20    0.08
   7  -5  -2   -0.01    0.05
   7  -5  -2    0.04    0.05
   7  -5  -2    0.04    0.05
   7  -5  -2    0.09    0.05
   7  -5  -2    0.11    0.06
   7  -5  -2    0.06    0.05
   7  -5  -2    0.11    0.06
  -7   5   2    0.05    0.05
  -7   5   2    0.03    0.05
   6  -5  -2    0.08    0.05
   6  -5  -2   -0.06    0.04
   6  -5  -2    0.06    0.05
   6  -5  -2    0.04    0.04
   6  -5  -2    0.04    0.04
   6  -5  -2   -0.02    0.04
   6  -5  -2    0.03    0.05
  -6   5   2   -0.02    0.05
  -6   5   2    0.06    0.05
  -6   5   2    0.03    0.05
   5  -5  -2    0.95    0.09
   5  -5  -2    0.90    0.09
   5  -5  -2    0.79    0.08
   5  -5  -2    1.02    0.10
   5  -5  -2    0.94    0.08
   5  -5  -2    0.84    0.08
   5  -5  -2    0.94    0.09
  -5   5   2    1.01    0.09
  -5   5   2    0.82    0.08
  -5   5   2    0.72    0.08
  -5   5   2    0.84    0.09
   4  -5  -2   24.73    0.55
   4  -5  -2   24.64    0.55
   4  -5  -2   25.01    0.56
   4  -5  -2   24.63    0.55
   4  -5  -2   24.69    0.55
   4  -5  -2   25.30    0.57
   4  -5  -2   25.01    0.56
  -4   5   2   24.20    0.56
  -4   5   2   25.19    0.55
  -4   5   2   24.17    0.56
  -4   5   2   25.44    0.57
  -4   5   2   24.73    0.55
  -4   5   2   25.53    0.56
   3  -5  -2    0.08    0.03
   3  -5  -2    0.08    0.04
   3  -5  -2    0.09    0.03
   3  -5  -2    0.07    0.03
   3  -5  -2    0.03    0.03
   3  -5  -2    0.09    0.05
   3  -5  -2    0.12    0.04
   3  -5  -2    0.09    0.13
   3  -5  -2    0.14    0.04
   3  -5  -2    0.08    0.04
  -3   5   2    0.12    0.04
  -3   5   2    0.09    0.03
  -3   5   2    0.13    0.04
  -3   5   2    0.08    0.04
  -3   5   2    0.09    0.04
  -3   5   2    0.12    0.03
  -3   5   2    0.06    0.04
   2  -5  -2   75.10    1.48
   2  -5  -2   76.51    1.49
   2  -5  -2   74.81    2.07
   2  -5  -2   76.69    1.48
   2  -5  -2   75.41    1.47
   2  -5  -2   73.79    1.47
   2  -5  -2   73.12    1.57
   2  -5  -2   74.23    1.47
   2  -5  -2   74.15    1.48
   2  -5  -2   74.49    1.47
   2  -5  -2   75.49    1.49
  -2   5   2   76.86    1.47
  -2   5   2   74.28    1.48
  -2   5   2   76.83    1.48
  -2   5   2   77.68    1.48
  -2   5   2   77.84    1.48
  -2   5   2   75.46    1.47
   1  -5  -2   20.74    0.53
   1  -5  -2   19.86    0.45
   1  -5  -2   22.38    0.89
   1  -5  -2   21.04    0.46
   1  -5  -2   20.22    0.45
   1  -5  -2   21.95    0.87
   1  -5  -2   20.03    0.44
   1  -5  -2   19.95    0.44
   1  -5  -2   20.13    0.45
   1  -5  -2   20.70    0.46
  -1   5   2   20.61    0.45
  -1   5   2   20.70    0.44
  -1   5   2   20.66    0.45
  -1   5   2   20.35    0.45
  -1   5   2   20.34    0.45
  -1   5   2   19.84    0.44
  -1   5   2   20.45    0.45
   0  -5  -2   26.10    0.55
   0  -5  -2   26.14    0.56
   0  -5  -2   26.29    0.56
   0  -5  -2   26.17    0.56
   0  -5  -2   27.91    0.99
   0  -5  -2   28.86    1.00
   0  -5  -2   25.72    0.55
   0  -5  -2   27.14    0.64
   0   5   2   25.95    0.55
   0   5   2   26.24    0.56
   0   5   2   25.92    0.56
   0   5   2   26.99    0.56
   0   5   2   26.13    0.55
   0   5   2   26.00    0.55
   0   5   2   26.24    0.56
  -1  -5  -2   12.85    0.29
  -1  -5  -2   11.79    0.64
  -1  -5  -2   12.72    0.29
  -1  -5  -2   12.77    0.30
  -1  -5  -2   12.47    0.29
  -1  -5  -2   11.21    0.59
  -1  -5  -2   12.20    0.29
   1   5   2   12.35    0.29
   1   5   2   12.54    0.29
   1   5   2   12.61    0.29
   1   5   2   12.81    0.30
   1   5   2   12.63    0.29
   1   5   2   12.18    0.29
   1   5   2   12.42    0.28
   1   5   2   12.94    0.29
  -2  -5  -2   32.23    0.68
  -2  -5  -2   32.00    0.67
  -2  -5  -2   32.81    0.66
  -2  -5  -2   31.95    0.67
  -2  -5  -2   32.67    0.66
  -2  -5  -2   32.04    0.66
   2   5   2   32.50    0.67
   2   5   2   32.30    0.67
   2   5   2   34.78    0.68
   2   5   2   32.90    0.67
   2   5   2   32.27    0.66
   2   5   2   31.89    0.67
   2   5   2   32.87    0.68
  -3  -5  -2    7.98    0.21
  -3  -5  -2    7.90    0.22
  -3  -5  -2    8.04    0.21
  -3  -5  -2    9.38    0.63
  -3  -5  -2    7.80    0.21
  -3  -5  -2    7.97    0.21
  -3  -5  -2    7.79    0.21
  -3  -5  -2    7.52    0.20
   3   5   2    7.83    0.21
   3   5   2    7.78    0.21
   3   5   2    8.35    0.22
   3   5   2    7.75    0.21
   3   5   2    7.81    0.22
   3   5   2    7.82    0.21
   3   5   2    7.66    0.52
   3   5   2    7.93    0.21
  -4  -5  -2   46.36    0.92
  -4  -5  -2   45.60    0.93
  -4  -5  -2   45.83    0.93
  -4  -5  -2   46.77    0.94
  -4  -5  -2   42.30    1.45
  -4  -5  -2   44.66    1.03
  -4  -5  -2   46.10    0.93
   4   5   2   45.79    0.92
   4   5   2   47.09    0.93
   4   5   2   43.54    1.08
   4   5   2   44.96    0.93
   4   5   2   46.94    0.93
   4   5   2   47.47    0.94
   4   5   2   47.12    0.92
   4   5   2   45.56    0.92
   4   5   2   44.96    1.50
   4   5   2   45.58    0.93
  -5  -5  -2   10.76    0.28
  -5  -5  -2   10.74    0.28
  -5  -5  -2   10.38    0.28
  -5  -5  -2   10.64    0.28
  -5  -5  -2   10.66    0.28
  -5  -5  -2   10.54    0.28
  -5  -5  -2   10.81    0.27
  -5  -5  -2   10.63    0.29
   5   5   2   10.94    0.28
   5   5   2   10.47    0.28
   5   5   2    9.97    0.28
   5   5   2   10.62    0.29
   5   5   2   10.84    0.28
   5   5   2   10.59    0.28
   5   5   2   10.70    0.28
   5   5   2   10.86    0.28
  -6  -5  -2    5.02    0.19
  -6  -5  -2    4.79    0.17
  -6  -5  -2    4.51    0.17
  -6  -5  -2    4.67    0.17
  -6  -5  -2    4.44    0.17
  -6  -5  -2    4.84    0.17
  -6  -5  -2    4.65    0.17
  -6  -5  -2    4.62    0.17
  -6  -5  -2    5.04    0.20
   6   5   2    4.59    0.17
   6   5   2    4.45    0.17
   6   5   2    4.87    0.18
   6   5   2    4.63    0.17
   6   5   2    4.72    0.17
   6   5   2    4.90    0.17
   6   5   2    4.81    0.18
   6   5   2    4.64    0.17
  -7  -5  -2    0.04    0.04
  -7  -5  -2    0.03    0.04
  -7  -5  -2    0.04    0.04
  -7  -5  -2    0.02    0.05
  -7  -5  -2    0.02    0.05
  -7  -5  -2   -0.02    0.04
   7   5   2   -0.01    0.03
   7   5   2    0.06    0.05
   7   5   2    0.02    0.04
   7   5   2   -0.02    0.04
   7   5   2    0.06    0.05
   7   5   2    0.02    0.04
   7   5   2   -0.05    0.04
   7   5   2    0.04    0.04
  -8  -5  -2    0.26    0.07
  -8  -5  -2    0.23    0.06
  -8  -5  -2    0.28    0.07
  -8  -5  -2    0.17    0.06
  -8  -5  -2    0.16    0.06
   8   5   2    0.18    0.06
   8   5   2    0.09    0.06
   8   5   2    0.23    0.06
   8   5   2    0.19    0.06
   8   5   2    0.23    0.07
   8   5   2    0.15    0.05
   8   5   2    0.23    0.06
  -9  -5  -2    1.09    0.12
  -9  -5  -2    0.97    0.11
  -9  -5  -2    0.95    0.11
  -9  -5  -2    0.93    0.11
  -9  -5  -2    1.02    0.11
   9   5   2    0.99    0.12
   9   5   2    0.98    0.11
   9   5   2    1.07    0.11
   9   5   2    1.14    0.11
   9   5   2    1.01    0.11
   7  -6  -2    1.25    0.11
   7  -6  -2    1.27    0.12
   7  -6  -2    1.25    0.12
   7  -6  -2    1.03    0.12
   7  -6  -2    1.15    0.11
   7  -6  -2    1.39    0.13
   7  -6  -2    1.37    0.13
  -7   6   2    1.34    0.13
  -7   6   2    1.34    0.13
   6  -6  -2    4.21    0.20
   6  -6  -2    4.63    0.18
   6  -6  -2    4.55    0.19
   6  -6  -2    4.15    0.19
   6  -6  -2    4.27    0.18
   6  -6  -2    4.04    0.18
   6  -6  -2    4.08    0.18
  -6   6   2    4.68    0.20
  -6   6   2    4.10    0.19
   5  -6  -2    2.47    0.13
   5  -6  -2    2.42    0.14
   5  -6  -2    2.44    0.13
   5  -6  -2    2.39    0.13
   5  -6  -2    2.38    0.14
   5  -6  -2    2.44    0.13
   5  -6  -2    2.30    0.12
  -5   6   2    2.34    0.14
  -5   6   2    2.34    0.14
  -5   6   2    2.58    0.13
   4  -6  -2    9.62    0.28
   4  -6  -2    9.43    0.27
   4  -6  -2    9.65    0.27
   4  -6  -2    9.24    0.27
   4  -6  -2    9.33    0.28
   4  -6  -2    9.62    0.27
   4  -6  -2    9.68    0.27
  -4   6   2    9.43    0.28
  -4   6   2    9.93    0.28
  -4   6   2    9.89    0.27
  -4   6   2    9.63    0.28
   3  -6  -2    4.33    0.16
   3  -6  -2    4.63    0.17
   3  -6  -2    4.23    0.15
   3  -6  -2    4.43    0.15
   3  -6  -2    4.20    0.15
   3  -6  -2    4.08    0.15
   3  -6  -2    3.52    0.42
   3  -6  -2    4.21    0.15
  -3   6   2    4.28    0.16
  -3   6   2    4.26    0.16
  -3   6   2    3.98    0.16
  -3   6   2    4.53    0.15
   2  -6  -2    7.24    0.21
   2  -6  -2    7.21    0.21
   2  -6  -2    8.36    0.58
   2  -6  -2    7.35    0.21
   2  -6  -2    7.28    0.22
   2  -6  -2    7.47    0.29
   2  -6  -2    7.26    0.21
   2  -6  -2    7.12    0.25
  -2   6   2    7.38    0.21
  -2   6   2    7.33    0.21
  -2   6   2    7.02    0.21
  -2   6   2    7.32    0.21
  -2   6   2    7.26    0.22
   1  -6  -2   15.10    0.36
   1  -6  -2   15.65    0.37
   1  -6  -2   15.35    0.37
   1  -6  -2   15.60    0.36
   1  -6  -2   15.19    0.44
   1  -6  -2   15.49    0.35
   1  -6  -2   13.83    0.75
   1  -6  -2   15.16    0.36
   1  -6  -2   14.22    0.75
   1  -6  -2   15.19    0.35
  -1   6   2   15.28    0.35
  -1   6   2   15.41    0.36
  -1   6   2   15.38    0.35
  -1   6   2   14.82    0.36
  -1   6   2   16.12    0.36
  -1   6   2   16.06    0.37
  -1   6   2   14.95    0.36
   0  -6  -2    8.45    0.56
   0  -6  -2    9.03    0.31
   0  -6  -2    9.42    0.24
   0  -6  -2    9.70    0.25
   0  -6  -2    9.93    0.25
   0  -6  -2    9.73    0.25
   0  -6  -2    8.24    0.54
   0  -6  -2    9.72    0.25
   0  -6  -2    9.66    0.24
   0  -6  -2    9.63    0.24
   0   6   2    9.69    0.24
   0   6   2    9.68    0.25
   0   6   2    9.41    0.25
   0   6   2   10.08    0.25
   0   6   2    9.61    0.25
   0   6   2    9.89    0.24
   0   6   2    9.45    0.25
  -1  -6  -2    0.33    0.05
  -1  -6  -2    0.36    0.04
  -1  -6  -2    0.46    0.05
  -1  -6  -2    0.44    0.05
  -1  -6  -2    0.41    0.08
  -1  -6  -2    0.49    0.17
  -1  -6  -2    0.45    0.17
  -1  -6  -2    0.45    0.05
  -1  -6  -2    0.35    0.05
  -1  -6  -2    0.42    0.05
   1   6   2    0.33    0.05
   1   6   2    0.36    0.05
   1   6   2    0.45    0.05
   1   6   2    0.40    0.05
   1   6   2    0.37    0.04
   1   6   2    0.30    0.05
   1   6   2    0.43    0.05
   1   6   2    0.49    0.06
  -2  -6  -2    5.81    0.18
  -2  -6  -2    5.73    0.17
  -2  -6  -2    4.85    0.43
  -2  -6  -2    5.27    0.23
  -2  -6  -2    5.90    0.17
  -2  -6  -2    5.63    0.17
  -2  -6  -2    6.07    0.18
  -2  -6  -2    5.88    0.17
   2   6   2    6.07    0.17
   2   6   2    5.87    0.17
   2   6   2    6.01    0.17
   2   6   2    5.72    0.17
   2   6   2    5.41    0.17
   2   6   2    5.85    0.18
   2   6   2    5.72    0.17
   2   6   2    6.08    0.18
  -3  -6  -2    0.06    0.03
  -3  -6  -2    0.04    0.03
  -3  -6  -2    0.01    0.03
  -3  -6  -2    0.01    0.03
  -3  -6  -2    0.05    0.03
  -3  -6  -2    0.04    0.04
  -3  -6  -2    0.05    0.03
  -3  -6  -2    0.05    0.03
  -3  -6  -2    0.01    0.08
  -3  -6  -2    0.06    0.03
   3   6   2    0.05    0.03
   3   6   2    0.08    0.04
   3   6   2    0.02    0.03
   3   6   2    0.05    0.04
   3   6   2    0.11    0.04
   3   6   2    0.10    0.04
   3   6   2    0.07    0.04
   3   6   2    0.01    0.02
  -4  -6  -2   20.42    0.46
  -4  -6  -2   19.18    0.45
  -4  -6  -2   18.60    1.05
  -4  -6  -2   20.21    0.45
  -4  -6  -2   19.77    0.45
  -4  -6  -2   19.64    0.45
  -4  -6  -2   20.66    0.47
  -4  -6  -2   19.65    0.45
   4   6   2   20.66    0.46
   4   6   2   19.65    0.46
   4   6   2   19.81    0.45
   4   6   2   20.53    0.45
   4   6   2   19.74    0.45
   4   6   2   19.81    0.46
   4   6   2   19.04    0.45
  -5  -6  -2    1.70    0.10
  -5  -6  -2    1.83    0.11
  -5  -6  -2    1.87    0.11
  -5  -6  -2    1.95    0.11
  -5  -6  -2    1.73    0.10
  -5  -6  -2    2.01    0.11
  -5  -6  -2    1.78    0.11
  -5  -6  -2    1.93    0.11
   5   6   2    2.04    0.11
   5   6   2    1.92    0.11
   5   6   2    1.93    0.11
   5   6   2    1.90    0.11
   5   6   2    2.11    0.11
   5   6   2    1.94    0.11
   5   6   2    1.97    0.10
   5   6   2    2.02    0.11
  -6  -6  -2   17.22    0.42
  -6  -6  -2   17.30    0.43
  -6  -6  -2   17.94    0.42
  -6  -6  -2   17.60    0.42
  -6  -6  -2   17.09    0.43
  -6  -6  -2   17.49    0.43
  -6  -6  -2   17.14    0.43
   6   6   2   17.82    0.43
   6   6   2   17.59    0.44
   6   6   2   17.38    0.43
   6   6   2   18.00    0.43
   6   6   2   17.16    0.43
   6   6   2   17.21    0.42
   6   6   2   17.20    0.42
  -7  -6  -2    0.44    0.07
  -7  -6  -2    0.38    0.07
  -7  -6  -2    0.47    0.07
  -7  -6  -2    0.49    0.08
  -7  -6  -2    0.58    0.08
  -7  -6  -2    0.49    0.08
  -7  -6  -2    0.49    0.07
   7   6   2    0.51    0.07
   7   6   2    0.61    0.08
   7   6   2    0.57    0.08
   7   6   2    0.33    0.07
   7   6   2    0.46    0.08
   7   6   2    0.40    0.07
   7   6   2    0.50    0.07
  -8  -6  -2    0.75    0.09
  -8  -6  -2    0.69    0.09
  -8  -6  -2    0.60    0.09
  -8  -6  -2    0.50    0.08
  -8  -6  -2    0.67    0.09
   8   6   2    0.65    0.09
   8   6   2    0.51    0.08
   8   6   2    0.58    0.08
   8   6   2    0.47    0.08
   8   6   2    0.76    0.10
  -9  -6  -2   -0.07    0.05
  -9  -6  -2   -0.05    0.05
  -9  -6  -2    0.06    0.06
  -9  -6  -2    0.00    0.06
  -9  -6  -2   -0.02    0.05
   9   6   2   -0.03    0.05
   9   6   2   -0.02    0.06
   9   6   2   -0.04    0.06
   9   6   2    0.07    0.06
   9   6   2    0.04    0.05
   6  -7  -2    1.20    0.12
   6  -7  -2    1.15    0.11
   6  -7  -2    1.59    0.13
   6  -7  -2    1.45    0.12
   6  -7  -2    1.30    0.11
   6  -7  -2    1.35    0.14
   6  -7  -2    1.58    0.14
  -6   7   2    1.59    0.14
  -6   7   2    1.22    0.12
   5  -7  -2    0.40    0.08
   5  -7  -2    0.38    0.07
   5  -7  -2    0.36    0.07
   5  -7  -2    0.20    0.07
   5  -7  -2    0.33    0.07
   5  -7  -2    0.37    0.06
   5  -7  -2    0.35    0.07
  -5   7   2    0.33    0.07
  -5   7   2    0.18    0.06
   4  -7  -2    0.07    0.05
   4  -7  -2    0.07    0.05
   4  -7  -2    0.06    0.04
   4  -7  -2    0.21    0.06
   4  -7  -2    0.02    0.04
  -4   7   2    0.11    0.05
  -4   7   2    0.02    0.05
  -4   7   2    0.07    0.04
   3  -7  -2    0.03    0.04
   3  -7  -2   -0.01    0.04
   3  -7  -2    0.02    0.04
   3  -7  -2    0.04    0.04
   3  -7  -2    0.07    0.04
  -3   7   2    0.06    0.04
  -3   7   2    0.07    0.04
  -3   7   2   -0.01    0.04
   2  -7  -2    1.38    0.09
   2  -7  -2    1.37    0.10
   2  -7  -2    1.33    0.10
   2  -7  -2    1.19    0.28
   2  -7  -2    1.38    0.09
   2  -7  -2    1.39    0.09
  -2   7   2    1.26    0.10
  -2   7   2    1.44    0.09
  -2   7   2    1.39    0.09
  -2   7   2    1.42    0.10
   1  -7  -2    5.52    0.18
   1  -7  -2    5.12    0.17
   1  -7  -2    5.11    0.24
   1  -7  -2    4.13    0.44
   1  -7  -2    5.22    0.17
   1  -7  -2    4.83    0.17
   1  -7  -2    5.11    0.17
  -1   7   2    5.24    0.17
  -1   7   2    5.18    0.18
  -1   7   2    4.73    0.17
  -1   7   2    5.35    0.17
   0  -7  -2    0.21    0.07
   0  -7  -2    0.16    0.04
   0  -7  -2    0.16    0.12
   0  -7  -2    0.17    0.04
   0  -7  -2    0.19    0.04
   0  -7  -2    0.15    0.04
   0  -7  -2    0.28    0.05
   0   7   2    0.33    0.05
   0   7   2    0.22    0.04
   0   7   2    0.12    0.04
   0   7   2    0.27    0.05
   0   7   2    0.18    0.05
   0   7   2    0.28    0.05
  -1  -7  -2    5.65    0.21
  -1  -7  -2    5.06    0.16
  -1  -7  -2    5.32    0.24
  -1  -7  -2    5.04    0.17
  -1  -7  -2    4.91    0.17
  -1  -7  -2    5.19    0.16
  -1  -7  -2    5.22    0.17
   1   7   2    5.19    0.17
   1   7   2    5.27    0.17
   1   7   2    5.01    0.17
   1   7   2    5.49    0.17
   1   7   2    4.99    0.17
   1   7   2    5.32    0.18
   1   7   2    5.37    0.17
  -2  -7  -2   10.61    0.28
  -2  -7  -2   11.19    0.27
  -2  -7  -2   10.87    0.37
  -2  -7  -2   11.20    0.29
  -2  -7  -2   10.76    0.36
  -2  -7  -2   11.25    0.28
  -2  -7  -2   10.85    0.67
  -2  -7  -2   11.01    0.28
  -2  -7  -2   11.19    0.31
   2   7   2   11.15    0.28
   2   7   2   10.90    0.28
   2   7   2   10.81    0.29
   2   7   2   10.78    0.29
   2   7   2   11.81    0.28
   2   7   2   11.00    0.29
   2   7   2   10.52    0.29
  -3  -7  -2    0.06    0.04
  -3  -7  -2    0.07    0.03
  -3  -7  -2    0.08    0.03
  -3  -7  -2    0.08    0.04
  -3  -7  -2    0.24    0.15
  -3  -7  -2    0.10    0.04
  -3  -7  -2    0.06    0.05
  -3  -7  -2    0.08    0.04
   3   7   2    0.07    0.04
   3   7   2    0.07    0.04
   3   7   2    0.09    0.04
   3   7   2    0.09    0.04
   3   7   2    0.12    0.04
   3   7   2    0.07    0.04
   3   7   2    0.09    0.03
  -4  -7  -2    6.39    0.21
  -4  -7  -2    6.86    0.21
  -4  -7  -2    6.64    0.21
  -4  -7  -2    6.51    0.20
  -4  -7  -2    6.80    0.21
  -4  -7  -2    6.35    0.20
   4   7   2    6.56    0.21
   4   7   2    6.65    0.20
   4   7   2    6.71    0.21
   4   7   2    6.73    0.22
   4   7   2    6.93    0.20
  -5  -7  -2   11.02    0.30
  -5  -7  -2   11.26    0.30
  -5  -7  -2   10.65    0.30
  -5  -7  -2   11.43    0.30
  -5  -7  -2   11.58    0.31
  -5  -7  -2   11.40    0.31
  -5  -7  -2   11.27    0.30
   5   7   2   11.40    0.30
   5   7   2   11.35    0.30
   5   7   2   10.72    0.31
   5   7   2   11.35    0.36
   5   7   2   11.16    0.31
   5   7   2   10.91    0.31
   5   7   2   10.84    0.30
  -6  -7  -2    2.60    0.13
  -6  -7  -2    2.34    0.13
  -6  -7  -2    2.28    0.13
  -6  -7  -2    2.39    0.13
  -6  -7  -2    2.81    0.14
  -6  -7  -2    2.51    0.14
  -6  -7  -2    2.68    0.13
   6   7   2    2.57    0.14
   6   7   2    2.70    0.14
   6   7   2    2.45    0.13
   6   7   2    2.55    0.14
   6   7   2    2.56    0.13
  -7  -7  -2    1.32    0.12
  -7  -7  -2    1.15    0.10
  -7  -7  -2    1.17    0.12
  -7  -7  -2    1.40    0.11
  -7  -7  -2    1.05    0.10
  -7  -7  -2    1.12    0.10
  -7  -7  -2    1.26    0.11
   7   7   2    1.40    0.12
   7   7   2    1.08    0.10
   7   7   2    1.37    0.11
   7   7   2    1.21    0.11
   7   7   2    1.13    0.11
  -8  -7  -2    0.53    0.09
  -8  -7  -2    0.29    0.08
  -8  -7  -2    0.34    0.08
  -8  -7  -2    0.30    0.07
  -8  -7  -2    0.43    0.08
   8   7   2    0.43    0.08
   8   7   2    0.54    0.09
   8   7   2    0.45    0.09
   8   7   2    0.40    0.07
   8   7   2    0.35    0.08
  -9  -7  -2    2.09    0.15
  -9  -7  -2    1.70    0.15
  -9  -7  -2    2.01    0.15
  -9  -7  -2    2.07    0.16
  -9  -7  -2    1.77    0.15
   9   7   2    2.07    0.15
   9   7   2    1.91    0.15
   9   7   2    1.98    0.15
   9   7   2    1.95    0.15
   9   7   2    1.81    0.15
   5  -8  -2    2.27    0.15
   5  -8  -2    2.04    0.14
   5  -8  -2    2.26    0.14
   5  -8  -2    2.22    0.14
  -5   8   2    2.13    0.15
  -5   8   2    2.20    0.15
   4  -8  -2    0.78    0.09
   4  -8  -2    0.56    0.08
   4  -8  -2    0.83    0.10
   4  -8  -2    0.73    0.10
   4  -8  -2    0.81    0.09
  -4   8   2    0.74    0.09
  -4   8   2    0.76    0.10
   3  -8  -2    9.42    0.29
   3  -8  -2    9.89    0.28
   3  -8  -2    9.11    0.27
   3  -8  -2    9.79    0.30
   3  -8  -2    9.10    0.27
  -3   8   2    8.91    0.28
  -3   8   2    9.30    0.29
   2  -8  -2    2.32    0.13
   2  -8  -2    2.09    0.12
   2  -8  -2    2.27    0.12
   2  -8  -2    2.44    0.13
   2  -8  -2    2.28    0.12
  -2   8   2    2.41    0.12
  -2   8   2    2.42    0.13
  -2   8   2    2.12    0.13
   1  -8  -2    0.51    0.07
   1  -8  -2    0.62    0.07
   1  -8  -2    0.52    0.07
   1  -8  -2    0.43    0.07
   1  -8  -2    0.58    0.07
  -1   8   2    0.56    0.07
  -1   8   2    0.58    0.07
  -1   8   2    0.69    0.08
   0  -8  -2    8.96    0.26
   0  -8  -2    8.69    0.25
   0  -8  -2    9.31    0.67
   0  -8  -2    9.09    0.25
   0  -8  -2    8.99    0.25
   0   8   2    8.83    0.26
   0   8   2    9.05    0.25
   0   8   2    8.70    0.26
  -1  -8  -2    0.00    0.03
  -1  -8  -2   -0.01    0.03
  -1  -8  -2    0.12    0.13
  -1  -8  -2    0.02    0.03
  -1  -8  -2    0.01    0.03
  -1  -8  -2    0.03    0.04
  -1  -8  -2    0.06    0.06
   1   8   2    0.06    0.04
   1   8   2    0.00    0.04
   1   8   2    0.14    0.05
   1   8   2    0.01    0.04
   1   8   2    0.02    0.04
  -2  -8  -2    0.11    0.04
  -2  -8  -2    0.12    0.04
  -2  -8  -2    0.03    0.04
  -2  -8  -2    0.17    0.04
  -2  -8  -2    0.10    0.07
  -2  -8  -2    0.11    0.04
  -2  -8  -2    0.08    0.04
  -2  -8  -2    0.11    0.14
   2   8   2    0.09    0.04
   2   8   2    0.16    0.05
   2   8   2    0.16    0.04
   2   8   2    0.13    0.05
   2   8   2    0.10    0.04
  -3  -8  -2    2.56    0.12
  -3  -8  -2    2.60    0.13
  -3  -8  -2    2.33    0.12
  -3  -8  -2    2.47    0.12
  -3  -8  -2    2.64    0.12
  -3  -8  -2    2.57    0.12
   3   8   2    2.44    0.12
   3   8   2    2.49    0.13
   3   8   2    2.52    0.12
   3   8   2    2.49    0.13
   3   8   2    2.44    0.13
  -4  -8  -2    0.32    0.06
  -4  -8  -2    0.28    0.06
  -4  -8  -2    0.47    0.07
  -4  -8  -2    0.40    0.06
  -4  -8  -2    0.32    0.06
  -4  -8  -2    0.25    0.06
   4   8   2    0.49    0.07
   4   8   2    0.26    0.05
   4   8   2    0.36    0.06
   4   8   2    0.28    0.06
   4   8   2    0.38    0.07
  -5  -8  -2    0.10    0.05
  -5  -8  -2   -0.01    0.04
  -5  -8  -2    0.02    0.04
  -5  -8  -2    0.02    0.04
  -5  -8  -2   -0.04    0.04
  -5  -8  -2    0.04    0.04
  -5  -8  -2    0.03    0.04
   5   8   2    0.01    0.04
   5   8   2    0.12    0.04
   5   8   2    0.00    0.04
   5   8   2    0.00    0.04
   5   8   2    0.00    0.04
  -6  -8  -2    7.44    0.24
  -6  -8  -2    7.69    0.25
  -6  -8  -2    7.49    0.25
  -6  -8  -2    7.64    0.25
  -6  -8  -2    6.90    0.24
  -6  -8  -2    7.26    0.25
  -6  -8  -2    7.24    0.25
   6   8   2    7.24    0.26
   6   8   2    7.01    0.25
   6   8   2    7.57    0.24
   6   8   2    7.04    0.25
   6   8   2    7.57    0.25
  -7  -8  -2    8.28    0.27
  -7  -8  -2    7.99    0.26
  -7  -8  -2    8.02    0.27
  -7  -8  -2    7.88    0.27
  -7  -8  -2    8.36    0.27
  -7  -8  -2    8.24    0.27
  -7  -8  -2    8.04    0.28
   7   8   2    7.57    0.27
   7   8   2    7.81    0.27
   7   8   2    7.67    0.28
   7   8   2    8.03    0.26
   7   8   2    8.07    0.27
  -8  -8  -2    1.81    0.14
  -8  -8  -2    1.96    0.15
  -8  -8  -2    2.10    0.15
  -8  -8  -2    1.71    0.14
  -8  -8  -2    1.59    0.14
   8   8   2    1.80    0.15
   8   8   2    1.79    0.14
   8   8   2    2.29    0.14
   8   8   2    1.72    0.15
   4  -9  -2    0.05    0.06
   4  -9  -2    0.04    0.05
   4  -9  -2    0.03    0.05
   4  -9  -2    0.01    0.05
  -4   9   2    0.03    0.06
  -4   9   2    0.06    0.06
   3  -9  -2    0.44    0.08
   3  -9  -2    0.26    0.07
   3  -9  -2    0.48    0.08
   3  -9  -2    0.52    0.08
  -3   9   2    0.36    0.08
  -3   9   2    0.38    0.08
   2  -9  -2   14.50    0.38
   2  -9  -2   13.99    0.39
   2  -9  -2   14.21    0.38
   2  -9  -2   14.22    0.38
   2  -9  -2   14.43    0.39
  -2   9   2   14.08    0.39
  -2   9   2   13.96    0.39
   1  -9  -2    7.40    0.24
   1  -9  -2    7.53    0.25
   1  -9  -2    7.60    0.24
   1  -9  -2    7.26    0.25
   1  -9  -2    7.76    0.24
  -1   9   2    7.39    0.25
  -1   9   2    7.44    0.25
   0  -9  -2    3.85    0.16
   0  -9  -2    3.79    0.16
   0  -9  -2    3.71    0.17
   0  -9  -2    4.06    0.16
   0   9   2    3.91    0.17
   0   9   2    3.93    0.17
  -1  -9  -2    1.25    0.08
  -1  -9  -2    1.40    0.10
  -1  -9  -2    1.51    0.10
  -1  -9  -2    1.48    0.10
  -1  -9  -2    1.41    0.10
   1   9   2    1.47    0.10
   1   9   2    1.30    0.11
   1   9   2    1.45    0.11
   1   9   2    1.39    0.10
  -2  -9  -2    2.37    0.13
  -2  -9  -2    2.34    0.11
  -2  -9  -2    2.30    0.12
  -2  -9  -2    2.13    0.12
   2   9   2    2.53    0.12
   2   9   2    2.34    0.13
   2   9   2    2.39    0.14
   2   9   2    2.18    0.13
  -3  -9  -2    0.10    0.04
  -3  -9  -2    0.05    0.04
  -3  -9  -2    0.09    0.05
  -3  -9  -2    0.04    0.05
  -3  -9  -2    0.06    0.04
  -3  -9  -2    0.11    0.05
   3   9   2    0.12    0.04
   3   9   2    0.05    0.05
   3   9   2    0.10    0.05
   3   9   2    0.11    0.05
  -4  -9  -2    0.59    0.08
  -4  -9  -2    0.62    0.08
  -4  -9  -2    0.72    0.08
  -4  -9  -2    0.65    0.08
  -4  -9  -2    0.83    0.08
  -4  -9  -2    0.68    0.08
   4   9   2    0.88    0.08
   4   9   2    0.71    0.09
   4   9   2    0.72    0.09
   4   9   2    0.75    0.09
  -5  -9  -2    1.41    0.11
  -5  -9  -2    1.39    0.11
  -5  -9  -2    1.61    0.11
  -5  -9  -2    1.55    0.12
  -5  -9  -2    1.50    0.11
  -5  -9  -2    1.52    0.11
  -5  -9  -2    1.49    0.12
   5   9   2    1.41    0.13
   5   9   2    1.41    0.12
   5   9   2    1.68    0.13
   5   9   2    1.47    0.11
  -6  -9  -2    7.97    0.26
  -6  -9  -2    8.09    0.28
  -6  -9  -2    8.27    0.27
  -6  -9  -2    8.39    0.27
  -6  -9  -2    7.78    0.27
  -6  -9  -2    8.05    0.27
  -6  -9  -2    8.34    0.27
  -6  -9  -2    8.50    0.28
   6   9   2    8.14    0.28
   6   9   2    7.71    0.27
   6   9   2    8.49    0.28
   6   9   2    8.35    0.28
  -7  -9  -2    0.08    0.06
  -7  -9  -2    0.16    0.07
  -7  -9  -2    0.18    0.07
  -7  -9  -2    0.18    0.07
  -7  -9  -2    0.17    0.07
  -7  -9  -2    0.04    0.06
  -7  -9  -2    0.15    0.06
  -7  -9  -2    0.11    0.06
   7   9   2    0.11    0.06
   7   9   2    0.23    0.07
   7   9   2    0.17    0.07
   3 -10  -2    0.80    0.10
   3 -10  -2    0.79    0.10
   3 -10  -2    0.77    0.10
   3 -10  -2    0.82    0.10
  -3  10   2    0.96    0.12
  -3  10   2    0.93    0.11
   2 -10  -2    1.66    0.12
   2 -10  -2    1.52    0.13
   2 -10  -2    1.37    0.12
   2 -10  -2    1.63    0.12
  -2  10   2    1.49    0.13
  -2  10   2    1.82    0.14
   1 -10  -2    0.67    0.09
   1 -10  -2    0.64    0.08
   1 -10  -2    0.50    0.08
   1 -10  -2    0.48    0.08
  -1  10   2    0.49    0.08
  -1  10   2    0.56    0.09
   0 -10  -2   -0.01    0.04
   0 -10  -2   -0.05    0.04
   0 -10  -2   -0.03    0.04
   0 -10  -2    0.04    0.05
   0  10   2   -0.02    0.05
   0  10   2    0.04    0.05
   0  10   2    0.01    0.05
  -1 -10  -2    0.57    0.08
  -1 -10  -2    0.71    0.09
  -1 -10  -2    0.54    0.08
  -1 -10  -2    0.67    0.08
   1  10   2    0.69    0.09
   1  10   2    0.71    0.09
   1  10   2    0.79    0.09
  -2 -10  -2    0.01    0.04
  -2 -10  -2    0.00    0.04
  -2 -10  -2   -0.07    0.04
  -2 -10  -2   -0.01    0.05
   2  10   2    0.02    0.05
   2  10   2   -0.01    0.05
   2  10   2    0.02    0.04
  -3 -10  -2    0.22    0.06
  -3 -10  -2    0.26    0.06
  -3 -10  -2    0.17    0.06
  -3 -10  -2    0.20    0.06
  -3 -10  -2    0.21    0.06
   3  10   2    0.28    0.07
   3  10   2    0.20    0.06
   3  10   2    0.21    0.06
  -4 -10  -2    1.02    0.11
  -4 -10  -2    0.99    0.10
  -4 -10  -2    0.87    0.09
  -4 -10  -2    0.90    0.10
  -4 -10  -2    0.83    0.10
  -4 -10  -2    0.87    0.10
   4  10   2    0.74    0.09
   4  10   2    0.89    0.11
   4  10   2    0.79    0.10
  -5 -10  -2    0.00    0.05
  -5 -10  -2    0.01    0.05
  -5 -10  -2    0.05    0.05
  -5 -10  -2   -0.07    0.04
  -5 -10  -2   -0.04    0.05
  -5 -10  -2    0.03    0.05
  -5 -10  -2    0.04    0.05
   5  10   2    0.01    0.06
   5  10   2    0.03    0.05
   5  10   2   -0.04    0.05
  -6 -10  -2    1.13    0.12
  -6 -10  -2    1.49    0.14
  -6 -10  -2    1.07    0.11
  -6 -10  -2    1.31    0.12
  -6 -10  -2    1.37    0.13
  -6 -10  -2    1.16    0.11
  -6 -10  -2    1.09    0.11
  -6 -10  -2    1.14    0.11
   6  10   2    1.13    0.13
   6  10   2    1.20    0.12
   6  10   2    1.31    0.13
   1 -11  -2    3.59    0.19
   1 -11  -2    4.11    0.19
   1 -11  -2    4.24    0.19
   1 -11  -2    4.07    0.19
  -1  11   2    3.66    0.19
  -1  11   2    4.23    0.20
   0 -11  -2    0.26    0.07
   0 -11  -2    0.32    0.07
   0 -11  -2    0.21    0.07
   0 -11  -2    0.30    0.07
   0  11   2    0.29    0.08
   0  11   2    0.22    0.07
   0  11   2    0.32    0.08
  -1 -11  -2    2.31    0.15
  -1 -11  -2    2.67    0.15
  -1 -11  -2    2.16    0.14
  -1 -11  -2    2.45    0.15
  -1 -11  -2    2.39    0.14
   1  11   2    2.36    0.15
   1  11   2    2.65    0.16
   1  11   2    2.39    0.15
  -2 -11  -2    2.78    0.15
  -2 -11  -2    2.46    0.15
  -2 -11  -2    2.62    0.15
  -2 -11  -2    2.65    0.15
  -2 -11  -2    2.41    0.16
   2  11   2    2.70    0.16
   2  11   2    2.66    0.16
   2  11   2    2.76    0.16
  -3 -11  -2    0.91    0.10
  -3 -11  -2    0.92    0.10
  -3 -11  -2    0.96    0.11
  -3 -11  -2    0.69    0.09
  -3 -11  -2    0.99    0.10
   3  11   2    0.78    0.10
   3  11   2    0.89    0.11
   3  11   2    1.03    0.12
  -4 -11  -2    0.12    0.06
  -4 -11  -2    0.06    0.05
  -4 -11  -2    0.00    0.05
  -4 -11  -2    0.11    0.06
  -4 -11  -2    0.04    0.06
   4  11   2    0.01    0.06
   4  11   2    0.07    0.06
   4  11   2    0.04    0.06
  -5 -11  -2    0.25    0.07
  -5 -11  -2    0.27    0.07
  -5 -11  -2    0.30    0.07
  -5 -11  -2    0.39    0.08
  -5 -11  -2    0.33    0.08
  -5 -11  -2    0.26    0.07
   5  11   2    0.43    0.09
   5  11   2    0.50    0.09
   5  11   2    0.48    0.09
   3  10  -3    9.11    0.28
  -3 -10   3    8.35    0.47
  -3 -10   3    9.12    0.31
  -3 -10   3    8.38    0.27
  -3 -10   3    9.06    0.23
  -3 -10   3    9.19    0.28
  -3 -10   3    8.69    0.28
  -3 -10   3    8.57    0.48
   2  10  -3   -0.01    0.05
  -2 -10   3    0.02    0.04
  -2 -10   3   -0.02    0.03
  -2 -10   3    0.00    0.06
  -2 -10   3    0.04    0.05
  -2 -10   3    0.10    0.05
   1  10  -3    2.72    0.14
  -1 -10   3    2.75    0.10
  -1 -10   3    2.56    0.13
  -1 -10   3    2.31    0.17
  -1 -10   3    2.57    0.14
  -1 -10   3    2.61    0.14
   0  10  -3    0.93    0.10
   0 -10   3    0.69    0.09
   0 -10   3    0.75    0.11
   0 -10   3    0.82    0.09
   0 -10   3    0.86    0.09
   0 -10   3    0.91    0.06
   5   9  -3    3.01    0.16
   5   9  -3    3.00    0.16
  -5  -9   3    3.04    0.16
  -5  -9   3    2.72    0.13
  -5  -9   3    2.19    0.35
  -5  -9   3    2.67    0.37
  -5  -9   3    2.99    0.16
  -5  -9   3    2.69    0.15
   4   9  -3    0.37    0.07
  -4  -9   3    0.30    0.07
  -4  -9   3    0.41    0.07
  -4  -9   3    0.31    0.07
  -4  -9   3    0.30    0.06
  -4  -9   3    0.32    0.05
  -4  -9   3    0.35    0.17
  -4  -9   3    0.26    0.15
   3   9  -3    0.06    0.05
  -3  -9   3    0.07    0.11
  -3  -9   3    0.06    0.05
  -3  -9   3    0.01    0.10
  -3  -9   3    0.08    0.04
  -3  -9   3    0.17    0.05
  -3  -9   3    0.03    0.04
  -3  -9   3    0.13    0.06
   2   9  -3    1.30    0.10
  -2  -9   3    1.18    0.10
  -2  -9   3    1.20    0.19
  -2  -9   3    1.23    0.10
  -2  -9   3    1.30    0.19
  -2  -9   3    1.17    0.10
  -2  -9   3    1.24    0.07
  -2  -9   3    1.25    0.12
   1   9  -3    3.24    0.14
  -1  -9   3    3.40    0.14
  -1  -9   3    3.30    0.15
  -1  -9   3    3.58    0.18
  -1  -9   3    3.27    0.14
  -1  -9   3    3.64    0.11
   0   9  -3    2.80    0.14
   0  -9   3    2.98    0.14
   0  -9   3    2.97    0.14
   0  -9   3    2.99    0.10
   0  -9   3    3.30    0.18
   0  -9   3    3.05    0.14
  -1   9  -3    0.80    0.08
   1  -9   3    0.90    0.09
   1  -9   3    0.80    0.10
   1  -9   3    0.95    0.09
   1  -9   3    0.78    0.08
   1  -9   3    0.80    0.06
  -2   9  -3   -0.01    0.04
   2  -9   3   -0.08    0.04
   2  -9   3    0.04    0.04
   2  -9   3    0.07    0.06
   2  -9   3   -0.04    0.04
   3  -9   3    0.86    0.09
   3  -9   3    1.09    0.13
   3  -9   3    0.80    0.09
   3  -9   3    0.84    0.09
   6   8  -3    0.24    0.07
   6   8  -3    0.18    0.06
  -6  -8   3    0.11    0.06
  -6  -8   3    0.17    0.06
  -6  -8   3    0.09    0.14
  -6  -8   3    0.14    0.05
  -6  -8   3    0.24    0.05
  -6  -8   3    0.01    0.13
  -6  -8   3    0.16    0.06
  -6  -8   3    0.19    0.06
  -6  -8   3    0.21    0.07
   5   8  -3    4.17    0.18
   5   8  -3    4.08    0.18
  -5  -8   3    3.64    0.41
  -5  -8   3    3.96    0.17
  -5  -8   3    3.73    0.41
  -5  -8   3    3.91    0.16
  -5  -8   3    4.07    0.16
  -5  -8   3    4.25    0.18
  -5  -8   3    4.12    0.15
  -5  -8   3    4.14    0.15
  -5  -8   3    4.34    0.17
   4   8  -3    1.05    0.10
   4   8  -3    1.03    0.10
  -4  -8   3    0.89    0.23
  -4  -8   3    1.26    0.10
  -4  -8   3    1.09    0.09
  -4  -8   3    1.19    0.07
  -4  -8   3    1.16    0.10
  -4  -8   3    1.02    0.24
  -4  -8   3    1.38    0.10
  -4  -8   3    1.12    0.08
   3   8  -3    3.38    0.15
   3   8  -3    3.41    0.14
  -3  -8   3    3.47    0.14
  -3  -8   3    3.35    0.16
  -3  -8   3    3.47    0.14
  -3  -8   3    3.40    0.12
  -3  -8   3    3.44    0.15
  -3  -8   3    3.01    0.30
  -3  -8   3    3.27    0.32
   2   8  -3    0.47    0.06
  -2  -8   3    0.40    0.06
  -2  -8   3    0.62    0.15
  -2  -8   3    0.51    0.05
  -2  -8   3    0.54    0.07
  -2  -8   3    0.51    0.07
  -2  -8   3    0.41    0.07
  -2  -8   3    0.58    0.15
   1   8  -3    2.28    0.11
  -1  -8   3    2.20    0.08
  -1  -8   3    2.10    0.11
  -1  -8   3    2.17    0.11
  -1  -8   3    2.19    0.13
  -1  -8   3    2.14    0.11
   0   8  -3    0.84    0.08
   0  -8   3    0.75    0.07
   0  -8   3    0.80    0.05
   0  -8   3    0.86    0.08
   0  -8   3    0.81    0.08
   0  -8   3    0.82    0.10
  -1   8  -3   -0.01    0.04
   1  -8   3   -0.02    0.03
   1  -8   3    0.00    0.05
   1  -8   3    0.01    0.04
   1  -8   3    0.09    0.04
   2  -8   3    3.02    0.13
   2  -8   3    2.87    0.13
   2  -8   3    2.73    0.13
   2  -8   3    2.76    0.16
   3  -8   3    0.20    0.05
   3  -8   3    0.18    0.05
   3  -8   3    0.14    0.05
   3  -8   3    0.08    0.06
   4  -8   3   -0.05    0.04
   4  -8   3   -0.03    0.04
   4  -8   3    0.03    0.06
   4  -8   3    0.08    0.05
   7   7  -3    4.98    0.24
   7   7  -3    4.60    0.20
   7   7  -3    4.72    0.21
  -7  -7   3    4.77    0.24
  -7  -7   3    4.83    0.24
  -7  -7   3    4.90    0.18
  -7  -7   3    4.60    0.18
  -7  -7   3    4.98    0.20
  -7  -7   3    4.06    0.50
  -7  -7   3    5.09    0.21
  -7  -7   3    4.32    0.19
  -7  -7   3    4.47    0.14
  -7  -7   3    4.82    0.18
  -7  -7   3    4.59    0.20
  -7  -7   3    4.54    0.14
   6   7  -3    5.49    0.21
   6   7  -3    5.40    0.21
  -6  -7   3    5.38    0.51
  -6  -7   3    4.89    0.18
  -6  -7   3    5.16    0.50
  -6  -7   3    5.16    0.18
  -6  -7   3    5.56    0.20
  -6  -7   3    5.26    0.20
  -6  -7   3    5.35    0.18
  -6  -7   3    5.18    0.20
  -6  -7   3    5.45    0.23
  -6  -7   3    5.08    0.19
  -6  -7   3    5.38    0.23
   5   7  -3    2.32    0.13
   5   7  -3    2.33    0.13
  -5  -7   3    2.32    0.33
  -5  -7   3    2.35    0.12
  -5  -7   3    2.39    0.13
  -5  -7   3    2.34    0.11
  -5  -7   3    2.07    0.13
  -5  -7   3    2.23    0.11
  -5  -7   3    2.25    0.13
  -5  -7   3    2.41    0.11
  -5  -7   3    2.56    0.13
  -5  -7   3    2.14    0.32
   4   7  -3   31.43    0.69
   4   7  -3   32.01    0.69
  -4  -7   3   31.75    0.66
  -4  -7   3   32.48    0.65
  -4  -7   3   31.88    0.69
  -4  -7   3   29.74    1.09
  -4  -7   3   30.14    1.10
  -4  -7   3   32.19    0.66
  -4  -7   3   31.98    0.67
  -4  -7   3   32.21    0.69
  -4  -7   3   30.95    0.68
  -4  -7   3   31.67    0.68
  -4  -7   3   30.84    0.66
   3   7  -3    6.82    0.21
   3   7  -3    6.98    0.21
  -3  -7   3    6.91    0.18
  -3  -7   3    7.14    0.21
  -3  -7   3    7.06    0.22
  -3  -7   3    6.34    0.42
  -3  -7   3    6.93    0.20
  -3  -7   3    6.78    0.20
  -3  -7   3    7.12    0.18
  -3  -7   3    6.47    0.42
   2   7  -3    7.35    0.21
   2   7  -3    7.42    0.21
  -2  -7   3    7.43    0.23
  -2  -7   3    7.36    0.21
  -2  -7   3    6.40    0.37
  -2  -7   3    6.30    0.36
  -2  -7   3    7.59    0.21
  -2  -7   3    7.79    0.18
  -2  -7   3    7.29    0.21
  -2  -7   3    7.51    0.18
   1   7  -3    9.11    0.24
   1   7  -3    8.75    0.24
  -1  -7   3    8.91    0.24
  -1  -7   3    8.74    0.27
  -1  -7   3    9.00    0.21
  -1  -7   3    9.22    0.24
  -1  -7   3    8.91    0.24
   0   7  -3    1.16    0.08
   0   7  -3    1.31    0.14
   0  -7   3    1.29    0.08
   0  -7   3    1.24    0.06
   0  -7   3    1.32    0.08
   0  -7   3    1.44    0.11
   0  -7   3    1.16    0.08
  -1   7  -3    4.30    0.15
   1  -7   3    4.33    0.15
   1  -7   3    4.46    0.15
   1  -7   3    4.41    0.18
   1  -7   3    4.29    0.15
   2  -7   3    1.36    0.09
   2  -7   3    1.44    0.09
   2  -7   3    1.51    0.12
   2  -7   3    1.60    0.09
   3  -7   3    8.08    0.23
   3  -7   3    8.01    0.23
   3  -7   3    8.01    0.23
   3  -7   3    8.29    0.27
   4  -7   3    0.51    0.07
   4  -7   3    0.40    0.08
   4  -7   3    0.38    0.06
   4  -7   3    0.48    0.07
   5  -7   3    0.07    0.04
   5  -7   3    0.00    0.05
   5  -7   3   -0.02    0.08
   5  -7   3   -0.04    0.04
   5  -7   3   -0.06    0.04
   5  -7   3    0.01    0.09
   8   6  -3    0.67    0.10
   8   6  -3    0.65    0.10
   8   6  -3    0.64    0.10
  -8  -6   3    0.69    0.09
  -8  -6   3    0.74    0.09
  -8  -6   3    0.68    0.09
  -8  -6   3    0.80    0.08
  -8  -6   3    0.70    0.09
  -8  -6   3    0.55    0.09
  -8  -6   3    0.72    0.10
  -8  -6   3    0.65    0.12
  -8  -6   3    0.81    0.10
   7   6  -3    0.26    0.07
   7   6  -3    0.23    0.07
   7   6  -3    0.25    0.07
  -7  -6   3    0.26    0.05
  -7  -6   3    0.22    0.06
  -7  -6   3    0.29    0.06
  -7  -6   3    0.28    0.08
  -7  -6   3    0.31    0.07
  -7  -6   3    0.16    0.06
  -7  -6   3    0.22    0.18
  -7  -6   3    0.26    0.08
  -7  -6   3    0.28    0.06
  -7  -6   3    0.23    0.06
  -7  -6   3    0.23    0.07
   6   6  -3    0.59    0.08
   6   6  -3    0.62    0.08
   6   6  -3    0.71    0.09
  -6  -6   3    0.62    0.05
  -6  -6   3    0.51    0.07
  -6  -6   3    0.61    0.05
  -6  -6   3    0.68    0.08
  -6  -6   3    0.48    0.21
  -6  -6   3    0.62    0.08
  -6  -6   3    0.60    0.10
  -6  -6   3    0.65    0.07
  -6  -6   3    0.56    0.22
  -6  -6   3    0.58    0.08
  -6  -6   3    0.51    0.06
  -6  -6   3    0.58    0.09
  -6  -6   3    0.52    0.06
   5   6  -3   11.89    0.32
   5   6  -3   11.75    0.32
   5   6  -3   11.71    0.32
  -5  -6   3   11.50    0.31
  -5  -6   3   12.85    0.70
  -5  -6   3   12.95    0.71
  -5  -6   3   12.04    0.35
  -5  -6   3   11.53    0.31
  -5  -6   3   12.72    0.25
  -5  -6   3   11.78    0.30
  -5  -6   3   11.67    0.32
  -5  -6   3   12.15    0.30
  -5  -6   3   11.87    0.31
  -5  -6   3   11.79    0.25
  -5  -6   3   11.68    0.30
  -5  -6   3   12.01    0.30
  -5  -6   3   12.61    0.36
   4   6  -3   10.21    0.27
   4   6  -3   10.36    0.27
   4   6  -3   10.08    0.27
  -4  -6   3    9.72    0.27
  -4  -6   3    9.99    0.27
  -4  -6   3   10.58    0.25
  -4  -6   3   10.58    0.26
  -4  -6   3   10.00    0.25
  -4  -6   3    8.72    0.54
  -4  -6   3    8.86    0.55
  -4  -6   3   10.27    0.27
  -4  -6   3    9.37    0.27
  -4  -6   3   10.35    0.27
  -4  -6   3   10.31    0.25
  -4  -6   3   10.22    0.27
   3   6  -3    0.20    0.04
   3   6  -3    0.17    0.04
  -3  -6   3    0.18    0.03
  -3  -6   3    0.16    0.05
  -3  -6   3    0.14    0.04
  -3  -6   3    0.22    0.04
  -3  -6   3    0.17    0.03
  -3  -6   3    0.12    0.04
  -3  -6   3    0.14    0.04
  -3  -6   3    0.21    0.04
  -3  -6   3    0.18    0.03
   2   6  -3    0.00    0.03
   2   6  -3    0.03    0.03
  -2  -6   3   -0.05    0.06
  -2  -6   3    0.00    0.03
  -2  -6   3    0.00    0.06
  -2  -6   3    0.02    0.02
  -2  -6   3   -0.02    0.02
  -2  -6   3    0.02    0.03
  -2  -6   3   -0.01    0.02
  -2  -6   3    0.01    0.02
  -2  -6   3   -0.02    0.03
  -2  -6   3    0.01    0.02
   1   6  -3    1.36    0.08
   1   6  -3    1.17    0.07
  -1  -6   3    1.32    0.06
  -1  -6   3    1.39    0.08
  -1  -6   3    1.34    0.07
  -1  -6   3    1.48    0.10
  -1  -6   3    1.33    0.07
   0   6  -3   11.33    0.27
   0   6  -3   10.82    0.26
   0  -6   3   10.99    0.26
   0  -6   3   11.01    0.26
   0  -6   3   11.03    0.27
   0  -6   3   10.94    0.30
   0  -6   3   11.19    0.24
  -1   6  -3    0.65    0.06
   1  -6   3    0.56    0.05
   1  -6   3    0.45    0.07
   1  -6   3    0.53    0.05
   1  -6   3    0.57    0.05
  -2   6  -3   16.09    0.36
   2  -6   3   15.58    0.36
   2  -6   3   15.13    0.36
   2  -6   3   16.08    0.36
   2  -6   3   15.31    0.40
  -3   6  -3    0.96    0.09
   3  -6   3    0.97    0.07
   3  -6   3    0.72    0.13
   3  -6   3    0.95    0.07
   3  -6   3    0.87    0.07
   3  -6   3    0.74    0.08
   4  -6   3    3.79    0.28
   4  -6   3    4.14    0.15
   4  -6   3    3.90    0.15
   4  -6   3    4.11    0.30
   4  -6   3    4.00    0.15
   4  -6   3    4.20    0.18
   5  -6   3    2.15    0.13
   5  -6   3    2.25    0.26
   5  -6   3    2.34    0.13
   5  -6   3    2.39    0.12
   5  -6   3    2.22    0.12
   5  -6   3    2.40    0.27
   6  -6   3    0.39    0.07
   6  -6   3    0.53    0.08
   6  -6   3    0.42    0.07
   6  -6   3    0.49    0.08
   6  -6   3    0.36    0.16
   6  -6   3    0.37    0.16
   8   5  -3    0.22    0.07
   8   5  -3    0.24    0.07
   8   5  -3    0.21    0.07
  -8  -5   3    0.39    0.08
  -8  -5   3    0.13    0.06
  -8  -5   3    0.29    0.07
  -8  -5   3    0.27    0.07
  -8  -5   3    0.23    0.10
  -8  -5   3    0.24    0.05
  -8  -5   3    0.25    0.07
  -8  -5   3    0.17    0.06
  -8  -5   3    0.24    0.06
   7   5  -3    5.43    0.21
   7   5  -3    5.54    0.21
   7   5  -3    5.77    0.21
  -7  -5   3    5.66    0.20
  -7  -5   3    5.49    0.21
  -7  -5   3    5.47    0.20
  -7  -5   3    5.56    0.20
  -7  -5   3    5.36    0.26
  -7  -5   3    5.44    0.17
  -7  -5   3    5.87    0.21
  -7  -5   3    5.56    0.19
  -7  -5   3    5.81    0.27
  -7  -5   3    5.62    0.21
  -7  -5   3    5.10    0.54
   6   5  -3    0.89    0.09
   6   5  -3    0.82    0.09
   6   5  -3    0.94    0.09
  -6  -5   3    0.78    0.06
  -6  -5   3    0.82    0.06
  -6  -5   3    0.66    0.10
  -6  -5   3    0.71    0.07
  -6  -5   3    0.82    0.08
  -6  -5   3    0.69    0.24
  -6  -5   3    0.86    0.09
  -6  -5   3    0.86    0.08
  -6  -5   3    0.68    0.22
  -6  -5   3    0.87    0.09
  -6  -5   3    0.82    0.09
  -6  -5   3    0.66    0.08
  -6  -5   3    0.92    0.12
   5   5  -3    1.30    0.09
   5   5  -3    1.11    0.09
   5   5  -3    1.14    0.09
  -5  -5   3    1.00    0.06
  -5  -5   3    1.26    0.08
  -5  -5   3    1.06    0.08
  -5  -5   3    1.23    0.08
  -5  -5   3    0.92    0.10
  -5  -5   3    1.16    0.11
  -5  -5   3    1.15    0.08
  -5  -5   3    1.09    0.07
  -5  -5   3    1.11    0.09
  -5  -5   3    0.95    0.09
  -5  -5   3    1.18    0.08
  -5  -5   3    1.02    0.06
  -5  -5   3    1.22    0.09
   4   5  -3    0.74    0.07
   4   5  -3    0.75    0.07
   4   5  -3    0.63    0.07
  -4  -5   3    0.65    0.06
  -4  -5   3    0.58    0.06
  -4  -5   3    0.73    0.06
  -4  -5   3    0.71    0.07
  -4  -5   3    0.61    0.08
  -4  -5   3    0.74    0.19
  -4  -5   3    0.71    0.19
  -4  -5   3    0.67    0.06
  -4  -5   3    0.63    0.06
  -4  -5   3    0.73    0.06
  -4  -5   3    0.68    0.07
  -4  -5   3    0.74    0.08
  -4  -5   3    0.73    0.07
   3   5  -3    3.62    0.13
   3   5  -3    3.74    0.13
   3   5  -3    3.40    0.12
  -3  -5   3    3.51    0.12
  -3  -5   3    3.51    0.12
  -3  -5   3    3.29    0.14
  -3  -5   3    3.27    0.11
  -3  -5   3    3.66    0.11
  -3  -5   3    3.57    0.11
  -3  -5   3    2.73    0.27
  -3  -5   3    3.53    0.11
  -3  -5   3    3.57    0.12
  -3  -5   3    3.60    0.13
  -3  -5   3    3.73    0.11
   2   5  -3    5.21    0.20
   2   5  -3    5.24    0.16
   2   5  -3    5.54    0.16
   2   5  -3    5.55    0.16
  -2  -5   3    5.22    0.15
  -2  -5   3    5.48    0.13
  -2  -5   3    5.59    0.30
  -2  -5   3    5.52    0.16
  -2  -5   3    5.47    0.17
  -2  -5   3    5.58    0.18
  -2  -5   3    5.52    0.13
  -2  -5   3    5.45    0.14
  -2  -5   3    5.33    0.14
  -2  -5   3    5.66    0.30
  -2  -5   3    5.32    0.15
   1   5  -3    7.45    0.19
   1   5  -3    7.35    0.18
   1   5  -3    6.99    0.18
   1   5  -3    7.01    0.19
  -1  -5   3    7.07    0.16
  -1  -5   3    7.31    0.15
  -1  -5   3    6.91    0.21
  -1  -5   3    7.08    0.18
  -1  -5   3    7.27    0.16
  -1  -5   3    7.29    0.23
  -1  -5   3    7.27    0.18
  -1  -5   3    7.30    0.18
   0   5  -3   -0.01    0.02
   0   5  -3    0.01    0.03
   0   5  -3    0.02    0.02
   0   5  -3    0.02    0.02
   0  -5   3    0.00    0.02
   0  -5   3    0.00    0.01
   0  -5   3   -0.01    0.02
   0  -5   3    0.00    0.01
   0  -5   3    0.02    0.03
   0  -5   3   -0.01    0.02
  -1   5  -3    5.68    0.16
  -1   5  -3    5.68    0.16
   1  -5   3    5.68    0.15
   1  -5   3    5.72    0.19
   1  -5   3    5.78    0.16
   1  -5   3    5.82    0.13
   1  -5   3    5.80    0.15
  -2   5  -3    0.03    0.03
   2  -5   3   -0.01    0.02
   2  -5   3   -0.01    0.03
   2  -5   3   -0.02    0.02
   2  -5   3   -0.03    0.02
   2  -5   3    0.00    0.02
  -3   5  -3   10.98    0.27
   3  -5   3   11.17    0.27
   3  -5   3   11.01    0.41
   3  -5   3   11.04    0.30
   3  -5   3   10.94    0.27
   3  -5   3   10.39    0.40
   3  -5   3   10.77    0.27
  -4   5  -3    0.72    0.07
   4  -5   3    0.75    0.07
   4  -5   3    0.43    0.13
   4  -5   3    0.75    0.07
   4  -5   3    0.58    0.15
   4  -5   3    0.71    0.05
   4  -5   3    0.73    0.07
   4  -5   3    0.72    0.08
  -5   5  -3    4.15    0.16
  -5   5  -3    4.19    0.17
   5  -5   3    4.13    0.34
   5  -5   3    3.77    0.15
   5  -5   3    3.98    0.16
   5  -5   3    4.05    0.15
   5  -5   3    4.09    0.17
   5  -5   3    4.09    0.34
   5  -5   3    4.19    0.16
  -6   5  -3    0.13    0.05
  -6   5  -3    0.21    0.06
   6  -5   3    0.14    0.05
   6  -5   3    0.15    0.05
   6  -5   3    0.11    0.12
   6  -5   3    0.04    0.11
   6  -5   3    0.14    0.05
   6  -5   3    0.30    0.06
  -7   5  -3    0.17    0.06
  -7   5  -3    0.08    0.06
   7  -5   3    0.12    0.13
   7  -5   3    0.10    0.14
   7  -5   3    0.11    0.05
   7  -5   3    0.07    0.05
   7  -5   3    0.10    0.06
   9   4  -3    0.22    0.07
   9   4  -3    0.16    0.07
   9   4  -3    0.21    0.07
  -9  -4   3    0.22    0.07
  -9  -4   3    0.20    0.07
  -9  -4   3    0.16    0.07
  -9  -4   3    0.30    0.08
  -9  -4   3    0.25    0.06
  -9  -4   3    0.26    0.08
  -9  -4   3    0.23    0.07
  -9  -4   3    0.19    0.07
   8   4  -3    0.72    0.10
   8   4  -3    0.79    0.10
   8   4  -3    0.82    0.10
  -8  -4   3    0.78    0.10
  -8  -4   3    0.74    0.10
  -8  -4   3    0.78    0.09
  -8  -4   3    0.83    0.09
  -8  -4   3    0.65    0.09
  -8  -4   3    0.76    0.09
  -8  -4   3    0.78    0.09
  -8  -4   3    0.80    0.09
   7   4  -3    0.37    0.07
   7   4  -3    0.20    0.06
   7   4  -3    0.31    0.06
  -7  -4   3    0.34    0.07
  -7  -4   3    0.33    0.06
  -7  -4   3    0.38    0.07
  -7  -4   3    0.54    0.10
  -7  -4   3    0.49    0.07
  -7  -4   3    0.42    0.10
  -7  -4   3    0.31    0.05
  -7  -4   3    0.29    0.06
  -7  -4   3    0.67    0.10
  -7  -4   3    0.30    0.06
  -7  -4   3    0.38    0.06
   6   4  -3   10.33    0.29
   6   4  -3   10.50    0.29
   6   4  -3   10.51    0.30
  -6  -4   3   10.43    0.31
  -6  -4   3   10.82    0.35
  -6  -4   3   10.34    0.28
  -6  -4   3   10.42    0.28
  -6  -4   3   10.13    0.26
  -6  -4   3   10.43    0.29
  -6  -4   3   10.50    0.29
  -6  -4   3   10.56    0.67
  -6  -4   3   10.30    0.27
  -6  -4   3   10.00    0.29
  -6  -4   3    9.30    0.94
  -6  -4   3   10.77    0.26
  -6  -4   3   10.99    0.35
  -6  -4   3   10.67    0.29
   5   4  -3    1.45    0.09
   5   4  -3    1.57    0.10
   5   4  -3    1.44    0.09
  -5  -4   3    1.57    0.07
  -5  -4   3    1.49    0.09
  -5  -4   3    1.36    0.12
  -5  -4   3    0.95    0.23
  -5  -4   3    1.56    0.09
  -5  -4   3    1.34    0.11
  -5  -4   3    1.21    0.10
  -5  -4   3    1.48    0.08
  -5  -4   3    1.47    0.09
  -5  -4   3    1.28    0.07
  -5  -4   3    1.45    0.09
  -5  -4   3    1.49    0.09
  -5  -4   3    1.44    0.07
  -5  -4   3    1.40    0.09
   4   4  -3    0.69    0.06
   4   4  -3    0.56    0.06
   4   4  -3    0.65    0.06
  -4  -4   3    0.68    0.06
  -4  -4   3    0.59    0.05
  -4  -4   3    0.58    0.06
  -4  -4   3    1.01    0.20
  -4  -4   3    0.78    0.04
  -4  -4   3    0.65    0.05
  -4  -4   3    0.68    0.04
  -4  -4   3    0.61    0.05
  -4  -4   3    1.01    0.20
  -4  -4   3    0.92    0.08
  -4  -4   3    0.59    0.05
  -4  -4   3    0.79    0.08
  -4  -4   3    0.62    0.06
  -4  -4   3    0.68    0.08
  -4  -4   3    0.71    0.06
   3   4  -3   11.32    0.27
   3   4  -3   11.09    0.26
   3   4  -3   11.21    0.26
   3   4  -3   10.89    0.26
  -3  -4   3   10.73    0.26
  -3  -4   3   10.99    0.26
  -3  -4   3   10.83    0.49
  -3  -4   3   11.51    0.25
  -3  -4   3   10.20    0.26
  -3  -4   3   10.98    0.26
  -3  -4   3   10.47    0.26
  -3  -4   3   10.46    0.49
  -3  -4   3   11.24    0.25
  -3  -4   3   10.88    0.26
  -3  -4   3   10.81    0.25
  -3  -4   3   11.14    0.27
  -3  -4   3   10.96    0.29
   2   4  -3    1.37    0.07
   2   4  -3    1.57    0.07
   2   4  -3    1.37    0.07
   2   4  -3    1.49    0.07
  -2  -4   3    1.27    0.14
  -2  -4   3    1.47    0.09
  -2  -4   3    1.48    0.05
  -2  -4   3    1.54    0.08
  -2  -4   3    1.54    0.06
  -2  -4   3    1.60    0.06
  -2  -4   3    1.39    0.07
  -2  -4   3    1.27    0.15
  -2  -4   3    1.51    0.06
  -2  -4   3    1.47    0.06
  -2  -4   3    1.47    0.06
   1   4  -3    0.08    0.02
   1   4  -3    0.06    0.02
   1   4  -3    0.07    0.02
   1   4  -3    0.08    0.02
   1   4  -3    0.06    0.02
  -1  -4   3    0.04    0.02
  -1  -4   3    0.08    0.02
  -1  -4   3    0.07    0.02
  -1  -4   3    0.04    0.03
  -1  -4   3    0.07    0.02
  -1  -4   3    0.06    0.01
  -1  -4   3    0.07    0.03
   0   4  -3    0.97    0.05
   0   4  -3    0.93    0.05
   0   4  -3    1.00    0.05
   0   4  -3    0.90    0.05
   0   4  -3    0.94    0.05
   0  -4   3    0.97    0.05
   0  -4   3    0.90    0.07
   0  -4   3    1.00    0.05
   0  -4   3    0.96    0.04
   0  -4   3    0.95    0.05
   0  -4   3    0.89    0.08
   0  -4   3    0.91    0.05
  -1   4  -3    1.21    0.06
  -1   4  -3    1.30    0.06
  -1   4  -3    1.33    0.06
  -1   4  -3    1.30    0.06
   1  -4   3    1.29    0.05
   1  -4   3    1.28    0.06
   1  -4   3    1.37    0.06
   1  -4   3    1.33    0.06
   1  -4   3    1.29    0.05
   1  -4   3    1.24    0.08
  -2   4  -3   15.15    0.33
  -2   4  -3   14.87    0.33
  -2   4  -3   14.94    0.33
  -2   4  -3   14.47    0.33
   2  -4   3   15.00    0.33
   2  -4   3   15.60    0.33
   2  -4   3   15.08    0.36
   2  -4   3   14.90    0.32
   2  -4   3   14.76    0.32
   2  -4   3   15.36    0.30
  -3   4  -3    6.55    0.18
  -3   4  -3    6.86    0.18
   3  -4   3    6.48    0.17
   3  -4   3    6.57    0.20
   3  -4   3    6.56    0.17
   3  -4   3    6.19    0.29
   3  -4   3    6.09    0.18
   3  -4   3    6.71    0.17
   3  -4   3    6.51    0.29
  -4   4  -3    1.23    0.08
  -4   4  -3    1.18    0.08
   4  -4   3    1.21    0.08
   4  -4   3    1.24    0.08
   4  -4   3    1.28    0.09
   4  -4   3    1.34    0.06
   4  -4   3    1.54    0.19
   4  -4   3    1.45    0.19
   4  -4   3    1.26    0.08
  -5   4  -3    1.35    0.09
  -5   4  -3    1.10    0.09
   5  -4   3    1.13    0.06
   5  -4   3    0.93    0.09
   5  -4   3    1.07    0.08
   5  -4   3    0.94    0.20
   5  -4   3    0.98    0.20
   5  -4   3    1.05    0.08
   5  -4   3    1.19    0.08
   5  -4   3    1.09    0.07
  -6   4  -3    0.55    0.07
  -6   4  -3    0.38    0.07
   6  -4   3    0.42    0.06
   6  -4   3    0.43    0.06
   6  -4   3    0.39    0.05
   6  -4   3    0.28    0.14
   6  -4   3    0.46    0.06
   6  -4   3    0.42    0.17
   6  -4   3    0.48    0.07
   6  -4   3    0.38    0.06
  -7   4  -3    8.97    0.29
  -7   4  -3    9.16    0.28
   7  -4   3    8.56    0.27
   7  -4   3    9.14    0.25
   7  -4   3    8.48    0.60
   7  -4   3    9.21    0.27
   7  -4   3    8.45    0.59
   7  -4   3    9.12    0.26
   7  -4   3    9.05    0.24
   7  -4   3    8.29    0.58
   7  -4   3    9.00    0.28
  -8   4  -3    0.48    0.09
  -8   4  -3    0.72    0.10
   8  -4   3    0.86    0.27
   8  -4   3    0.58    0.09
   8  -4   3    0.67    0.24
   8  -4   3    0.68    0.08
   8  -4   3    0.62    0.22
   8  -4   3    0.75    0.09
   8  -4   3    0.78    0.10
   8  -4   3    0.66    0.09
   8  -4   3    0.63    0.09
   9   3  -3    4.59    0.21
   9   3  -3    4.48    0.21
   9   3  -3    4.50    0.22
  -9  -3   3    4.62    0.21
  -9  -3   3    4.84    0.22
  -9  -3   3    4.77    0.21
  -9  -3   3    4.67    0.20
  -9  -3   3    4.54    0.20
  -9  -3   3    4.64    0.21
  -9  -3   3    4.54    0.19
  -9  -3   3    4.86    0.22
  -9  -3   3    4.72    0.22
   8   3  -3    1.59    0.13
   8   3  -3    1.41    0.12
   8   3  -3    1.58    0.13
  -8  -3   3    1.39    0.12
  -8  -3   3    1.48    0.12
  -8  -3   3    1.64    0.12
  -8  -3   3    1.77    0.13
  -8  -3   3    1.48    0.11
  -8  -3   3    1.41    0.12
  -8  -3   3    1.42    0.11
  -8  -3   3    1.56    0.12
   7   3  -3    2.01    0.12
   7   3  -3    1.94    0.12
   7   3  -3    2.02    0.13
  -7  -3   3    2.02    0.13
  -7  -3   3    1.68    0.11
  -7  -3   3    1.86    0.12
  -7  -3   3    1.88    0.11
  -7  -3   3    1.88    0.12
  -7  -3   3    1.95    0.12
  -7  -3   3    1.95    0.17
  -7  -3   3    2.11    0.12
  -7  -3   3    1.89    0.12
   6   3  -3   11.20    0.31
   6   3  -3   11.21    0.31
   6   3  -3   11.51    0.31
  -6  -3   3   10.83    0.31
  -6  -3   3   11.34    0.30
  -6  -3   3   11.10    0.28
  -6  -3   3   11.32    0.30
  -6  -3   3   11.42    0.31
  -6  -3   3   11.10    0.31
  -6  -3   3   11.25    0.29
  -6  -3   3   11.29    0.30
  -6  -3   3   12.80    0.74
  -6  -3   3   11.78    0.38
  -6  -3   3   11.78    0.38
   5   3  -3   61.85    1.24
   5   3  -3   62.43    1.22
   5   3  -3   61.49    1.24
   5   3  -3   60.96    1.24
  -5  -3   3   63.74    1.32
  -5  -3   3   64.38    1.21
  -5  -3   3   61.31    1.24
  -5  -3   3   62.14    1.81
  -5  -3   3   61.68    1.24
  -5  -3   3   62.02    1.23
  -5  -3   3   61.32    1.24
  -5  -3   3   61.96    1.31
  -5  -3   3   62.08    1.20
  -5  -3   3   62.68    1.79
  -5  -3   3   61.88    1.24
  -5  -3   3   61.22    1.23
  -5  -3   3   61.27    1.21
  -5  -3   3   62.95    1.23
   4   3  -3   10.23    0.26
   4   3  -3   10.90    0.27
   4   3  -3   10.22    0.26
   4   3  -3   10.55    0.24
  -4  -3   3   10.89    0.25
  -4  -3   3   10.31    0.53
  -4  -3   3   10.81    0.25
  -4  -3   3   10.33    0.23
  -4  -3   3   10.47    0.26
  -4  -3   3   10.98    0.26
  -4  -3   3   10.33    0.29
  -4  -3   3   10.79    0.29
  -4  -3   3   10.37    0.26
  -4  -3   3   10.77    0.23
  -4  -3   3   10.22    0.30
  -4  -3   3   10.25    0.25
  -4  -3   3   10.45    0.25
  -4  -3   3   10.33    0.26
  -4  -3   3   10.66    0.55
   3   3  -3   21.29    0.44
   3   3  -3   20.69    0.44
   3   3  -3   20.25    0.44
   3   3  -3   21.04    0.42
   3   3  -3   21.07    0.45
  -3  -3   3   20.67    0.44
  -3  -3   3   20.65    0.44
  -3  -3   3   21.56    0.43
  -3  -3   3   20.62    0.44
  -3  -3   3   20.63    0.71
  -3  -3   3   20.50    0.43
  -3  -3   3   20.49    0.47
  -3  -3   3   20.28    0.46
  -3  -3   3   20.48    0.70
  -3  -3   3   21.13    0.44
  -3  -3   3   20.58    0.44
  -3  -3   3   21.42    0.43
  -3  -3   3   21.57    0.46
   2   3  -3    0.64    0.04
   2   3  -3    0.61    0.04
   2   3  -3    0.49    0.04
   2   3  -3    0.63    0.04
  -2  -3   3    0.59    0.04
  -2  -3   3    0.45    0.06
  -2  -3   3    0.63    0.04
  -2  -3   3    0.60    0.03
  -2  -3   3    0.52    0.03
  -2  -3   3    0.57    0.04
  -2  -3   3    0.60    0.04
  -2  -3   3    0.58    0.04
  -2  -3   3    0.61    0.05
   1   3  -3   10.49    0.22
   1   3  -3   10.14    0.22
   1   3  -3    9.80    0.22
  -1  -3   3    9.98    0.25
  -1  -3   3   10.26    0.20
  -1  -3   3   10.01    0.20
  -1  -3   3   10.46    0.27
  -1  -3   3   10.11    0.21
  -1  -3   3   10.34    0.22
  -1  -3   3   10.00    0.22
  -1  -3   3   10.12    0.21
   0   3  -3   67.35    1.27
   0   3  -3   68.30    1.27
   0   3  -3   67.21    1.27
   0   3  -3   66.69    1.27
   0  -3   3   65.66    1.26
   0  -3   3   64.43    1.31
   0  -3   3   68.46    1.27
   0  -3   3   67.47    1.27
   0  -3   3   67.57    1.26
   0  -3   3   66.43    1.27
   0  -3   3   66.33    1.34
  -1   3  -3    6.97    0.16
  -1   3  -3    7.13    0.16
  -1   3  -3    7.26    0.16
  -1   3  -3    7.34    0.16
   1  -3   3    7.43    0.16
   1  -3   3    7.28    0.20
   1  -3   3    7.27    0.16
   1  -3   3    7.08    0.16
   1  -3   3    7.49    0.16
   1  -3   3    7.22    0.16
   1  -3   3    7.42    0.16
  -2   3  -3   10.47    0.23
  -2   3  -3   10.35    0.23
  -2   3  -3   10.41    0.23
  -2   3  -3   10.59    0.23
  -2   3  -3   10.51    0.21
  -2   3  -3   10.22    0.23
   2  -3   3   10.47    0.23
   2  -3   3   10.08    0.23
   2  -3   3   10.37    0.23
   2  -3   3   10.28    0.22
   2  -3   3   10.71    0.23
   2  -3   3   10.40    0.21
   2  -3   3    9.85    0.24
   2  -3   3   10.29    0.26
  -3   3  -3    3.57    0.11
  -3   3  -3    3.50    0.11
  -3   3  -3    3.43    0.09
  -3   3  -3    3.49    0.11
   3  -3   3    3.33    0.10
   3  -3   3    3.40    0.11
   3  -3   3    3.53    0.13
   3  -3   3    3.54    0.20
   3  -3   3    3.50    0.09
   3  -3   3    3.34    0.11
   3  -3   3    3.56    0.11
   3  -3   3    3.61    0.21
   3  -3   3    3.54    0.08
  -4   3  -3    8.22    0.21
  -4   3  -3    8.31    0.20
  -4   3  -3    7.88    0.22
  -4   3  -3    8.33    0.21
   4  -3   3    8.18    0.41
   4  -3   3    7.90    0.21
   4  -3   3    7.92    0.22
   4  -3   3    8.39    0.19
   4  -3   3    8.08    0.21
   4  -3   3    7.83    0.39
   4  -3   3    8.04    0.19
   4  -3   3    8.23    0.22
   4  -3   3    7.79    0.21
  -5   3  -3    1.30    0.07
  -5   3  -3    1.19    0.08
  -5   3  -3    1.08    0.08
  -5   3  -3    1.21    0.08
   5  -3   3    1.08    0.08
   5  -3   3    1.22    0.08
   5  -3   3    1.06    0.19
   5  -3   3    1.13    0.20
   5  -3   3    0.99    0.20
   5  -3   3    1.11    0.07
   5  -3   3    1.13    0.07
   5  -3   3    1.06    0.07
   5  -3   3    1.12    0.08
   5  -3   3    1.11    0.08
  -6   3  -3    1.27    0.08
  -6   3  -3    1.30    0.10
  -6   3  -3    1.06    0.09
   6  -3   3    1.42    0.08
   6  -3   3    1.33    0.25
   6  -3   3    1.23    0.09
   6  -3   3    1.39    0.09
   6  -3   3    1.38    0.10
   6  -3   3    1.24    0.09
   6  -3   3    1.29    0.09
   6  -3   3    1.31    0.08
   6  -3   3    1.08    0.22
  -7   3  -3   12.20    0.35
  -7   3  -3   12.37    0.34
   7  -3   3   12.16    0.33
   7  -3   3   11.65    0.69
   7  -3   3   11.89    0.71
   7  -3   3   12.28    0.33
   7  -3   3   12.50    0.36
   7  -3   3   12.54    0.31
   7  -3   3   12.34    0.34
   7  -3   3   11.86    0.31
  -8   3  -3    0.36    0.08
  -8   3  -3    0.31    0.07
   8  -3   3    0.32    0.06
   8  -3   3    0.29    0.19
   8  -3   3    0.27    0.07
   8  -3   3    0.38    0.30
   8  -3   3    0.30    0.07
   8  -3   3    0.24    0.07
   8  -3   3    0.25    0.06
   8  -3   3    0.35    0.08
   9   2  -3    0.79    0.10
   9   2  -3    0.65    0.10
   9   2  -3    0.69    0.10
  -9  -2   3    0.91    0.11
  -9  -2   3    0.87    0.11
  -9  -2   3    0.66    0.10
  -9  -2   3    0.84    0.10
  -9  -2   3    0.59    0.08
  -9  -2   3    0.68    0.10
  -9  -2   3    0.73    0.10
  -9  -2   3    0.74    0.10
   8   2  -3    2.04    0.13
   8   2  -3    2.37    0.14
   8   2  -3    2.11    0.14
  -8  -2   3    2.34    0.14
  -8  -2   3    2.20    0.14
  -8  -2   3    2.10    0.13
  -8  -2   3    2.05    0.14
  -8  -2   3    2.02    0.13
  -8  -2   3    2.38    0.13
  -8  -2   3    2.28    0.13
  -8  -2   3    2.17    0.14
  -8  -2   3    2.41    0.14
   7   2  -3   20.93    0.50
   7   2  -3   21.92    0.51
   7   2  -3   21.10    0.50
   7   2  -3   20.96    0.51
  -7  -2   3   20.98    0.49
  -7  -2   3   21.00    0.51
  -7  -2   3   20.45    0.48
  -7  -2   3   20.06    0.50
  -7  -2   3   21.19    0.50
  -7  -2   3   20.47    0.49
  -7  -2   3   20.18    0.49
  -7  -2   3   20.92    0.50
   6   2  -3    0.79    0.08
   6   2  -3    0.78    0.07
   6   2  -3    0.64    0.07
   6   2  -3    0.70    0.08
  -6  -2   3    0.73    0.07
  -6  -2   3    0.48    0.18
  -6  -2   3    0.70    0.10
  -6  -2   3    0.75    0.08
  -6  -2   3    0.74    0.08
  -6  -2   3    0.77    0.08
  -6  -2   3    0.77    0.07
  -6  -2   3    0.66    0.10
  -6  -2   3    0.64    0.07
  -6  -2   3    0.81    0.07
  -6  -2   3    0.68    0.07
   5   2  -3   21.28    0.46
   5   2  -3   21.12    0.48
   5   2  -3   20.51    0.47
   5   2  -3   20.48    0.47
  -5  -2   3   20.77    0.46
  -5  -2   3   21.13    0.48
  -5  -2   3   21.30    0.90
  -5  -2   3   21.04    0.45
  -5  -2   3   21.41    0.54
  -5  -2   3   21.47    0.47
  -5  -2   3   20.77    0.46
  -5  -2   3   21.33    0.54
  -5  -2   3   20.69    0.47
  -5  -2   3   21.02    0.45
  -5  -2   3   20.60    0.91
  -5  -2   3   21.94    0.47
  -5  -2   3   21.13    0.48
   4   2  -3    0.54    0.05
   4   2  -3    0.64    0.05
   4   2  -3    0.55    0.06
   4   2  -3    0.56    0.05
   4   2  -3    0.54    0.06
  -4  -2   3    0.55    0.04
  -4  -2   3    0.50    0.07
  -4  -2   3    0.39    0.14
  -4  -2   3    0.64    0.05
  -4  -2   3    0.71    0.05
  -4  -2   3    0.62    0.05
  -4  -2   3    0.54    0.04
  -4  -2   3    0.63    0.05
  -4  -2   3    0.57    0.06
  -4  -2   3    0.59    0.05
  -4  -2   3    0.69    0.06
  -4  -2   3    0.57    0.07
  -4  -2   3    0.56    0.04
  -4  -2   3    0.43    0.15
   3   2  -3   38.42    0.77
   3   2  -3   38.45    0.78
   3   2  -3   38.58    0.77
   3   2  -3   37.02    0.77
   3   2  -3   37.99    0.75
  -3  -2   3   37.48    0.77
  -3  -2   3   38.40    0.76
  -3  -2   3   37.86    0.76
  -3  -2   3   38.25    0.77
  -3  -2   3   39.11    0.76
  -3  -2   3   38.13    0.80
  -3  -2   3   38.02    0.77
  -3  -2   3   38.18    0.77
  -3  -2   3   39.69    0.81
  -3  -2   3   39.16    0.74
  -3  -2   3   38.57    0.80
  -3  -2   3   39.82    0.74
  -3  -2   3   41.84    1.10
  -3  -2   3   37.46    0.76
  -3  -2   3   40.87    1.11
   2   2  -3    3.55    0.11
   2   2  -3    3.73    0.10
   2   2  -3    3.86    0.11
   2   2  -3    3.77    0.10
  -2  -2   3    4.44    0.23
  -2  -2   3    3.63    0.10
  -2  -2   3    3.69    0.09
  -2  -2   3    3.74    0.11
  -2  -2   3    3.98    0.14
  -2  -2   3    3.68    0.10
  -2  -2   3    3.71    0.10
  -2  -2   3    3.82    0.09
  -2  -2   3    3.64    0.11
  -2  -2   3    3.74    0.10
   1   2  -3   15.73    0.31
   1   2  -3   15.11    0.31
   1   2  -3   15.28    0.31
  -1  -2   3   15.64    0.31
  -1  -2   3   15.59    0.31
  -1  -2   3   15.87    0.31
  -1  -2   3   15.35    0.31
  -1  -2   3   15.72    0.36
  -1  -2   3   15.10    0.34
   0   2  -3   55.66    1.04
   0   2  -3   54.71    1.04
   0  -2   3   52.89    1.07
   0  -2   3   55.07    1.10
   0  -2   3   55.96    1.04
   0  -2   3   55.57    1.04
  -1   2  -3   48.80    0.93
  -1   2  -3   50.02    0.93
  -1   2  -3   49.42    0.93
   1  -2   3   49.04    1.01
   1  -2   3   47.77    0.97
   1  -2   3   49.48    0.93
   1  -2   3   49.91    0.93
   1  -2   3   48.78    0.93
   1  -2   3   49.58    0.93
   1  -2   3   49.11    0.93
  -2   2  -3   46.62    0.88
  -2   2  -3   46.26    0.89
  -2   2  -3   46.15    0.89
  -2   2  -3   44.96    0.89
  -2   2  -3   46.01    0.89
   2  -2   3   45.55    0.89
   2  -2   3   46.71    0.88
   2  -2   3   47.33    0.89
   2  -2   3   46.86    0.90
   2  -2   3   46.24    0.88
   2  -2   3   45.34    0.92
   2  -2   3   45.99    0.88
  -3   2  -3    0.34    0.04
  -3   2  -3    0.36    0.03
  -3   2  -3    0.34    0.03
  -3   2  -3    0.29    0.03
   3  -2   3    0.33    0.08
   3  -2   3    0.35    0.03
   3  -2   3    0.33    0.03
   3  -2   3    0.30    0.03
   3  -2   3    0.31    0.03
   3  -2   3    0.35    0.02
   3  -2   3    0.40    0.04
   3  -2   3    0.34    0.09
   3  -2   3    0.41    0.05
  -4   2  -3   14.35    0.33
  -4   2  -3   15.08    0.32
  -4   2  -3   14.91    0.33
  -4   2  -3   14.93    0.33
   4  -2   3   15.34    0.33
   4  -2   3   14.85    0.31
   4  -2   3   14.83    0.34
   4  -2   3   14.36    0.33
   4  -2   3   14.54    0.31
   4  -2   3   14.18    0.56
   4  -2   3   14.10    0.32
   4  -2   3   14.69    0.32
   4  -2   3   13.43    0.54
  -5   2  -3   13.20    0.31
  -5   2  -3   12.78    0.31
  -5   2  -3   13.14    0.30
  -5   2  -3   12.31    0.31
   5  -2   3   11.32    0.57
   5  -2   3   12.23    0.32
   5  -2   3   12.88    0.30
   5  -2   3   12.71    0.30
   5  -2   3   11.31    0.57
   5  -2   3   12.70    0.29
   5  -2   3   12.88    0.29
   5  -2   3   12.31    0.30
   5  -2   3   12.59    0.31
   5  -2   3   12.47    0.30
  -6   2  -3   10.01    0.26
  -6   2  -3    9.98    0.27
  -6   2  -3    9.78    0.28
  -6   2  -3    9.49    0.27
   6  -2   3    9.75    0.26
   6  -2   3    9.57    0.25
   6  -2   3    9.55    0.58
   6  -2   3   10.22    0.30
   6  -2   3    9.81    0.27
   6  -2   3    9.58    0.25
   6  -2   3    9.45    0.57
   6  -2   3    9.68    0.25
   6  -2   3    9.58    0.26
  -7   2  -3    1.40    0.11
  -7   2  -3    1.39    0.11
  -7   2  -3    1.52    0.10
  -7   2  -3    1.32    0.10
   7  -2   3    1.34    0.06
   7  -2   3    1.30    0.10
   7  -2   3    1.49    0.09
   7  -2   3    1.40    0.10
   7  -2   3    1.44    0.10
   7  -2   3    1.43    0.09
   7  -2   3    1.30    0.26
   7  -2   3    1.08    0.27
   7  -2   3    1.26    0.12
  -8   2  -3    0.47    0.07
  -8   2  -3    0.26    0.07
  -8   2  -3    0.43    0.09
  -8   2  -3    0.42    0.08
   8  -2   3    0.30    0.07
   8  -2   3    0.42    0.04
   8  -2   3    0.29    0.06
   8  -2   3    0.44    0.07
   8  -2   3    0.34    0.07
   8  -2   3    0.39    0.09
   8  -2   3    0.39    0.21
   8  -2   3    0.46    0.06
  -9   2  -3    0.84    0.11
  -9   2  -3    0.85    0.12
  -9   2  -3    1.05    0.12
   9  -2   3    0.78    0.09
   9  -2   3    0.86    0.12
   9  -2   3    0.86    0.10
   9  -2   3    0.71    0.28
   9  -2   3    0.89    0.11
   9  -2   3    0.91    0.09
   9  -2   3    0.91    0.11
   9  -2   3    0.91    0.06
   9   1  -3    2.18    0.16
   9   1  -3    2.00    0.15
   9   1  -3    2.26    0.16
  -9  -1   3    2.07    0.15
  -9  -1   3    2.14    0.14
  -9  -1   3    2.08    0.15
  -9  -1   3    1.98    0.15
  -9  -1   3    2.01    0.15
  -9  -1   3    2.11    0.15
  -9  -1   3    2.12    0.15
  -9  -1   3    2.00    0.14
   8   1  -3    0.36    0.07
   8   1  -3    0.21    0.06
   8   1  -3    0.14    0.05
   8   1  -3    0.29    0.07
  -8  -1   3    0.15    0.05
  -8  -1   3    0.19    0.06
  -8  -1   3    0.18    0.06
  -8  -1   3    0.16    0.06
  -8  -1   3    0.11    0.06
  -8  -1   3    0.14    0.06
  -8  -1   3    0.25    0.06
  -8  -1   3    0.22    0.06
   7   1  -3    0.59    0.07
   7   1  -3    0.56    0.07
   7   1  -3    0.49    0.07
   7   1  -3    0.49    0.08
  -7  -1   3    0.63    0.08
  -7  -1   3    0.67    0.09
  -7  -1   3    0.57    0.08
  -7  -1   3    0.63    0.07
  -7  -1   3    0.80    0.09
  -7  -1   3    0.62    0.08
  -7  -1   3    0.79    0.09
  -7  -1   3    0.63    0.08
  -7  -1   3    0.66    0.08
   6   1  -3    0.13    0.04
   6   1  -3    0.21    0.05
   6   1  -3    0.15    0.05
   6   1  -3    0.23    0.05
   6   1  -3    0.21    0.06
  -6  -1   3    0.16    0.14
  -6  -1   3    0.15    0.04
  -6  -1   3    0.15    0.04
  -6  -1   3    0.13    0.06
  -6  -1   3    0.22    0.05
  -6  -1   3    0.16    0.04
  -6  -1   3    0.13    0.04
  -6  -1   3    0.22    0.05
  -6  -1   3    0.14    0.07
  -6  -1   3    0.09    0.04
  -6  -1   3    0.18    0.04
  -6  -1   3    0.07    0.04
   5   1  -3    3.74    0.13
   5   1  -3    3.60    0.14
   5   1  -3    3.61    0.14
   5   1  -3    3.84    0.13
   5   1  -3    3.57    0.14
  -5  -1   3    4.57    0.41
  -5  -1   3    3.76    0.14
  -5  -1   3    3.96    0.19
  -5  -1   3    4.45    0.41
  -5  -1   3    3.65    0.13
  -5  -1   3    3.62    0.12
  -5  -1   3    3.61    0.14
  -5  -1   3    3.58    0.14
  -5  -1   3    3.63    0.13
  -5  -1   3    3.75    0.14
  -5  -1   3    3.68    0.13
  -5  -1   3    3.71    0.18
  -5  -1   3    3.61    0.13
   4   1  -3   25.61    0.52
   4   1  -3   27.26    0.61
   4   1  -3   24.82    0.53
   4   1  -3   25.57    0.54
   4   1  -3   26.05    0.52
   4   1  -3   24.94    0.54
  -4  -1   3   25.08    0.52
  -4  -1   3   25.26    0.53
  -4  -1   3   24.86    0.59
  -4  -1   3   24.64    0.52
  -4  -1   3   24.88    0.54
  -4  -1   3   24.70    0.92
  -4  -1   3   24.84    0.53
  -4  -1   3   25.60    0.53
  -4  -1   3   26.31    0.53
  -4  -1   3   24.88    0.52
  -4  -1   3   24.94    0.59
  -4  -1   3   25.02    0.53
  -4  -1   3   25.54    0.53
  -4  -1   3   23.46    0.90
   3   1  -3    0.42    0.04
   3   1  -3    0.41    0.04
   3   1  -3    0.45    0.04
   3   1  -3    0.43    0.04
   3   1  -3    0.39    0.04
  -3  -1   3    0.43    0.04
  -3  -1   3    0.30    0.03
  -3  -1   3    0.44    0.04
  -3  -1   3    0.34    0.04
  -3  -1   3    0.33    0.03
  -3  -1   3    0.38    0.04
  -3  -1   3    0.42    0.04
  -3  -1   3    0.35    0.04
  -3  -1   3    0.28    0.05
  -3  -1   3    0.23    0.05
  -3  -1   3    0.44    0.04
   2   1  -3   19.85    0.40
   2   1  -3   19.45    0.40
   2   1  -3   18.66    0.40
   2   1  -3   19.46    0.38
   2   1  -3   19.63    0.40
  -2  -1   3   19.09    0.39
  -2  -1   3   19.94    0.60
  -2  -1   3   19.96    0.40
  -2  -1   3   19.60    0.39
  -2  -1   3   19.64    0.41
  -2  -1   3   19.30    0.44
  -2  -1   3   19.31    0.40
  -2  -1   3   19.29    0.39
  -2  -1   3   19.69    0.41
  -2  -1   3   19.10    0.59
  -2  -1   3   19.33    0.39
  -2  -1   3   19.19    0.39
   1   1  -3   10.19    0.21
   1   1  -3    9.78    0.21
   1   1  -3    9.96    0.21
  -1  -1   3   10.12    0.20
  -1  -1   3   10.07    0.20
  -1  -1   3   10.03    0.23
  -1  -1   3   10.04    0.20
  -1  -1   3   10.09    0.20
  -1  -1   3    9.78    0.25
  -1  -1   3   10.23    0.21
   0  -1   3    5.45    0.16
   0  -1   3    5.37    0.14
  -1   1  -3    4.35    0.09
  -1   1  -3    4.42    0.10
   1  -1   3    4.40    0.12
   1  -1   3    4.36    0.09
   1  -1   3    4.26    0.15
   1  -1   3    4.40    0.09
  -2   1  -3  160.00    3.06
  -2   1  -3  161.90    3.04
  -2   1  -3  161.76    3.05
  -2   1  -3  164.65    3.05
   2  -1   3  161.40    3.07
   2  -1   3  164.41    3.05
   2  -1   3  161.23    3.05
   2  -1   3  161.12    3.05
   2  -1   3  165.59    3.04
   2  -1   3  160.75    3.05
  -3   1  -3   42.48    0.82
  -3   1  -3   42.55    0.82
  -3   1  -3   40.97    0.82
  -3   1  -3   40.76    0.82
   3  -1   3   43.07    0.82
   3  -1   3   43.05    1.02
   3  -1   3   41.19    0.82
   3  -1   3   42.17    0.83
   3  -1   3   42.54    0.80
   3  -1   3   41.93    0.81
   3  -1   3   42.47    0.82
   3  -1   3   42.13    1.01
   3  -1   3   41.00    0.82
  -4   1  -3   11.19    0.24
  -4   1  -3   10.98    0.27
  -4   1  -3   10.99    0.26
  -4   1  -3   11.10    0.26
  -4   1  -3   11.14    0.26
   4  -1   3   11.25    0.26
   4  -1   3   11.43    0.25
   4  -1   3   10.78    0.26
   4  -1   3   10.70    0.26
   4  -1   3   11.14    0.25
   4  -1   3   11.91    0.28
   4  -1   3   12.12    0.50
   4  -1   3   11.28    0.26
   4  -1   3   11.59    0.49
   4  -1   3   10.84    0.26
   4  -1   3   11.10    0.25
  -5   1  -3   23.60    0.52
  -5   1  -3   24.41    0.53
  -5   1  -3   24.07    0.52
  -5   1  -3   24.35    0.52
   5  -1   3   24.64    0.48
   5  -1   3   24.63    0.51
   5  -1   3   24.47    0.56
   5  -1   3   24.37    0.51
   5  -1   3   24.79    0.56
   5  -1   3   24.34    0.52
   5  -1   3   24.38    0.88
   5  -1   3   24.06    0.51
   5  -1   3   23.81    0.52
   5  -1   3   24.09    0.89
   5  -1   3   25.80    0.53
   5  -1   3   24.41    0.51
   5  -1   3   23.89    0.52
  -6   1  -3   29.90    0.66
  -6   1  -3   30.62    0.64
  -6   1  -3   29.72    0.64
  -6   1  -3   30.44    0.65
   6  -1   3   29.71    0.64
   6  -1   3   30.22    0.63
   6  -1   3   29.90    0.62
   6  -1   3   30.72    0.63
   6  -1   3   29.26    0.64
   6  -1   3   30.30    0.65
   6  -1   3   29.66    0.63
   6  -1   3   29.13    0.69
   6  -1   3   29.05    1.08
   6  -1   3   29.44    0.64
   6  -1   3   29.90    0.69
   6  -1   3   30.23    1.12
   6  -1   3   29.39    0.60
  -7   1  -3    1.11    0.09
  -7   1  -3    1.10    0.10
  -7   1  -3    0.99    0.10
  -7   1  -3    1.17    0.10
   7  -1   3    1.19    0.09
   7  -1   3    1.10    0.28
   7  -1   3    0.98    0.08
   7  -1   3    1.11    0.25
   7  -1   3    1.10    0.07
   7  -1   3    1.24    0.12
   7  -1   3    1.01    0.09
   7  -1   3    1.19    0.09
   7  -1   3    1.22    0.09
   7  -1   3    0.94    0.09
   7  -1   3    1.14    0.11
  -8   1  -3   10.68    0.31
  -8   1  -3   10.17    0.32
  -8   1  -3   10.78    0.31
  -8   1  -3   10.35    0.31
   8  -1   3   10.55    0.29
   8  -1   3   10.36    0.26
   8  -1   3   10.33    0.30
   8  -1   3   10.48    0.31
   8  -1   3   10.35    0.36
   8  -1   3   10.28    0.73
   8  -1   3   10.72    0.29
   8  -1   3   10.37    0.31
   8  -1   3   10.54    0.29
   8  -1   3   10.46    0.37
  -9   1  -3    2.16    0.15
  -9   1  -3    2.27    0.15
  -9   1  -3    2.46    0.16
  -9   1  -3    2.21    0.14
   9  -1   3    2.40    0.10
   9  -1   3    2.24    0.17
   9  -1   3    2.28    0.13
   9  -1   3    2.29    0.13
   9  -1   3    2.09    0.17
   9  -1   3    2.26    0.13
   9  -1   3    2.13    0.15
   9  -1   3    2.15    0.41
   9  -1   3    2.11    0.14
   9  -1   3    2.34    0.15
   9   0  -3    0.39    0.10
   9   0  -3    0.11    0.07
   9   0  -3    0.22    0.08
   9   0  -3    0.19    0.07
  -9   0   3    0.31    0.07
  -9   0   3    0.24    0.08
  -9   0   3    0.27    0.07
  -9   0   3    0.32    0.08
  -9   0   3    0.38    0.08
   8   0  -3    0.35    0.08
   8   0  -3    0.45    0.07
   8   0  -3    0.53    0.09
   8   0  -3    0.33    0.07
  -8   0   3    0.55    0.09
  -8   0   3    0.41    0.08
  -8   0   3    0.54    0.08
  -8   0   3    0.40    0.08
  -8   0   3    0.44    0.07
  -8   0   3    0.40    0.08
  -8   0   3    0.43    0.07
  -8   0   3    0.38    0.07
   7   0  -3    0.18    0.05
   7   0  -3    0.22    0.06
   7   0  -3    0.18    0.05
   7   0  -3    0.29    0.06
   7   0  -3    0.27    0.06
  -7   0   3    0.24    0.06
  -7   0   3    0.27    0.06
  -7   0   3    0.32    0.06
  -7   0   3    0.24    0.06
  -7   0   3    0.26    0.06
  -7   0   3    0.36    0.06
  -7   0   3    0.32    0.06
  -7   0   3    0.27    0.06
   6   0  -3   15.83    0.38
   6   0  -3   16.00    0.39
   6   0  -3   15.70    0.37
   6   0  -3   15.49    0.39
   6   0  -3   15.59    0.39
  -6   0   3   15.53    0.39
  -6   0   3   15.91    0.39
  -6   0   3   15.80    0.39
  -6   0   3   15.80    0.38
  -6   0   3   15.79    0.39
  -6   0   3   15.63    0.38
  -6   0   3   15.62    0.39
  -6   0   3   15.66    0.38
   5   0  -3    0.64    0.07
   5   0  -3    0.51    0.06
   5   0  -3    0.58    0.06
   5   0  -3    0.48    0.06
   5   0  -3    0.64    0.06
   5   0  -3    0.72    0.07
   5   0  -3    0.54    0.06
  -5   0   3    0.45    0.06
  -5   0   3    0.45    0.05
  -5   0   3    0.53    0.06
  -5   0   3    0.44    0.06
  -5   0   3    0.57    0.06
  -5   0   3    0.82    0.10
  -5   0   3    0.63    0.09
  -5   0   3    0.62    0.06
  -5   0   3    0.60    0.06
  -5   0   3    0.49    0.06
  -5   0   3    0.47    0.05
  -5   0   3    0.49    0.06
   4   0  -3    3.26    0.12
   4   0  -3    3.18    0.12
   4   0  -3    3.19    0.12
   4   0  -3    3.25    0.12
   4   0  -3    3.25    0.11
   4   0  -3    3.34    0.12
   4   0  -3    3.28    0.11
   4   0  -3    3.40    0.12
  -4   0   3    3.52    0.33
  -4   0   3    3.30    0.16
  -4   0   3    3.58    0.11
  -4   0   3    3.64    0.33
  -4   0   3    3.37    0.11
  -4   0   3    3.28    0.11
  -4   0   3    3.22    0.12
  -4   0   3    3.39    0.16
  -4   0   3    3.29    0.12
  -4   0   3    3.25    0.12
  -4   0   3    3.17    0.11
  -4   0   3    3.25    0.12
  -4   0   3    3.39    0.12
  -4   0   3    3.14    0.12
  -4   0   3    3.30    0.11
   3   0  -3   30.30    0.63
   3   0  -3   30.97    0.63
   3   0  -3   30.42    0.61
   3   0  -3   30.90    0.62
   3   0  -3   30.56    0.62
   3   0  -3   31.14    0.61
  -3   0   3   29.59    0.95
  -3   0   3   31.02    0.61
  -3   0   3   30.87    0.62
  -3   0   3   30.30    0.62
  -3   0   3   31.99    0.97
  -3   0   3   30.84    0.68
  -3   0   3   31.22    0.61
  -3   0   3   30.98    0.62
  -3   0   3   29.62    0.67
  -3   0   3   30.33    0.62
  -3   0   3   30.27    0.61
  -3   0   3   30.06    0.62
   2   0  -3   10.40    0.22
   2   0  -3   10.60    0.23
   2   0  -3   10.69    0.23
   2   0  -3   10.33    0.23
   2   0  -3   10.56    0.24
  -2   0   3   10.41    0.23
  -2   0   3   10.45    0.26
  -2   0   3   10.89    0.23
  -2   0   3   10.38    0.23
  -2   0   3   10.24    0.23
  -2   0   3   10.95    0.43
  -2   0   3   10.77    0.43
  -2   0   3   10.55    0.23
  -2   0   3   10.70    0.26
  -2   0   3   10.58    0.22
  -2   0   3   10.53    0.23
  -2   0   3   10.55    0.22
   1   0  -3   26.31    0.51
   1   0  -3   25.92    0.51
  -1   0   3   25.97    0.51
  -1   0   3   27.83    0.64
  -1   0   3   26.75    0.51
  -1   0   3   25.49    0.53
  -1   0   3   26.70    0.51
  -1   0   3   26.39    0.50
  -1   0   3   26.47    0.63
  -1   0   3   26.35    0.51
  -1   0   3   26.30    0.51
  -1   0   3   25.57    0.56
   0   0  -3   15.27    0.30
   0   0   3   15.19    0.35
   0   0   3   15.26    0.32
   0   0   3   15.07    0.29
  -1   0  -3   -0.02    0.01
   1   0   3    0.00    0.02
   1   0   3   -0.02    0.01
   1   0   3    0.01    0.03
   1   0   3   -0.02    0.01
   1   0   3   -0.04    0.01
  -2   0  -3    5.13    0.12
  -2   0  -3    5.10    0.12
  -2   0  -3    4.85    0.12
  -2   0  -3    5.13    0.13
   2   0   3    5.00    0.11
   2   0   3    4.98    0.12
   2   0   3    4.37    0.16
   2   0   3    4.85    0.16
   2   0   3    5.02    0.11
   2   0   3    5.04    0.11
   2   0   3    4.93    0.13
   2   0   3    5.11    0.12
   2   0   3    5.15    0.10
   2   0   3    4.40    0.17
   2   0   3    5.08    0.12
  -3   0  -3   33.53    0.66
  -3   0  -3   33.82    0.67
  -3   0  -3   33.18    0.67
  -3   0  -3   32.58    0.67
  -3   0  -3   32.96    0.66
  -3   0  -3   34.30    0.66
   3   0   3   32.85    0.65
   3   0   3   33.53    0.66
   3   0   3   33.18    0.65
   3   0   3   33.65    0.66
   3   0   3   33.97    0.66
   3   0   3   33.82    0.65
   3   0   3   33.08    0.66
   3   0   3   33.23    0.87
   3   0   3   32.80    0.66
   3   0   3   33.77    0.65
   3   0   3   32.23    0.86
  -4   0  -3   99.63    1.88
  -4   0  -3   97.58    1.90
  -4   0  -3   98.73    1.90
  -4   0  -3  100.71    1.90
  -4   0  -3   97.77    1.89
   4   0   3   99.25    1.89
   4   0   3   98.16    1.88
   4   0   3   97.49    1.89
   4   0   3   98.21    2.25
   4   0   3   97.65    1.86
   4   0   3  100.60    2.27
   4   0   3  102.82    1.93
   4   0   3  100.92    1.88
   4   0   3   95.87    1.92
   4   0   3   97.17    1.89
   4   0   3  100.73    1.90
   4   0   3   96.70    1.89
   4   0   3  100.66    1.88
  -5   0  -3    8.71    0.23
  -5   0  -3    8.74    0.23
  -5   0  -3    8.54    0.23
  -5   0  -3    8.53    0.23
  -5   0  -3    8.49    0.21
   5   0   3    9.64    0.52
   5   0   3    8.30    0.22
   5   0   3    8.49    0.21
   5   0   3    8.71    0.22
   5   0   3    8.62    0.22
   5   0   3    8.69    0.22
   5   0   3    8.54    0.26
   5   0   3    9.37    0.50
   5   0   3    8.47    0.21
   5   0   3    8.40    0.23
   5   0   3    8.52    0.20
   5   0   3    9.16    0.23
   5   0   3    8.92    0.27
  -6   0  -3    0.62    0.07
  -6   0  -3    0.55    0.06
  -6   0  -3    0.60    0.06
  -6   0  -3    0.65    0.07
   6   0   3    0.63    0.19
   6   0   3    0.61    0.05
   6   0   3    0.67    0.07
   6   0   3    0.75    0.22
   6   0   3    0.58    0.05
   6   0   3    0.66    0.07
   6   0   3    0.74    0.06
   6   0   3    0.76    0.07
   6   0   3    0.71    0.07
   6   0   3    0.67    0.07
   6   0   3    0.62    0.09
   6   0   3    0.66    0.09
   6   0   3    0.61    0.06
  -7   0  -3    0.00    0.04
  -7   0  -3   -0.04    0.04
  -7   0  -3    0.03    0.04
  -7   0  -3    0.01    0.04
   7   0   3    0.02    0.04
   7   0   3    0.03    0.03
   7   0   3    0.01    0.04
   7   0   3   -0.01    0.04
   7   0   3   -0.03    0.04
   7   0   3   -0.02    0.03
   7   0   3    0.01    0.11
   7   0   3    0.00    0.04
   7   0   3    0.01    0.05
   7   0   3    0.00    0.03
   7   0   3   -0.03    0.04
   7   0   3    0.02    0.12
  -8   0  -3    7.23    0.24
  -8   0  -3    6.63    0.23
  -8   0  -3    6.46    0.24
  -8   0  -3    6.89    0.23
   8   0   3    7.46    0.24
   8   0   3    6.73    0.28
   8   0   3    6.16    0.58
   8   0   3    6.85    0.22
   8   0   3    6.67    0.29
   8   0   3    6.95    0.23
   8   0   3    6.95    0.20
   8   0   3    6.98    0.22
   8   0   3    7.05    0.22
   8   0   3    6.82    0.23
  -9   0  -3    0.80    0.10
  -9   0  -3    0.75    0.10
  -9   0  -3    0.55    0.09
  -9   0  -3    0.61    0.10
   9   0   3    0.60    0.08
   9   0   3    0.67    0.07
   9   0   3    0.71    0.09
   9   0   3    0.71    0.09
   9   0   3    0.77    0.10
   9   0   3    0.56    0.11
   9   0   3    0.65    0.08
   9   0   3    0.61    0.08
   9  -1  -3    0.08    0.06
   9  -1  -3    0.04    0.05
   9  -1  -3    0.10    0.07
   9  -1  -3    0.07    0.06
   9  -1  -3    0.07    0.06
  -9   1   3   -0.03    0.05
  -9   1   3    0.09    0.06
  -9   1   3    0.04    0.06
  -9   1   3    0.03    0.06
  -9   1   3    0.08    0.06
   8  -1  -3    0.93    0.10
   8  -1  -3    0.81    0.10
   8  -1  -3    1.21    0.11
   8  -1  -3    1.08    0.11
   8  -1  -3    1.08    0.11
  -8   1   3    0.92    0.10
  -8   1   3    1.19    0.12
  -8   1   3    0.91    0.10
  -8   1   3    1.05    0.11
  -8   1   3    1.19    0.12
  -8   1   3    1.15    0.11
   7  -1  -3    2.98    0.15
   7  -1  -3    3.06    0.16
   7  -1  -3    2.94    0.15
   7  -1  -3    3.29    0.14
   7  -1  -3    2.95    0.15
  -7   1   3    2.90    0.15
  -7   1   3    3.31    0.15
  -7   1   3    2.89    0.14
  -7   1   3    2.90    0.15
  -7   1   3    2.86    0.14
  -7   1   3    3.06    0.15
  -7   1   3    3.15    0.15
  -7   1   3    2.90    0.15
   6  -1  -3    6.46    0.21
   6  -1  -3    6.40    0.21
   6  -1  -3    6.30    0.22
   6  -1  -3    6.47    0.21
   6  -1  -3    6.35    0.20
   6  -1  -3    6.38    0.21
  -6   1   3    6.55    0.21
  -6   1   3    6.72    0.21
  -6   1   3    6.79    0.22
  -6   1   3    6.58    0.21
  -6   1   3    6.67    0.21
  -6   1   3    6.44    0.21
  -6   1   3    6.56    0.20
  -6   1   3    6.55    0.21
   5  -1  -3    8.84    0.25
   5  -1  -3    9.09    0.24
   5  -1  -3    8.85    0.23
   5  -1  -3    8.88    0.24
   5  -1  -3    8.89    0.25
   5  -1  -3    8.77    0.24
  -5   1   3    8.88    0.31
  -5   1   3    9.04    0.24
  -5   1   3    8.75    0.25
  -5   1   3    9.04    0.25
  -5   1   3    8.38    0.24
  -5   1   3    8.59    0.24
  -5   1   3    8.82    0.24
  -5   1   3    9.27    0.60
  -5   1   3    8.83    0.32
  -5   1   3    8.95    0.25
  -5   1   3    9.07    0.25
  -5   1   3    8.71    0.24
   4  -1  -3    0.00    0.03
   4  -1  -3   -0.02    0.02
   4  -1  -3    0.07    0.03
   4  -1  -3    0.05    0.03
   4  -1  -3    0.14    0.03
   4  -1  -3    0.07    0.03
   4  -1  -3    0.04    0.03
   4  -1  -3    0.03    0.02
  -4   1   3   -0.01    0.07
  -4   1   3    0.00    0.03
  -4   1   3    0.02    0.03
  -4   1   3   -0.01    0.03
  -4   1   3   -0.01    0.03
  -4   1   3   -0.01    0.04
  -4   1   3    0.05    0.03
  -4   1   3    0.00    0.02
  -4   1   3    0.05    0.03
  -4   1   3    0.02    0.02
  -4   1   3    0.00    0.02
  -4   1   3    0.02    0.02
   3  -1  -3  121.18    2.33
   3  -1  -3  119.64    2.34
   3  -1  -3  121.22    2.33
   3  -1  -3  118.59    2.32
   3  -1  -3  124.43    2.33
   3  -1  -3  123.23    2.33
   3  -1  -3  121.89    2.32
   3  -1  -3  120.87    2.33
  -3   1   3  120.97    2.32
  -3   1   3  122.76    2.40
  -3   1   3  120.47    2.32
  -3   1   3  121.60    2.32
  -3   1   3  125.51    2.82
  -3   1   3  122.34    2.32
  -3   1   3  126.32    2.80
  -3   1   3  125.73    2.39
  -3   1   3  121.19    2.32
  -3   1   3  120.62    2.33
  -3   1   3  121.52    2.33
  -3   1   3  122.01    2.33
   2  -1  -3    0.07    0.02
   2  -1  -3    0.08    0.02
   2  -1  -3    0.09    0.02
   2  -1  -3    0.11    0.02
   2  -1  -3    0.06    0.02
   2  -1  -3    0.11    0.03
  -2   1   3    0.11    0.02
  -2   1   3    0.08    0.03
  -2   1   3    0.08    0.02
  -2   1   3    0.05    0.06
  -2   1   3    0.09    0.02
  -2   1   3    0.07    0.02
  -2   1   3    0.07    0.02
  -2   1   3    0.13    0.09
  -2   1   3    0.07    0.02
  -2   1   3    0.11    0.04
  -2   1   3    0.08    0.02
  -2   1   3    0.08    0.02
   1  -1  -3   64.21    1.23
   1  -1  -3   65.45    1.22
   1  -1  -3   63.54    1.22
   1  -1  -3   63.42    1.23
  -1   1   3   65.25    1.25
  -1   1   3   64.11    1.22
  -1   1   3   65.08    1.23
  -1   1   3   64.86    1.44
  -1   1   3   64.70    1.22
  -1   1   3   65.13    1.22
  -1   1   3   64.14    1.45
  -1   1   3   63.99    1.22
  -1   1   3   62.52    1.21
  -1   1   3   64.23    1.23
  -1   1   3   63.45    1.21
  -1   1   3   64.21    1.25
   0  -1  -3    2.51    0.07
   0  -1  -3    2.46    0.07
   0   1   3    2.27    0.06
   0   1   3    2.27    0.09
   0   1   3    2.43    0.06
   0   1   3    2.59    0.07
   0   1   3    2.41    0.14
   0   1   3    2.46    0.06
   0   1   3    2.43    0.06
   0   1   3    2.56    0.06
   0   1   3    2.53    0.06
   0   1   3    2.09    0.14
  -1  -1  -3   10.58    0.22
   1   1   3   10.90    0.21
   1   1   3    9.09    0.30
   1   1   3   10.94    0.22
   1   1   3   10.69    0.21
   1   1   3   10.70    0.21
   1   1   3   10.93    0.21
   1   1   3   10.86    0.22
   1   1   3   10.34    0.31
   1   1   3   10.77    0.22
   1   1   3   10.18    0.25
  -2  -1  -3    9.33    0.21
  -2  -1  -3    9.43    0.20
  -2  -1  -3    9.10    0.20
   2   1   3    9.53    0.19
   2   1   3    9.32    0.21
   2   1   3    9.52    0.20
   2   1   3    9.42    0.19
   2   1   3    7.90    0.33
   2   1   3    8.56    0.33
   2   1   3    9.42    0.20
   2   1   3    8.85    0.23
   2   1   3    9.27    0.20
   2   1   3    9.54    0.19
   2   1   3    9.17    0.20
  -3  -1  -3    0.16    0.02
  -3  -1  -3    0.21    0.03
  -3  -1  -3    0.17    0.03
  -3  -1  -3    0.14    0.03
  -3  -1  -3    0.20    0.03
   3   1   3    0.17    0.03
   3   1   3    0.29    0.10
   3   1   3    0.13    0.02
   3   1   3    0.12    0.02
   3   1   3    0.15    0.03
   3   1   3    0.20    0.08
   3   1   3    0.18    0.03
   3   1   3    0.14    0.02
   3   1   3    0.15    0.02
   3   1   3    0.14    0.03
   3   1   3    0.12    0.02
   3   1   3    0.16    0.03
  -4  -1  -3    0.04    0.03
  -4  -1  -3    0.05    0.03
  -4  -1  -3    0.04    0.02
  -4  -1  -3    0.03    0.02
  -4  -1  -3    0.04    0.02
   4   1   3    0.02    0.02
   4   1   3    0.03    0.02
   4   1   3    0.00    0.02
   4   1   3    0.02    0.02
   4   1   3    0.04    0.02
   4   1   3    0.01    0.02
   4   1   3    0.03    0.03
   4   1   3    0.07    0.08
   4   1   3    0.06    0.07
   4   1   3    0.03    0.02
   4   1   3    0.03    0.03
   4   1   3    0.04    0.02
   4   1   3    0.05    0.03
  -5  -1  -3    7.26    0.21
  -5  -1  -3    7.54    0.20
  -5  -1  -3    7.39    0.21
  -5  -1  -3    7.57    0.19
  -5  -1  -3    7.54    0.20
   5   1   3    7.26    0.18
   5   1   3    7.58    0.25
   5   1   3    7.51    0.20
   5   1   3    7.75    0.25
   5   1   3    7.51    0.20
   5   1   3    7.21    0.19
   5   1   3    7.55    0.20
   5   1   3    7.79    0.21
   5   1   3    7.29    0.20
   5   1   3    7.16    0.47
   5   1   3    7.30    0.46
   5   1   3    7.56    0.20
  -6  -1  -3    0.54    0.06
  -6  -1  -3    0.62    0.07
  -6  -1  -3    0.56    0.06
  -6  -1  -3    0.46    0.06
  -6  -1  -3    0.75    0.07
   6   1   3    0.58    0.06
   6   1   3    0.65    0.20
   6   1   3    0.60    0.09
   6   1   3    0.56    0.08
   6   1   3    0.65    0.20
   6   1   3    0.47    0.06
   6   1   3    0.60    0.05
   6   1   3    0.59    0.06
   6   1   3    0.57    0.06
   6   1   3    0.60    0.07
   6   1   3    0.68    0.06
   6   1   3    0.55    0.06
  -7  -1  -3    9.68    0.27
  -7  -1  -3    9.79    0.29
  -7  -1  -3    9.22    0.27
  -7  -1  -3    9.09    0.27
   7   1   3    9.66    0.26
   7   1   3    9.35    0.26
   7   1   3    9.08    0.64
   7   1   3    9.47    0.26
   7   1   3    9.80    0.33
   7   1   3    9.74    0.28
   7   1   3    9.25    0.33
   7   1   3    9.31    0.26
   7   1   3    9.40    0.24
   7   1   3    9.11    0.26
   7   1   3    8.91    0.27
  -8  -1  -3    3.99    0.18
  -8  -1  -3    4.33    0.18
  -8  -1  -3    4.43    0.19
  -8  -1  -3    4.17    0.18
   8   1   3    4.12    0.17
   8   1   3    3.95    0.27
   8   1   3    4.32    0.23
   8   1   3    4.34    0.50
   8   1   3    4.38    0.15
   8   1   3    4.11    0.17
   8   1   3    4.19    0.27
   8   1   3    4.29    0.17
   8   1   3    4.39    0.18
   8   1   3    4.44    0.17
   8   1   3    4.32    0.17
  -9  -1  -3    0.08    0.06
  -9  -1  -3    0.08    0.06
  -9  -1  -3    0.09    0.06
  -9  -1  -3    0.05    0.06
   9   1   3    0.10    0.05
   9   1   3    0.10    0.04
   9   1   3    0.12    0.06
   9   1   3    0.14    0.06
   9   1   3    0.01    0.05
   9   1   3    0.04    0.05
   9   1   3    0.10    0.06
   9  -2  -3    0.40    0.09
   9  -2  -3    0.32    0.08
   9  -2  -3    0.20    0.08
   9  -2  -3    0.32    0.08
   9  -2  -3    0.54    0.09
  -9   2   3    0.44    0.09
  -9   2   3    0.35    0.08
  -9   2   3    0.35    0.09
  -9   2   3    0.23    0.08
   8  -2  -3    2.03    0.14
   8  -2  -3    1.98    0.13
   8  -2  -3    2.40    0.15
   8  -2  -3    2.02    0.15
   8  -2  -3    2.21    0.14
  -8   2   3    2.35    0.15
  -8   2   3    2.23    0.14
  -8   2   3    2.32    0.15
  -8   2   3    2.30    0.14
  -8   2   3    2.31    0.15
   7  -2  -3    0.35    0.07
   7  -2  -3    0.44    0.07
   7  -2  -3    0.31    0.07
   7  -2  -3    0.30    0.06
   7  -2  -3    0.27    0.07
  -7   2   3    0.26    0.06
  -7   2   3    0.44    0.07
  -7   2   3    0.44    0.07
  -7   2   3    0.34    0.07
  -7   2   3    0.28    0.06
  -7   2   3    0.24    0.06
  -7   2   3    0.38    0.07
   6  -2  -3    9.86    0.29
   6  -2  -3   10.72    0.30
   6  -2  -3   10.41    0.30
   6  -2  -3   10.64    0.28
   6  -2  -3   10.40    0.28
   6  -2  -3   10.27    0.29
   6  -2  -3   10.76    0.29
  -6   2   3   10.13    0.29
  -6   2   3   10.30    0.29
  -6   2   3   10.14    0.28
  -6   2   3   10.55    0.29
  -6   2   3    9.96    0.29
  -6   2   3    9.98    0.29
  -6   2   3   10.48    0.29
  -6   2   3   10.73    0.29
   5  -2  -3    0.45    0.06
   5  -2  -3    0.54    0.06
   5  -2  -3    0.36    0.06
   5  -2  -3    0.56    0.07
   5  -2  -3    0.50    0.06
   5  -2  -3    0.52    0.06
   5  -2  -3    0.51    0.06
   5  -2  -3    0.51    0.06
  -5   2   3    0.61    0.07
  -5   2   3    0.55    0.06
  -5   2   3    0.43    0.05
  -5   2   3    0.55    0.06
  -5   2   3    0.43    0.05
  -5   2   3    0.50    0.06
  -5   2   3    0.50    0.06
  -5   2   3    0.49    0.06
   4  -2  -3    2.20    0.10
   4  -2  -3    2.07    0.10
   4  -2  -3    2.04    0.10
   4  -2  -3    2.09    0.10
   4  -2  -3    2.14    0.09
   4  -2  -3    2.14    0.10
   4  -2  -3    2.17    0.09
   4  -2  -3    2.06    0.09
  -4   2   3    2.03    0.09
  -4   2   3    2.01    0.10
  -4   2   3    2.04    0.09
  -4   2   3    2.04    0.10
  -4   2   3    1.91    0.10
  -4   2   3    1.84    0.09
  -4   2   3    2.00    0.09
  -4   2   3    2.37    0.31
  -4   2   3    2.16    0.14
  -4   2   3    2.13    0.14
  -4   2   3    2.14    0.10
  -4   2   3    2.17    0.10
   3  -2  -3   23.74    0.50
   3  -2  -3   24.04    0.50
   3  -2  -3   23.28    0.49
   3  -2  -3   23.69    0.50
   3  -2  -3   23.38    0.50
   3  -2  -3   23.74    0.49
   3  -2  -3   23.89    0.50
   3  -2  -3   23.02    0.50
  -3   2   3   22.90    0.50
  -3   2   3   23.73    0.50
  -3   2   3   23.03    0.50
  -3   2   3   23.37    0.56
  -3   2   3   24.17    0.88
  -3   2   3   22.75    0.49
  -3   2   3   23.71    0.50
  -3   2   3   23.29    0.49
  -3   2   3   23.10    0.49
  -3   2   3   23.79    0.49
  -3   2   3   23.84    0.90
  -3   2   3   22.97    0.57
  -3   2   3   23.56    0.49
   2  -2  -3   24.64    0.50
   2  -2  -3   23.50    0.49
   2  -2  -3   23.75    0.49
   2  -2  -3   23.95    0.49
   2  -2  -3   23.15    0.50
   2  -2  -3   23.52    0.49
   2  -2  -3   23.83    0.49
  -2   2   3   24.09    0.49
  -2   2   3   23.58    0.49
  -2   2   3   24.66    0.84
  -2   2   3   23.47    0.49
  -2   2   3   23.47    0.49
  -2   2   3   24.23    0.49
  -2   2   3   23.34    0.55
  -2   2   3   24.46    0.81
  -2   2   3   23.77    0.49
  -2   2   3   23.92    0.54
  -2   2   3   23.92    0.49
  -2   2   3   23.71    0.49
   1  -2  -3   80.43    1.56
   1  -2  -3   81.89    1.56
   1  -2  -3   82.49    1.55
   1  -2  -3   81.52    1.56
   1  -2  -3   83.60    1.56
  -1   2   3   82.67    1.61
  -1   2   3   82.60    1.56
  -1   2   3   80.06    1.56
  -1   2   3   82.41    1.56
  -1   2   3   81.90    1.55
  -1   2   3   83.32    1.56
  -1   2   3   80.17    1.55
  -1   2   3   78.25    1.87
  -1   2   3   82.57    1.87
  -1   2   3   83.19    1.56
  -1   2   3   82.48    1.60
  -1   2   3   81.05    1.56
   0  -2  -3   13.64    0.29
   0  -2  -3   13.45    0.28
   0  -2  -3   13.60    0.29
   0  -2  -3   13.64    0.29
   0   2   3   13.25    0.31
   0   2   3   14.30    0.49
   0   2   3   13.81    0.32
   0   2   3   13.85    0.31
   0   2   3   14.11    0.28
   0   2   3   13.90    0.28
   0   2   3   13.51    0.29
   0   2   3   13.64    0.28
   0   2   3   13.69    0.28
   0   2   3   13.61    0.28
   0   2   3   13.66    0.28
   0   2   3   13.78    0.48
   0   2   3   13.31    0.28
  -1  -2  -3  484.75    9.26
  -1  -2  -3  485.67    9.22
  -1  -2  -3  485.01    9.20
   1   2   3  487.71    9.18
   1   2   3  491.46    9.39
   1   2   3  492.38    9.21
   1   2   3  491.42    9.20
   1   2   3  494.76    9.21
   1   2   3  464.07   10.38
   1   2   3  486.75    9.22
   1   2   3  493.62    9.18
   1   2   3  493.00    9.21
   1   2   3  496.76   10.49
   1   2   3  474.51    9.23
   1   2   3  482.67   10.28
   1   2   3  485.45    9.22
   1   2   3  499.07   10.45
  -2  -2  -3   29.64    0.60
  -2  -2  -3   29.28    0.60
  -2  -2  -3   29.20    0.59
  -2  -2  -3   28.74    0.58
   2   2   3   29.50    0.58
   2   2   3   30.09    0.58
   2   2   3   29.75    0.59
   2   2   3   29.24    0.59
   2   2   3   29.02    0.58
   2   2   3   29.27    0.59
   2   2   3   30.00    0.61
   2   2   3   28.58    0.59
   2   2   3   33.65    0.86
   2   2   3   28.89    0.59
   2   2   3   32.07    0.63
   2   2   3   28.95    0.59
  -3  -2  -3    7.29    0.18
  -3  -2  -3    7.32    0.19
  -3  -2  -3    7.34    0.18
  -3  -2  -3    7.52    0.19
  -3  -2  -3    7.10    0.17
   3   2   3    7.67    0.22
   3   2   3    7.90    0.41
   3   2   3    7.39    0.18
   3   2   3    7.38    0.18
   3   2   3    7.38    0.18
   3   2   3    7.38    0.18
   3   2   3    7.32    0.18
   3   2   3    7.30    0.18
   3   2   3    7.32    0.18
   3   2   3    7.23    0.17
   3   2   3    7.86    0.40
  -4  -2  -3   28.38    0.62
  -4  -2  -3   29.88    0.61
  -4  -2  -3   30.33    0.62
  -4  -2  -3   29.94    0.61
  -4  -2  -3   30.38    0.60
  -4  -2  -3   30.21    0.61
   4   2   3   30.34    0.62
   4   2   3   29.35    0.66
   4   2   3   29.45    0.61
   4   2   3   30.16    0.61
   4   2   3   30.51    0.99
   4   2   3   29.58    0.61
   4   2   3   30.40    0.99
   4   2   3   28.88    0.60
   4   2   3   29.76    0.61
   4   2   3   29.62    0.60
   4   2   3   29.10    0.61
  -5  -2  -3   10.91    0.27
  -5  -2  -3    9.96    0.27
  -5  -2  -3   10.94    0.26
  -5  -2  -3   10.84    0.26
  -5  -2  -3   10.89    0.27
  -5  -2  -3   11.01    0.26
  -5  -2  -3   10.32    0.27
  -5  -2  -3   10.85    0.28
   5   2   3   10.49    0.26
   5   2   3   10.68    0.26
   5   2   3   10.72    0.59
   5   2   3   11.02    0.26
   5   2   3   10.60    0.59
   5   2   3   10.34    0.26
   5   2   3   10.44    0.25
   5   2   3   11.00    0.33
   5   2   3    9.98    0.31
   5   2   3   10.80    0.27
   5   2   3   11.00    0.27
   5   2   3   10.86    0.26
  -6  -2  -3    0.11    0.03
  -6  -2  -3    0.15    0.04
  -6  -2  -3    0.08    0.04
  -6  -2  -3    0.13    0.04
  -6  -2  -3    0.07    0.04
   6   2   3    0.21    0.13
   6   2   3    0.12    0.04
   6   2   3    0.03    0.03
   6   2   3    0.14    0.04
   6   2   3    0.28    0.16
   6   2   3    0.12    0.06
   6   2   3    0.06    0.03
   6   2   3    0.09    0.04
   6   2   3    0.10    0.03
   6   2   3    0.14    0.04
   6   2   3    0.06    0.04
   6   2   3    0.07    0.04
  -7  -2  -3    8.73    0.26
  -7  -2  -3    9.02    0.25
  -7  -2  -3    9.20    0.27
  -7  -2  -3    8.78    0.27
  -7  -2  -3    8.92    0.26
   7   2   3    8.64    0.33
   7   2   3    8.87    0.26
   7   2   3    8.13    0.63
   7   2   3    8.73    0.25
   7   2   3    9.07    0.25
   7   2   3    9.24    0.24
   7   2   3    8.82    0.32
   7   2   3    8.96    0.26
   7   2   3    9.08    0.27
   7   2   3    8.86    0.25
   7   2   3    8.77    0.25
  -8  -2  -3   10.15    0.31
  -8  -2  -3   10.34    0.30
  -8  -2  -3    9.91    0.30
  -8  -2  -3    9.94    0.30
   8   2   3   10.22    0.30
   8   2   3   10.16    0.30
   8   2   3   10.09    0.29
   8   2   3   10.46    0.29
   8   2   3    9.93    0.27
   8   2   3   10.10    0.29
   8   2   3    9.75    0.29
   8   2   3   10.19    0.31
  -9  -2  -3    1.50    0.13
  -9  -2  -3    1.61    0.14
  -9  -2  -3    1.65    0.13
   9   2   3    1.86    0.14
   9   2   3    1.66    0.13
   9   2   3    1.40    0.12
   9   2   3    1.49    0.10
   9   2   3    1.69    0.12
   9   2   3    1.53    0.12
   9   2   3    1.50    0.12
   8  -3  -3    3.79    0.18
   8  -3  -3    3.73    0.19
   8  -3  -3    3.98    0.19
   8  -3  -3    3.85    0.18
   8  -3  -3    4.05    0.20
  -8   3   3    3.97    0.19
  -8   3   3    3.78    0.18
  -8   3   3    3.82    0.19
  -8   3   3    3.69    0.19
   7  -3  -3    1.19    0.11
   7  -3  -3    0.92    0.10
   7  -3  -3    1.09    0.11
   7  -3  -3    1.15    0.11
   7  -3  -3    1.06    0.11
  -7   3   3    0.94    0.10
  -7   3   3    1.11    0.10
  -7   3   3    1.34    0.12
  -7   3   3    1.34    0.11
   6  -3  -3   10.45    0.29
   6  -3  -3   10.38    0.28
   6  -3  -3   10.23    0.30
   6  -3  -3   10.40    0.29
   6  -3  -3   10.35    0.30
   6  -3  -3   10.80    0.30
   6  -3  -3   10.33    0.31
  -6   3   3   10.10    0.30
  -6   3   3   10.37    0.30
  -6   3   3   10.37    0.32
  -6   3   3   10.55    0.29
  -6   3   3   10.69    0.30
  -6   3   3   10.11    0.29
  -6   3   3   10.47    0.29
   5  -3  -3   13.45    0.35
   5  -3  -3   13.71    0.35
   5  -3  -3   13.29    0.34
   5  -3  -3   13.56    0.33
   5  -3  -3   13.36    0.34
   5  -3  -3   13.07    0.34
   5  -3  -3   13.94    0.34
   5  -3  -3   13.31    0.34
  -5   3   3   13.74    0.34
  -5   3   3   13.64    0.34
  -5   3   3   13.82    0.35
  -5   3   3   13.06    0.34
  -5   3   3   13.31    0.34
  -5   3   3   13.68    0.34
   4  -3  -3    2.97    0.12
   4  -3  -3    3.08    0.12
   4  -3  -3    2.99    0.12
   4  -3  -3    2.94    0.12
   4  -3  -3    2.97    0.13
   4  -3  -3    3.08    0.12
   4  -3  -3    2.99    0.12
   4  -3  -3    2.91    0.12
  -4   3   3    3.19    0.12
  -4   3   3    3.20    0.13
  -4   3   3    2.91    0.12
  -4   3   3    3.00    0.12
  -4   3   3    3.15    0.35
  -4   3   3    2.81    0.12
  -4   3   3    2.76    0.12
  -4   3   3    2.93    0.12
  -4   3   3    3.04    0.18
   3  -3  -3   16.40    0.38
   3  -3  -3   16.56    0.38
   3  -3  -3   16.62    0.37
   3  -3  -3   16.91    0.38
   3  -3  -3   17.16    0.38
   3  -3  -3   16.75    0.39
   3  -3  -3   17.01    0.38
   3  -3  -3   17.02    0.37
  -3   3   3   17.04    0.38
  -3   3   3   16.93    0.75
  -3   3   3   16.42    0.38
  -3   3   3   17.13    0.38
  -3   3   3   16.36    0.38
  -3   3   3   16.72    0.38
  -3   3   3   16.62    0.46
  -3   3   3   16.88    0.78
  -3   3   3   16.96    0.45
  -3   3   3   16.90    0.38
  -3   3   3   16.71    0.38
   2  -3  -3    1.25    0.06
   2  -3  -3    1.25    0.07
   2  -3  -3    1.25    0.06
   2  -3  -3    1.43    0.07
   2  -3  -3    1.38    0.07
   2  -3  -3    1.26    0.07
  -2   3   3    1.25    0.20
  -2   3   3    1.52    0.23
  -2   3   3    1.31    0.07
  -2   3   3    1.36    0.07
  -2   3   3    1.39    0.10
  -2   3   3    1.37    0.07
  -2   3   3    1.35    0.07
  -2   3   3    1.31    0.07
  -2   3   3    1.33    0.07
  -2   3   3    1.35    0.07
  -2   3   3    1.36    0.10
  -2   3   3    1.29    0.07
   1  -3  -3   43.45    0.86
   1  -3  -3   44.13    0.86
   1  -3  -3   44.79    0.86
   1  -3  -3   43.69    0.85
   1  -3  -3   43.76    0.85
   1  -3  -3   44.29    0.86
   1  -3  -3   43.62    0.86
   1  -3  -3   43.02    0.86
  -1   3   3   44.25    0.85
  -1   3   3   43.06    0.86
  -1   3   3   44.02    0.86
  -1   3   3   42.83    0.85
  -1   3   3   43.98    0.85
  -1   3   3   42.78    0.85
  -1   3   3   41.84    1.21
  -1   3   3   41.92    0.92
  -1   3   3   42.46    0.86
  -1   3   3   43.22    0.85
   0  -3  -3    4.82    0.13
   0  -3  -3    4.61    0.12
   0  -3  -3    4.43    0.13
   0  -3  -3    4.51    0.12
   0  -3  -3    4.60    0.13
   0  -3  -3    4.73    0.13
   0   3   3    4.47    0.12
   0   3   3    4.41    0.12
   0   3   3    4.53    0.12
   0   3   3    4.56    0.16
   0   3   3    4.83    0.17
   0   3   3    4.61    0.12
   0   3   3    4.66    0.12
   0   3   3    4.44    0.12
   0   3   3    4.74    0.13
   0   3   3    5.01    0.32
   0   3   3    5.05    0.32
   0   3   3    4.53    0.13
  -1  -3  -3    5.87    0.15
  -1  -3  -3    6.22    0.15
  -1  -3  -3    6.07    0.15
  -1  -3  -3    6.01    0.16
   1   3   3    7.15    0.36
   1   3   3    6.44    0.16
   1   3   3    5.84    0.15
   1   3   3    6.21    0.19
   1   3   3    5.72    0.15
   1   3   3    5.78    0.15
   1   3   3    5.91    0.15
   1   3   3    5.88    0.15
   1   3   3    5.87    0.15
   1   3   3    5.98    0.15
   1   3   3    5.69    0.15
   1   3   3    6.01    0.15
  -2  -3  -3   18.13    0.37
  -2  -3  -3   18.22    0.37
  -2  -3  -3   17.93    0.39
  -2  -3  -3   19.11    0.38
  -2  -3  -3   18.81    0.39
   2   3   3   18.48    0.38
   2   3   3   18.36    0.38
   2   3   3   18.20    0.37
   2   3   3   18.63    0.38
   2   3   3   18.24    0.38
   2   3   3   16.66    0.42
   2   3   3   18.37    0.38
   2   3   3   17.65    0.37
   2   3   3   17.67    0.38
   2   3   3   18.37    0.37
   2   3   3   16.24    0.65
   2   3   3   15.29    0.63
   2   3   3   18.29    0.38
  -3  -3  -3    0.92    0.06
  -3  -3  -3    0.87    0.06
  -3  -3  -3    0.94    0.05
  -3  -3  -3    0.87    0.06
  -3  -3  -3    0.84    0.06
  -3  -3  -3    0.86    0.05
   3   3   3    0.82    0.17
   3   3   3    0.88    0.06
   3   3   3    0.83    0.05
   3   3   3    0.75    0.05
   3   3   3    0.82    0.06
   3   3   3    0.85    0.06
   3   3   3    0.85    0.06
   3   3   3    0.86    0.05
   3   3   3    0.85    0.05
   3   3   3    0.89    0.08
  -4  -3  -3    0.35    0.04
  -4  -3  -3    0.30    0.04
  -4  -3  -3    0.27    0.04
  -4  -3  -3    0.21    0.03
  -4  -3  -3    0.32    0.04
  -4  -3  -3    0.33    0.04
  -4  -3  -3    0.27    0.04
  -4  -3  -3    0.23    0.04
   4   3   3    0.27    0.04
   4   3   3    0.30    0.04
   4   3   3    0.26    0.04
   4   3   3    0.31    0.04
   4   3   3    0.11    0.10
   4   3   3    0.17    0.11
   4   3   3    0.26    0.04
   4   3   3    0.25    0.04
   4   3   3    0.26    0.03
   4   3   3    0.27    0.06
   4   3   3    0.27    0.04
  -5  -3  -3    8.46    0.23
  -5  -3  -3    8.73    0.22
  -5  -3  -3    8.91    0.23
  -5  -3  -3    8.81    0.23
  -5  -3  -3    8.70    0.23
  -5  -3  -3    8.44    0.24
  -5  -3  -3    8.80    0.22
  -5  -3  -3    8.73    0.24
   5   3   3    8.58    0.23
   5   3   3    8.62    0.23
   5   3   3    8.94    0.23
   5   3   3    8.91    0.30
   5   3   3    8.68    0.23
   5   3   3    8.55    0.23
   5   3   3    8.47    0.23
   5   3   3    8.62    0.22
   5   3   3    8.41    0.54
   5   3   3    8.71    0.22
   5   3   3    8.17    0.54
   5   3   3    8.30    0.29
  -6  -3  -3    0.00    0.03
  -6  -3  -3   -0.01    0.03
  -6  -3  -3    0.01    0.03
  -6  -3  -3   -0.01    0.03
  -6  -3  -3    0.06    0.04
  -6  -3  -3    0.02    0.03
   6   3   3    0.02    0.03
   6   3   3   -0.01    0.10
   6   3   3    0.03    0.03
   6   3   3    0.02    0.05
   6   3   3    0.02    0.04
   6   3   3   -0.01    0.03
   6   3   3    0.07    0.03
   6   3   3    0.03    0.03
   6   3   3    0.02    0.04
   6   3   3    0.00    0.03
   6   3   3    0.03    0.03
  -7  -3  -3   -0.02    0.04
  -7  -3  -3    0.02    0.04
  -7  -3  -3   -0.03    0.04
  -7  -3  -3    0.06    0.04
  -7  -3  -3    0.00    0.04
   7   3   3   -0.03    0.04
   7   3   3   -0.01    0.04
   7   3   3    0.05    0.04
   7   3   3   -0.01    0.04
   7   3   3    0.07    0.04
   7   3   3   -0.03    0.04
   7   3   3    0.05    0.04
   7   3   3   -0.01    0.03
   7   3   3   -0.02    0.04
  -8  -3  -3    8.12    0.28
  -8  -3  -3    7.89    0.26
  -8  -3  -3    7.79    0.26
  -8  -3  -3    8.17    0.26
   8   3   3    7.92    0.26
   8   3   3    8.12    0.24
   8   3   3    8.00    0.26
   8   3   3    8.01    0.25
   8   3   3    8.21    0.25
   8   3   3    7.78    0.27
   8   3   3    7.99    0.25
   8   3   3    8.13    0.26
  -9  -3  -3    7.29    0.26
  -9  -3  -3    7.33    0.27
  -9  -3  -3    7.47    0.27
   9   3   3    7.47    0.25
   9   3   3    7.20    0.25
   9   3   3    7.72    0.27
   9   3   3    7.16    0.25
   9   3   3    7.39    0.24
   9   3   3    7.06    0.25
   9   3   3    7.63    0.26
   9   3   3    7.64    0.27
   8  -4  -3    2.01    0.15
   8  -4  -3    1.67    0.13
   8  -4  -3    2.06    0.14
   8  -4  -3    1.87    0.15
   8  -4  -3    1.70    0.14
  -8   4   3    2.05    0.15
  -8   4   3    2.00    0.16
  -8   4   3    2.10    0.16
  -8   4   3    1.79    0.13
   7  -4  -3    0.14    0.06
   7  -4  -3    0.02    0.05
   7  -4  -3    0.17    0.06
   7  -4  -3    0.19    0.06
   7  -4  -3    0.09    0.05
  -7   4   3    0.08    0.06
  -7   4   3    0.14    0.06
  -7   4   3    0.17    0.06
  -7   4   3    0.13    0.06
   6  -4  -3   25.06    0.58
   6  -4  -3   25.09    0.57
   6  -4  -3   25.04    0.60
   6  -4  -3   24.09    0.58
   6  -4  -3   24.92    0.59
   6  -4  -3   25.24    0.59
   6  -4  -3   24.52    0.58
  -6   4   3   24.81    0.58
  -6   4   3   25.50    0.58
  -6   4   3   24.18    0.59
  -6   4   3   24.36    0.58
  -6   4   3   27.31    0.68
   5  -4  -3   10.36    0.28
   5  -4  -3   10.13    0.28
   5  -4  -3   10.55    0.28
   5  -4  -3   10.01    0.29
   5  -4  -3    9.98    0.28
   5  -4  -3   10.17    0.29
   5  -4  -3   10.20    0.29
   5  -4  -3    9.97    0.29
  -5   4   3   10.31    0.29
  -5   4   3   10.30    0.28
  -5   4   3    9.88    0.28
  -5   4   3   10.07    0.30
  -5   4   3   10.08    0.28
  -5   4   3   10.15    0.29
  -5   4   3   10.01    0.29
   4  -4  -3    3.70    0.14
   4  -4  -3    3.38    0.14
   4  -4  -3    3.36    0.14
   4  -4  -3    3.43    0.13
   4  -4  -3    3.72    0.14
   4  -4  -3    3.42    0.13
   4  -4  -3    3.39    0.13
  -4   4   3    3.46    0.13
  -4   4   3    3.62    0.14
  -4   4   3    3.31    0.14
  -4   4   3    3.37    0.13
  -4   4   3    3.30    0.14
  -4   4   3    3.35    0.13
  -4   4   3    3.23    0.14
   3  -4  -3   12.66    0.31
   3  -4  -3   12.97    0.32
   3  -4  -3   13.25    0.73
   3  -4  -3   12.57    0.31
   3  -4  -3   13.12    0.31
   3  -4  -3   12.52    0.31
   3  -4  -3   13.26    0.32
   3  -4  -3   12.91    0.31
   3  -4  -3   12.63    0.32
  -3   4   3   13.17    0.32
  -3   4   3   12.86    0.31
  -3   4   3   12.95    0.31
  -3   4   3   12.30    0.67
  -3   4   3   12.53    0.31
  -3   4   3   12.86    0.40
  -3   4   3   12.81    0.31
  -3   4   3   12.55    0.31
  -3   4   3   12.74    0.31
   2  -4  -3   28.41    0.61
   2  -4  -3   28.73    0.60
   2  -4  -3   28.35    0.61
   2  -4  -3   28.09    0.60
   2  -4  -3   30.25    0.62
   2  -4  -3   29.49    0.61
   2  -4  -3   29.94    0.61
   2  -4  -3   29.08    0.60
  -2   4   3   28.62    0.60
  -2   4   3   27.94    0.60
  -2   4   3   28.49    0.60
  -2   4   3   31.27    1.07
  -2   4   3   28.95    0.61
  -2   4   3   29.74    0.61
  -2   4   3   28.61    0.61
   1  -4  -3   21.66    0.47
   1  -4  -3   21.74    0.46
   1  -4  -3   21.60    0.47
   1  -4  -3   22.31    0.46
   1  -4  -3   21.85    0.46
   1  -4  -3   21.75    0.46
   1  -4  -3   22.29    0.47
   1  -4  -3   22.23    0.48
  -1   4   3   22.01    0.46
  -1   4   3   21.89    0.47
  -1   4   3   22.15    0.46
  -1   4   3   21.94    0.47
  -1   4   3   21.52    0.46
  -1   4   3   22.16    0.46
  -1   4   3   22.24    0.47
  -1   4   3   21.94    0.84
  -1   4   3   19.97    0.91
  -1   4   3   22.01    0.54
   0  -4  -3   26.88    0.57
   0  -4  -3   27.02    0.58
   0  -4  -3   26.58    0.56
   0  -4  -3   27.75    0.57
   0  -4  -3   27.61    0.57
   0  -4  -3   26.87    0.56
   0  -4  -3   28.41    0.57
   0   4   3   26.27    0.57
   0   4   3   27.56    0.57
   0   4   3   28.79    0.57
   0   4   3   26.68    0.56
   0   4   3   29.18    0.64
   0   4   3   26.73    0.56
   0   4   3   27.08    0.56
   0   4   3   27.45    0.57
   0   4   3   31.84    0.98
  -1  -4  -3   87.88    1.68
  -1  -4  -3   84.26    1.66
  -1  -4  -3   87.49    1.68
  -1  -4  -3   87.22    1.67
  -1  -4  -3   87.20    1.68
   1   4   3   86.62    1.67
   1   4   3   88.43    1.67
   1   4   3   83.25    1.67
   1   4   3   85.21    1.67
   1   4   3   87.91    1.67
   1   4   3   89.30    1.67
   1   4   3   91.23    2.12
   1   4   3   82.61    1.67
   1   4   3   85.39    1.67
   1   4   3   95.20    2.15
   1   4   3   85.11    1.67
  -2  -4  -3   23.79    0.50
  -2  -4  -3   23.89    0.51
  -2  -4  -3   24.44    0.50
  -2  -4  -3   23.56    0.50
  -2  -4  -3   24.20    0.50
  -2  -4  -3   23.79    0.50
   2   4   3   24.31    0.57
   2   4   3   23.73    0.50
   2   4   3   23.55    0.50
   2   4   3   23.47    0.50
   2   4   3   25.25    0.89
   2   4   3   24.17    0.48
   2   4   3   23.78    0.50
   2   4   3   24.06    0.50
   2   4   3   23.97    0.50
   2   4   3   24.24    0.50
   2   4   3   24.61    0.51
  -3  -4  -3    4.48    0.15
  -3  -4  -3    4.30    0.14
  -3  -4  -3    4.53    0.14
  -3  -4  -3    4.65    0.13
  -3  -4  -3    4.61    0.14
  -3  -4  -3    4.41    0.13
   3   4   3    4.60    0.14
   3   4   3    4.49    0.14
   3   4   3    4.63    0.13
   3   4   3    4.51    0.13
   3   4   3    4.93    0.37
   3   4   3    4.50    0.14
   3   4   3    4.56    0.14
   3   4   3    4.54    0.18
   3   4   3    4.49    0.14
  -4  -4  -3    7.53    0.21
  -4  -4  -3    7.58    0.21
  -4  -4  -3    8.04    0.21
  -4  -4  -3    7.74    0.21
  -4  -4  -3    7.43    0.21
  -4  -4  -3    7.87    0.20
  -4  -4  -3    7.45    0.20
   4   4   3    7.85    0.21
   4   4   3    7.89    0.20
   4   4   3    7.73    0.20
   4   4   3    7.62    0.20
   4   4   3    7.28    0.20
   4   4   3    7.15    0.49
   4   4   3    7.62    0.21
   4   4   3    7.44    0.50
   4   4   3    7.27    0.20
   4   4   3    7.12    0.26
   4   4   3    7.71    0.20
  -5  -4  -3    0.72    0.07
  -5  -4  -3    0.61    0.07
  -5  -4  -3    0.76    0.07
  -5  -4  -3    0.52    0.06
  -5  -4  -3    0.71    0.07
  -5  -4  -3    0.75    0.08
  -5  -4  -3    0.70    0.06
  -5  -4  -3    0.62    0.06
   5   4   3    0.76    0.07
   5   4   3    0.68    0.20
   5   4   3    0.72    0.07
   5   4   3    0.67    0.20
   5   4   3    0.64    0.06
   5   4   3    0.70    0.06
   5   4   3    0.74    0.11
   5   4   3    0.54    0.06
   5   4   3    0.74    0.07
   5   4   3    0.76    0.07
   5   4   3    0.64    0.06
  -6  -4  -3    0.30    0.05
  -6  -4  -3    0.27    0.06
  -6  -4  -3    0.19    0.05
  -6  -4  -3    0.17    0.05
  -6  -4  -3    0.24    0.05
  -6  -4  -3    0.39    0.06
   6   4   3    0.26    0.04
   6   4   3    0.32    0.05
   6   4   3    0.22    0.04
   6   4   3    0.13    0.14
   6   4   3    0.22    0.05
   6   4   3    0.24    0.05
   6   4   3    0.22    0.07
   6   4   3    0.26    0.05
   6   4   3    0.19    0.05
   6   4   3    0.21    0.05
  -7  -4  -3    0.19    0.05
  -7  -4  -3    0.11    0.05
  -7  -4  -3    0.16    0.05
  -7  -4  -3    0.25    0.09
  -7  -4  -3    0.13    0.04
  -7  -4  -3    0.14    0.05
   7   4   3    0.21    0.05
   7   4   3    0.16    0.06
   7   4   3    0.22    0.05
   7   4   3    0.21    0.05
   7   4   3    0.11    0.05
   7   4   3    0.11    0.05
   7   4   3    0.09    0.04
   7   4   3    0.10    0.05
  -8  -4  -3   13.56    0.39
  -8  -4  -3   14.84    0.40
  -8  -4  -3   14.15    0.39
  -8  -4  -3   14.34    0.37
   8   4   3   14.10    0.37
   8   4   3   14.11    0.38
   8   4   3   14.04    0.38
   8   4   3   14.43    0.37
   8   4   3   13.75    0.38
   8   4   3   14.97    0.39
   8   4   3   14.08    0.39
   8   4   3   14.29    0.38
  -9  -4  -3    0.02    0.05
  -9  -4  -3   -0.05    0.05
  -9  -4  -3    0.01    0.05
   9   4   3   -0.01    0.05
   9   4   3   -0.06    0.05
   9   4   3    0.05    0.04
   9   4   3    0.01    0.05
   9   4   3    0.04    0.06
   9   4   3   -0.02    0.05
   9   4   3   -0.01    0.05
   9   4   3    0.02    0.05
   7  -5  -3    0.01    0.05
   7  -5  -3    0.10    0.06
   7  -5  -3    0.07    0.06
   7  -5  -3    0.14    0.06
  -7   5   3    0.16    0.07
  -7   5   3    0.06    0.05
  -7   5   3    0.11    0.07
  -7   5   3    0.08    0.05
   6  -5  -3    0.32    0.07
   6  -5  -3    0.28    0.07
   6  -5  -3    0.48    0.07
   6  -5  -3    0.27    0.07
   6  -5  -3    0.48    0.07
   6  -5  -3    0.49    0.08
   6  -5  -3    0.41    0.08
  -6   5   3    0.36    0.07
  -6   5   3    0.44    0.08
  -6   5   3    0.35    0.07
  -6   5   3    0.48    0.08
   5  -5  -3    7.73    0.24
   5  -5  -3    8.40    0.26
   5  -5  -3    8.00    0.26
   5  -5  -3    8.59    0.25
   5  -5  -3    7.85    0.25
   5  -5  -3    8.31    0.25
   5  -5  -3    8.28    0.25
  -5   5   3    7.97    0.25
  -5   5   3    8.22    0.25
  -5   5   3    7.99    0.28
  -5   5   3    7.97    0.25
  -5   5   3    8.02    0.25
   4  -5  -3    0.19    0.05
   4  -5  -3    0.15    0.05
   4  -5  -3    0.22    0.05
   4  -5  -3    0.18    0.05
   4  -5  -3    0.20    0.05
   4  -5  -3    0.15    0.04
   4  -5  -3    0.22    0.05
  -4   5   3    0.18    0.05
  -4   5   3    0.18    0.05
  -4   5   3    0.26    0.05
  -4   5   3    0.19    0.04
  -4   5   3    0.24    0.05
  -4   5   3    0.24    0.06
   3  -5  -3    4.83    0.16
   3  -5  -3    5.04    0.18
   3  -5  -3    4.89    0.17
   3  -5  -3    5.15    0.16
   3  -5  -3    4.92    0.17
   3  -5  -3    5.12    0.16
  -3   5   3    4.87    0.16
  -3   5   3    5.05    0.16
  -3   5   3    4.80    0.17
  -3   5   3    5.06    0.16
  -3   5   3    5.13    0.17
  -3   5   3    5.23    0.17
  -3   5   3    4.78    0.17
   2  -5  -3    0.06    0.04
   2  -5  -3    0.08    0.03
   2  -5  -3    0.07    0.03
   2  -5  -3    0.01    0.02
   2  -5  -3    0.01    0.09
   2  -5  -3    0.01    0.03
   2  -5  -3    0.07    0.03
   2  -5  -3    0.02    0.03
   2  -5  -3    0.05    0.03
  -2   5   3    0.03    0.03
  -2   5   3    0.06    0.04
  -2   5   3    0.07    0.03
  -2   5   3    0.04    0.10
  -2   5   3    0.07    0.03
  -2   5   3    0.09    0.04
  -2   5   3    0.01    0.03
  -2   5   3    0.02    0.03
   1  -5  -3    4.13    0.13
   1  -5  -3    4.18    0.14
   1  -5  -3    4.22    0.14
   1  -5  -3    4.47    0.14
   1  -5  -3    4.51    0.15
   1  -5  -3    4.16    0.13
   1  -5  -3    3.81    0.38
  -1   5   3    4.22    0.14
  -1   5   3    4.22    0.14
  -1   5   3    4.08    0.13
  -1   5   3    4.65    0.24
  -1   5   3    4.04    0.14
  -1   5   3    4.10    0.14
  -1   5   3    3.98    0.37
  -1   5   3    4.32    0.14
   0  -5  -3    1.08    0.07
   0  -5  -3    1.05    0.07
   0  -5  -3    1.12    0.06
   0  -5  -3    0.98    0.07
   0  -5  -3    1.12    0.06
   0  -5  -3    0.89    0.21
   0  -5  -3    0.86    0.06
   0   5   3    0.98    0.06
   0   5   3    1.08    0.07
   0   5   3    0.96    0.06
   0   5   3    0.97    0.06
   0   5   3    0.92    0.07
   0   5   3    0.94    0.20
   0   5   3    1.14    0.07
  -1  -5  -3    1.66    0.08
  -1  -5  -3    1.69    0.08
  -1  -5  -3    1.74    0.09
  -1  -5  -3    1.59    0.07
   1   5   3    1.75    0.08
   1   5   3    1.50    0.08
   1   5   3    1.21    0.26
   1   5   3    1.87    0.08
   1   5   3    1.69    0.08
   1   5   3    1.65    0.08
   1   5   3    1.24    0.11
   1   5   3    1.70    0.08
  -2  -5  -3   34.01    0.70
  -2  -5  -3   34.14    0.70
  -2  -5  -3   34.28    0.70
  -2  -5  -3   33.49    0.71
  -2  -5  -3   35.34    0.72
  -2  -5  -3   34.96    0.71
   2   5   3   34.02    0.71
   2   5   3   35.83    1.30
   2   5   3   34.30    0.67
   2   5   3   34.85    1.18
   2   5   3   33.62    0.70
   2   5   3   34.24    0.79
   2   5   3   33.92    0.70
   2   5   3   34.02    0.70
   2   5   3   34.45    0.71
   2   5   3   34.83    0.71
   2   5   3   34.58    0.70
   2   5   3   33.28    0.70
  -3  -5  -3   18.41    0.42
  -3  -5  -3   18.07    0.40
  -3  -5  -3   17.90    0.41
  -3  -5  -3   18.21    0.40
  -3  -5  -3   17.82    0.41
  -3  -5  -3   17.92    0.41
  -3  -5  -3   18.41    0.41
   3   5   3   18.70    0.49
   3   5   3   17.53    0.40
   3   5   3   18.86    0.82
   3   5   3   17.59    0.41
   3   5   3   18.34    0.41
   3   5   3   18.32    0.41
   3   5   3   18.47    0.82
   3   5   3   18.04    0.40
   3   5   3   18.11    0.40
   3   5   3   18.12    0.40
   3   5   3   17.72    0.41
  -4  -5  -3    7.71    0.21
  -4  -5  -3    7.48    0.22
  -4  -5  -3    8.40    0.23
  -4  -5  -3    7.47    0.22
  -4  -5  -3    7.53    0.21
  -4  -5  -3    7.57    0.21
  -4  -5  -3    7.51    0.22
   4   5   3    7.18    0.21
   4   5   3    7.48    0.21
   4   5   3    7.88    0.21
   4   5   3    7.54    0.21
   4   5   3    7.37    0.22
   4   5   3    7.60    0.21
   4   5   3    7.58    0.21
   4   5   3    9.00    0.29
   4   5   3    7.46    0.21
  -5  -5  -3    3.56    0.14
  -5  -5  -3    3.22    0.13
  -5  -5  -3    3.20    0.13
  -5  -5  -3    3.39    0.13
  -5  -5  -3    3.36    0.13
  -5  -5  -3    3.13    0.14
  -5  -5  -3    3.39    0.14
  -5  -5  -3    3.59    0.15
   5   5   3    3.65    0.14
   5   5   3    3.45    0.13
   5   5   3    3.43    0.13
   5   5   3    3.31    0.14
   5   5   3    3.52    0.14
   5   5   3    3.28    0.13
   5   5   3    3.50    0.41
   5   5   3    3.44    0.13
   5   5   3    3.32    0.13
  -6  -5  -3    4.37    0.16
  -6  -5  -3    4.17    0.17
  -6  -5  -3    4.19    0.17
  -6  -5  -3    3.88    0.16
  -6  -5  -3    4.00    0.16
  -6  -5  -3    3.98    0.15
  -6  -5  -3    4.28    0.16
   6   5   3    4.42    0.16
   6   5   3    4.21    0.17
   6   5   3    4.36    0.16
   6   5   3    4.20    0.16
   6   5   3    4.34    0.16
   6   5   3    4.30    0.17
   6   5   3    4.07    0.16
   6   5   3    4.07    0.15
  -7  -5  -3    1.96    0.12
  -7  -5  -3    2.19    0.12
  -7  -5  -3    2.26    0.13
  -7  -5  -3    2.19    0.12
  -7  -5  -3    2.20    0.13
   7   5   3    2.14    0.12
   7   5   3    2.09    0.12
   7   5   3    2.19    0.13
   7   5   3    2.12    0.13
   7   5   3    2.11    0.12
   7   5   3    2.21    0.12
   7   5   3    2.13    0.12
   7   5   3    2.29    0.12
  -8  -5  -3    2.27    0.14
  -8  -5  -3    2.33    0.14
  -8  -5  -3    2.18    0.14
  -8  -5  -3    2.25    0.13
   8   5   3    2.16    0.13
   8   5   3    2.10    0.13
   8   5   3    2.23    0.14
   8   5   3    2.57    0.15
   8   5   3    2.38    0.14
   8   5   3    2.35    0.14
   8   5   3    2.29    0.13
   8   5   3    2.34    0.13
  -9  -5  -3    5.36    0.23
  -9  -5  -3    5.45    0.23
  -9  -5  -3    5.69    0.23
   9   5   3    5.45    0.22
   9   5   3    5.57    0.21
   9   5   3    5.64    0.22
   9   5   3    5.62    0.22
   9   5   3    5.62    0.24
   9   5   3    5.83    0.23
   9   5   3    5.79    0.22
   9   5   3    5.62    0.23
   7  -6  -3    0.00    0.05
   7  -6  -3    0.01    0.05
   7  -6  -3    0.03    0.06
   7  -6  -3   -0.06    0.05
   7  -6  -3   -0.02    0.05
  -7   6   3    0.01    0.06
  -7   6   3   -0.02    0.06
   6  -6  -3    0.44    0.07
   6  -6  -3    0.30    0.07
   6  -6  -3    0.42    0.07
   6  -6  -3    0.35    0.08
   6  -6  -3    0.32    0.07
   6  -6  -3    0.30    0.07
   6  -6  -3    0.34    0.07
  -6   6   3    0.41    0.08
  -6   6   3    0.32    0.07
  -6   6   3    0.42    0.07
   5  -6  -3    9.37    0.28
   5  -6  -3   10.01    0.29
   5  -6  -3    9.70    0.29
   5  -6  -3   10.02    0.30
   5  -6  -3    9.44    0.29
   5  -6  -3    9.93    0.31
   5  -6  -3    9.56    0.29
  -5   6   3    9.71    0.30
  -5   6   3    9.95    0.30
  -5   6   3    9.83    0.29
  -5   6   3   10.11    0.30
   4  -6  -3    1.79    0.11
   4  -6  -3    1.97    0.11
   4  -6  -3    2.05    0.12
   4  -6  -3    1.84    0.11
   4  -6  -3    1.89    0.12
   4  -6  -3    1.74    0.11
   4  -6  -3    1.73    0.11
  -4   6   3    1.94    0.12
  -4   6   3    2.03    0.12
  -4   6   3    1.72    0.11
  -4   6   3    2.02    0.12
   3  -6  -3    0.18    0.04
   3  -6  -3    0.18    0.05
   3  -6  -3    0.19    0.04
   3  -6  -3    0.12    0.05
   3  -6  -3    0.16    0.05
   3  -6  -3    0.24    0.05
   3  -6  -3    0.15    0.04
  -3   6   3    0.16    0.05
  -3   6   3    0.15    0.05
  -3   6   3    0.20    0.05
  -3   6   3    0.20    0.05
  -3   6   3    0.22    0.05
  -3   6   3    0.22    0.05
   2  -6  -3    0.03    0.03
   2  -6  -3    0.00    0.03
   2  -6  -3   -0.01    0.03
   2  -6  -3    0.01    0.04
   2  -6  -3   -0.02    0.03
   2  -6  -3    0.02    0.03
   2  -6  -3   -0.01    0.03
  -2   6   3   -0.01    0.03
  -2   6   3   -0.04    0.02
  -2   6   3   -0.03    0.03
  -2   6   3    0.03    0.03
  -2   6   3   -0.04    0.03
  -2   6   3    0.01    0.03
  -2   6   3    0.00    0.03
   1  -6  -3    7.07    0.21
   1  -6  -3    7.29    0.20
   1  -6  -3    6.26    0.52
   1  -6  -3    7.77    0.22
   1  -6  -3    7.21    0.21
   1  -6  -3    7.32    0.21
   1  -6  -3    7.49    0.21
  -1   6   3    8.05    0.22
  -1   6   3    7.40    0.21
  -1   6   3    7.67    0.21
  -1   6   3    7.28    0.21
  -1   6   3    7.38    0.21
  -1   6   3    7.26    0.21
  -1   6   3    7.46    0.21
   0  -6  -3    1.86    0.10
   0  -6  -3    1.88    0.10
   0  -6  -3    1.87    0.10
   0  -6  -3    1.85    0.09
   0  -6  -3    1.85    0.09
   0  -6  -3    1.75    0.10
   0   6   3    1.64    0.09
   0   6   3    1.77    0.09
   0   6   3    2.23    0.30
   0   6   3    1.92    0.10
   0   6   3    1.71    0.09
   0   6   3    1.88    0.10
   0   6   3    2.13    0.10
   0   6   3    1.79    0.09
  -1  -6  -3   78.46    1.53
  -1  -6  -3   77.56    1.51
  -1  -6  -3   79.44    1.52
  -1  -6  -3   77.21    1.52
  -1  -6  -3   79.50    1.54
   1   6   3   78.57    1.52
   1   6   3   78.34    1.52
   1   6   3   77.94    1.52
   1   6   3   78.03    1.52
   1   6   3   77.99    1.52
   1   6   3   76.90    1.52
   1   6   3   73.28    2.08
   1   6   3   76.61    1.52
  -2  -6  -3   28.60    0.62
  -2  -6  -3   29.41    0.63
  -2  -6  -3   29.69    0.64
  -2  -6  -3   30.56    0.65
  -2  -6  -3   29.52    0.64
  -2  -6  -3   28.90    0.63
   2   6   3   28.92    0.63
   2   6   3   31.32    0.74
   2   6   3   30.33    0.63
   2   6   3   34.91    1.21
   2   6   3   31.24    0.59
   2   6   3   28.78    0.63
   2   6   3   29.45    0.64
   2   6   3   30.40    0.63
   2   6   3   28.59    0.64
   2   6   3   29.03    0.64
   2   6   3   29.28    0.63
  -3  -6  -3    1.88    0.10
  -3  -6  -3    2.11    0.11
  -3  -6  -3    2.02    0.09
  -3  -6  -3    1.51    0.35
  -3  -6  -3    1.88    0.10
  -3  -6  -3    1.97    0.09
  -3  -6  -3    1.93    0.10
  -3  -6  -3    2.03    0.10
   3   6   3    2.03    0.10
   3   6   3    1.83    0.30
   3   6   3    1.96    0.10
   3   6   3    2.16    0.10
   3   6   3    1.88    0.10
   3   6   3    1.84    0.09
   3   6   3    2.06    0.10
  -4  -6  -3    1.04    0.08
  -4  -6  -3    1.07    0.09
  -4  -6  -3    0.95    0.08
  -4  -6  -3    0.92    0.07
  -4  -6  -3    1.13    0.08
  -4  -6  -3    0.97    0.08
  -4  -6  -3    0.95    0.08
   4   6   3    0.91    0.08
   4   6   3    0.91    0.07
   4   6   3    1.00    0.07
   4   6   3    0.98    0.08
   4   6   3    0.98    0.08
   4   6   3    0.91    0.08
   4   6   3    1.01    0.08
  -5  -6  -3    2.38    0.11
  -5  -6  -3    2.52    0.12
  -5  -6  -3    2.60    0.13
  -5  -6  -3    2.29    0.12
  -5  -6  -3    2.39    0.12
  -5  -6  -3    2.38    0.12
  -5  -6  -3    2.46    0.11
  -5  -6  -3    2.38    0.12
   5   6   3    2.26    0.12
   5   6   3    2.42    0.11
   5   6   3    2.27    0.11
   5   6   3    2.24    0.12
   5   6   3    2.47    0.12
   5   6   3    2.34    0.11
   5   6   3    2.12    0.11
  -6  -6  -3    6.72    0.23
  -6  -6  -3    6.95    0.23
  -6  -6  -3    6.67    0.22
  -6  -6  -3    6.68    0.21
  -6  -6  -3    7.04    0.22
  -6  -6  -3    6.96    0.26
  -6  -6  -3    6.85    0.26
  -6  -6  -3    6.75    0.22
   6   6   3    6.64    0.22
   6   6   3    6.76    0.23
   6   6   3    7.01    0.22
   6   6   3    7.00    0.22
   6   6   3    6.74    0.22
   6   6   3    7.02    0.22
   6   6   3    6.70    0.23
   6   6   3    6.53    0.21
  -7  -6  -3    0.88    0.10
  -7  -6  -3    0.90    0.10
  -7  -6  -3    0.91    0.10
  -7  -6  -3    0.76    0.08
  -7  -6  -3    0.75    0.08
   7   6   3    0.69    0.08
   7   6   3    0.88    0.09
   7   6   3    0.79    0.09
   7   6   3    0.80    0.08
   7   6   3    0.87    0.09
   7   6   3    0.82    0.09
   7   6   3    0.77    0.09
   7   6   3    0.80    0.09
  -8  -6  -3    2.04    0.14
  -8  -6  -3    1.95    0.14
  -8  -6  -3    1.99    0.14
  -8  -6  -3    2.48    0.14
  -8  -6  -3    2.01    0.13
   8   6   3    2.08    0.13
   8   6   3    2.03    0.13
   8   6   3    1.88    0.14
   8   6   3    2.12    0.14
   8   6   3    1.96    0.13
   8   6   3    2.12    0.13
   8   6   3    2.35    0.14
   8   6   3    1.90    0.14
  -9  -6  -3    0.35    0.08
  -9  -6  -3    0.27    0.09
  -9  -6  -3    0.29    0.08
  -9  -6  -3    0.25    0.08
   9   6   3    0.43    0.09
   9   6   3    0.37    0.08
   9   6   3    0.27    0.07
   9   6   3    0.33    0.08
   9   6   3    0.32    0.07
   6  -7  -3    0.14    0.06
   6  -7  -3    0.10    0.06
   6  -7  -3    0.09    0.06
   6  -7  -3    0.12    0.06
   6  -7  -3    0.12    0.05
   6  -7  -3    0.13    0.07
   6  -7  -3    0.10    0.06
  -6   7   3    0.06    0.06
  -6   7   3    0.13    0.07
   5  -7  -3    0.05    0.05
   5  -7  -3    0.08    0.05
   5  -7  -3    0.05    0.04
   5  -7  -3    0.17    0.07
   5  -7  -3    0.04    0.06
   5  -7  -3    0.01    0.05
   5  -7  -3    0.06    0.05
  -5   7   3    0.00    0.05
  -5   7   3    0.05    0.05
  -5   7   3    0.04    0.05
   4  -7  -3    0.06    0.05
   4  -7  -3    0.06    0.04
   4  -7  -3    0.15    0.05
   4  -7  -3    0.08    0.05
   4  -7  -3    0.10    0.05
   4  -7  -3    0.05    0.04
   4  -7  -3    0.09    0.05
  -4   7   3    0.07    0.05
  -4   7   3    0.09    0.05
  -4   7   3   -0.01    0.05
  -4   7   3    0.09    0.05
   3  -7  -3    0.52    0.06
   3  -7  -3    0.65    0.08
   3  -7  -3    0.72    0.09
   3  -7  -3    0.62    0.08
   3  -7  -3    0.70    0.09
   3  -7  -3    0.71    0.08
  -3   7   3    0.63    0.08
  -3   7   3    0.78    0.08
  -3   7   3    0.71    0.08
  -3   7   3    0.71    0.09
   2  -7  -3    0.65    0.07
   2  -7  -3    0.70    0.07
   2  -7  -3    0.74    0.08
   2  -7  -3    0.73    0.09
   2  -7  -3    0.76    0.07
  -2   7   3    0.76    0.08
  -2   7   3    0.74    0.07
  -2   7   3    0.70    0.08
  -2   7   3    0.62    0.09
  -2   7   3    0.77    0.07
  -2   7   3    0.73    0.07
   1  -7  -3    0.47    0.06
   1  -7  -3    0.43    0.06
   1  -7  -3    0.39    0.05
   1  -7  -3    0.49    0.06
   1  -7  -3    0.45    0.06
  -1   7   3    0.41    0.06
  -1   7   3    0.48    0.06
  -1   7   3    0.51    0.06
  -1   7   3    0.47    0.06
  -1   7   3    0.50    0.07
  -1   7   3    0.53    0.06
   0  -7  -3    1.60    0.10
   0  -7  -3    1.64    0.09
   0  -7  -3    1.36    0.09
   0  -7  -3    1.69    0.10
   0  -7  -3    1.41    0.09
   0  -7  -3    1.54    0.10
   0   7   3    1.47    0.09
   0   7   3    1.52    0.09
   0   7   3    1.53    0.09
   0   7   3    1.62    0.10
   0   7   3    1.61    0.09
   0   7   3    1.42    0.09
   0   7   3    1.69    0.10
  -1  -7  -3    0.81    0.07
  -1  -7  -3    0.76    0.08
  -1  -7  -3    0.59    0.06
  -1  -7  -3    0.69    0.07
  -1  -7  -3    0.63    0.07
  -1  -7  -3    0.46    0.25
   1   7   3    0.64    0.07
   1   7   3    0.72    0.07
   1   7   3    0.45    0.06
   1   7   3    0.61    0.07
   1   7   3    0.65    0.07
   1   7   3    0.63    0.06
   1   7   3    0.71    0.07
   1   7   3    0.78    0.08
  -2  -7  -3    1.52    0.09
  -2  -7  -3    1.28    0.09
  -2  -7  -3    1.62    0.09
  -2  -7  -3    1.39    0.08
  -2  -7  -3    1.52    0.09
  -2  -7  -3    1.44    0.08
   2   7   3    1.52    0.09
   2   7   3    1.46    0.09
   2   7   3    1.38    0.09
   2   7   3    1.40    0.09
   2   7   3    1.51    0.10
   2   7   3    1.50    0.10
   2   7   3    1.28    0.08
  -3  -7  -3    3.41    0.14
  -3  -7  -3    3.67    0.14
  -3  -7  -3    3.55    0.14
  -3  -7  -3    3.78    0.15
  -3  -7  -3    3.42    0.13
  -3  -7  -3    3.77    0.15
  -3  -7  -3    3.49    0.14
   3   7   3    3.68    0.14
   3   7   3    3.81    0.15
   3   7   3    3.72    0.15
   3   7   3    3.41    0.14
   3   7   3    3.37    0.14
   3   7   3    3.71    0.14
   3   7   3    3.52    0.14
  -4  -7  -3    0.15    0.05
  -4  -7  -3    0.08    0.04
  -4  -7  -3    0.06    0.04
  -4  -7  -3    0.12    0.05
  -4  -7  -3    0.11    0.04
  -4  -7  -3    0.06    0.04
  -4  -7  -3    0.04    0.04
   4   7   3    0.06    0.04
   4   7   3    0.09    0.04
   4   7   3    0.09    0.04
   4   7   3    0.08    0.04
   4   7   3    0.10    0.03
   4   7   3    0.11    0.04
   4   7   3    0.14    0.05
   4   7   3    0.10    0.04
  -5  -7  -3    0.38    0.06
  -5  -7  -3    0.64    0.08
  -5  -7  -3    0.41    0.06
  -5  -7  -3    0.52    0.07
  -5  -7  -3    0.40    0.06
  -5  -7  -3    0.46    0.07
   5   7   3    0.38    0.07
   5   7   3    0.36    0.07
   5   7   3    0.33    0.06
   5   7   3    0.48    0.07
   5   7   3    0.49    0.07
   5   7   3    0.43    0.07
   5   7   3    0.45    0.06
   5   7   3    0.37    0.07
  -6  -7  -3    2.25    0.13
  -6  -7  -3    2.34    0.14
  -6  -7  -3    2.66    0.13
  -6  -7  -3    2.61    0.13
  -6  -7  -3    2.31    0.13
  -6  -7  -3    2.53    0.13
  -6  -7  -3    2.58    0.14
   6   7   3    2.14    0.12
   6   7   3    2.54    0.13
   6   7   3    2.66    0.14
   6   7   3    2.55    0.14
   6   7   3    2.38    0.13
   6   7   3    2.58    0.13
   6   7   3    2.42    0.13
  -7  -7  -3    0.00    0.05
  -7  -7  -3   -0.04    0.04
  -7  -7  -3    0.06    0.05
  -7  -7  -3    0.08    0.05
  -7  -7  -3    0.14    0.06
   7   7   3   -0.04    0.04
   7   7   3    0.17    0.05
   7   7   3    0.07    0.05
   7   7   3    0.12    0.06
   7   7   3    0.01    0.06
   7   7   3    0.07    0.05
   7   7   3    0.04    0.05
  -8  -7  -3    0.32    0.08
  -8  -7  -3    0.26    0.07
  -8  -7  -3    0.35    0.07
  -8  -7  -3    0.41    0.08
  -8  -7  -3    0.36    0.08
   8   7   3    0.43    0.08
   8   7   3    0.48    0.09
   8   7   3    0.22    0.06
   8   7   3    0.37    0.08
   8   7   3    0.36    0.07
  -9  -7  -3    0.45    0.08
  -9  -7  -3    0.56    0.10
  -9  -7  -3    0.54    0.10
  -9  -7  -3    0.67    0.10
   9   7   3    0.46    0.09
   9   7   3    0.53    0.09
   9   7   3    0.70    0.10
   9   7   3    0.65    0.09
   9   7   3    0.54    0.10
   5  -8  -3    1.78    0.13
   5  -8  -3    1.60    0.13
   5  -8  -3    1.58    0.13
   5  -8  -3    1.71    0.14
   5  -8  -3    1.74    0.14
  -5   8   3    1.63    0.13
  -5   8   3    1.64    0.14
   4  -8  -3    3.08    0.16
   4  -8  -3    2.94    0.15
   4  -8  -3    3.23    0.16
   4  -8  -3    2.91    0.15
   4  -8  -3    3.01    0.16
  -4   8   3    2.97    0.16
  -4   8   3    3.04    0.16
   3  -8  -3    2.02    0.13
   3  -8  -3    1.85    0.12
   3  -8  -3    2.03    0.13
   3  -8  -3    1.85    0.12
   3  -8  -3    1.86    0.12
  -3   8   3    1.88    0.12
  -3   8   3    2.09    0.13
  -3   8   3    1.91    0.12
   2  -8  -3    5.25    0.20
   2  -8  -3    5.89    0.21
   2  -8  -3    5.65    0.20
   2  -8  -3    5.59    0.20
   2  -8  -3    5.51    0.20
  -2   8   3    5.83    0.20
  -2   8   3    5.18    0.20
  -2   8   3    5.74    0.20
  -2   8   3    5.56    0.19
   1  -8  -3    9.30    0.26
   1  -8  -3    8.57    0.26
   1  -8  -3    8.57    0.27
   1  -8  -3    9.10    0.26
   1  -8  -3    9.20    0.27
  -1   8   3    9.19    0.26
  -1   8   3    8.54    0.26
  -1   8   3    8.81    0.27
  -1   8   3    9.26    0.26
   0  -8  -3   16.99    0.42
   0  -8  -3   16.72    0.41
   0  -8  -3   16.82    0.42
   0  -8  -3   17.06    0.41
   0  -8  -3   16.96    0.41
   0   8   3   17.10    0.41
   0   8   3   16.76    0.42
   0   8   3   16.92    0.42
   0   8   3   17.10    0.41
  -1  -8  -3    6.32    0.19
  -1  -8  -3    6.52    0.21
  -1  -8  -3    6.17    0.20
  -1  -8  -3    6.20    0.21
  -1  -8  -3    6.20    0.20
   1   8   3    6.37    0.21
   1   8   3    6.51    0.20
   1   8   3    6.37    0.20
   1   8   3    6.09    0.21
   1   8   3    6.39    0.24
   1   8   3    6.03    0.20
   1   8   3    6.49    0.20
  -2  -8  -3    2.55    0.12
  -2  -8  -3    2.33    0.12
  -2  -8  -3    2.54    0.12
  -2  -8  -3    2.45    0.12
   2   8   3    2.53    0.12
   2   8   3    2.49    0.12
   2   8   3    2.58    0.13
   2   8   3    2.76    0.13
   2   8   3    2.59    0.12
   2   8   3    2.55    0.12
   2   8   3    2.60    0.13
  -3  -8  -3   -0.02    0.03
  -3  -8  -3    0.00    0.04
  -3  -8  -3    0.01    0.04
  -3  -8  -3   -0.01    0.04
  -3  -8  -3    0.04    0.04
   3   8   3   -0.01    0.04
   3   8   3   -0.02    0.04
   3   8   3    0.01    0.04
   3   8   3    0.05    0.04
   3   8   3    0.00    0.03
   3   8   3   -0.02    0.04
   3   8   3   -0.01    0.04
  -4  -8  -3    0.55    0.07
  -4  -8  -3    0.52    0.07
  -4  -8  -3    0.50    0.07
  -4  -8  -3    0.64    0.08
  -4  -8  -3    0.55    0.07
  -4  -8  -3    0.49    0.07
   4   8   3    0.48    0.08
   4   8   3    0.43    0.06
   4   8   3    0.53    0.07
   4   8   3    0.63    0.07
   4   8   3    0.54    0.07
   4   8   3    0.43    0.07
   4   8   3    0.50    0.07
  -5  -8  -3    1.33    0.10
  -5  -8  -3    1.40    0.10
  -5  -8  -3    1.16    0.10
  -5  -8  -3    1.41    0.11
  -5  -8  -3    1.32    0.11
  -5  -8  -3    1.37    0.11
   5   8   3    1.31    0.10
   5   8   3    1.44    0.10
   5   8   3    1.06    0.10
   5   8   3    1.20    0.10
   5   8   3    1.37    0.11
  -6  -8  -3    0.30    0.07
  -6  -8  -3    0.30    0.07
  -6  -8  -3    0.25    0.06
  -6  -8  -3    0.29    0.07
  -6  -8  -3    0.29    0.06
  -6  -8  -3    0.32    0.07
  -6  -8  -3    0.35    0.07
   6   8   3    0.28    0.07
   6   8   3    0.23    0.06
   6   8   3    0.24    0.06
   6   8   3    0.24    0.06
   6   8   3    0.39    0.07
  -7  -8  -3    1.75    0.13
  -7  -8  -3    1.95    0.13
  -7  -8  -3    1.68    0.13
  -7  -8  -3    1.59    0.13
  -7  -8  -3    1.66    0.13
   7   8   3    1.88    0.13
   7   8   3    1.44    0.12
   7   8   3    1.68    0.13
   7   8   3    1.66    0.12
   7   8   3    1.63    0.13
  -8  -8  -3    0.00    0.06
  -8  -8  -3    0.03    0.06
  -8  -8  -3   -0.06    0.04
  -8  -8  -3    0.03    0.06
  -8  -8  -3   -0.03    0.05
   8   8   3    0.02    0.05
   8   8   3    0.07    0.05
   8   8   3    0.01    0.05
   8   8   3    0.07    0.06
   8   8   3    0.03    0.06
   4  -9  -3    0.00    0.05
   4  -9  -3    0.01    0.06
   4  -9  -3   -0.04    0.05
   4  -9  -3   -0.06    0.05
   4  -9  -3    0.00    0.06
  -4   9   3   -0.01    0.06
  -4   9   3    0.04    0.06
   3  -9  -3    5.20    0.22
   3  -9  -3    5.34    0.22
   3  -9  -3    5.30    0.21
   3  -9  -3    5.07    0.21
   3  -9  -3    5.36    0.21
  -3   9   3    5.40    0.22
  -3   9   3    4.95    0.21
   2  -9  -3   -0.01    0.05
   2  -9  -3    0.08    0.06
   2  -9  -3    0.02    0.04
   2  -9  -3   -0.07    0.04
   2  -9  -3   -0.02    0.04
  -2   9   3    0.00    0.05
  -2   9   3   -0.07    0.04
  -2   9   3    0.04    0.06
   1  -9  -3    7.87    0.25
   1  -9  -3    7.48    0.25
   1  -9  -3    8.26    0.26
   1  -9  -3    7.56    0.24
   1  -9  -3    7.77    0.26
  -1   9   3    7.16    0.25
  -1   9   3    7.88    0.24
  -1   9   3    8.06    0.26
   0  -9  -3    1.56    0.11
   0  -9  -3    1.58    0.11
   0  -9  -3    1.42    0.11
   0  -9  -3    1.46    0.10
   0   9   3    1.66    0.10
   0   9   3    1.41    0.11
   0   9   3    1.61    0.11
  -1  -9  -3    1.05    0.10
  -1  -9  -3    0.94    0.09
  -1  -9  -3    1.07    0.08
  -1  -9  -3    0.99    0.10
  -1  -9  -3    1.08    0.09
   1   9   3    1.08    0.09
   1   9   3    1.18    0.10
   1   9   3    1.08    0.10
   1   9   3    1.23    0.10
   1   9   3    1.19    0.10
  -2  -9  -3    0.15    0.05
  -2  -9  -3    0.13    0.05
  -2  -9  -3    0.17    0.05
  -2  -9  -3    0.11    0.05
  -2  -9  -3    0.11    0.04
   2   9   3    0.13    0.06
   2   9   3    0.19    0.05
   2   9   3    0.20    0.05
   2   9   3    0.06    0.04
   2   9   3    0.08    0.05
  -3  -9  -3    2.28    0.13
  -3  -9  -3    2.13    0.11
  -3  -9  -3    2.26    0.12
  -3  -9  -3    2.13    0.12
  -3  -9  -3    2.28    0.13
   3   9   3    2.35    0.14
   3   9   3    2.31    0.12
   3   9   3    2.40    0.13
   3   9   3    2.27    0.13
   3   9   3    2.34    0.13
  -4  -9  -3    0.32    0.06
  -4  -9  -3    0.42    0.07
  -4  -9  -3    0.38    0.07
  -4  -9  -3    0.57    0.08
  -4  -9  -3    0.52    0.07
  -4  -9  -3    0.44    0.07
   4   9   3    0.39    0.07
   4   9   3    0.47    0.08
   4   9   3    0.39    0.07
   4   9   3    0.44    0.07
   4   9   3    0.43    0.07
  -5  -9  -3    0.64    0.08
  -5  -9  -3    0.65    0.08
  -5  -9  -3    0.68    0.09
  -5  -9  -3    0.60    0.08
  -5  -9  -3    0.61    0.08
  -5  -9  -3    0.62    0.08
   5   9   3    0.55    0.08
   5   9   3    0.55    0.09
   5   9   3    1.00    0.11
   5   9   3    0.67    0.09
   5   9   3    0.65    0.08
  -6  -9  -3    6.19    0.23
  -6  -9  -3    6.17    0.23
  -6  -9  -3    6.06    0.23
  -6  -9  -3    6.25    0.23
  -6  -9  -3    6.48    0.24
   6   9   3    6.00    0.23
   6   9   3    6.18    0.24
   6   9   3    6.55    0.23
   6   9   3    6.51    0.23
   6   9   3    6.17    0.24
  -7  -9  -3    1.67    0.13
  -7  -9  -3    1.58    0.13
  -7  -9  -3    1.71    0.14
  -7  -9  -3    1.61    0.14
  -7  -9  -3    1.82    0.14
   7   9   3    1.62    0.15
   7   9   3    1.72    0.14
   7   9   3    1.65    0.13
   7   9   3    1.58    0.13
   7   9   3    1.58    0.14
   3 -10  -3    3.56    0.18
   3 -10  -3    3.32    0.17
   3 -10  -3    3.66    0.19
   3 -10  -3    3.17    0.17
  -3  10   3    3.31    0.18
  -3  10   3    3.18    0.18
   2 -10  -3   11.28    0.34
   2 -10  -3   11.17    0.33
   2 -10  -3   11.03    0.33
   2 -10  -3   11.04    0.33
   2 -10  -3   10.85    0.35
  -2  10   3   11.15    0.34
  -2  10   3   10.95    0.34
   1 -10  -3    0.01    0.05
   1 -10  -3    0.00    0.05
   1 -10  -3    0.03    0.05
   1 -10  -3    0.08    0.05
   1 -10  -3   -0.04    0.04
  -1  10   3   -0.06    0.05
  -1  10   3   -0.02    0.05
   0 -10  -3    0.89    0.10
   0 -10  -3    0.97    0.10
   0 -10  -3    1.00    0.10
   0 -10  -3    0.75    0.09
   0  10   3    0.85    0.09
   0  10   3    0.83    0.10
  -1 -10  -3    0.74    0.08
  -1 -10  -3    0.62    0.08
  -1 -10  -3    0.87    0.10
  -1 -10  -3    0.75    0.09
   1  10   3    0.90    0.10
   1  10   3    1.04    0.11
   1  10   3    0.72    0.10
  -2 -10  -3    2.15    0.13
  -2 -10  -3    1.72    0.12
  -2 -10  -3    1.99    0.13
  -2 -10  -3    1.91    0.12
  -2 -10  -3    2.08    0.12
  -2 -10  -3    2.02    0.13
   2  10   3    1.83    0.13
   2  10   3    2.20    0.14
   2  10   3    1.95    0.14
   2  10   3    2.02    0.12
  -3 -10  -3    3.02    0.16
  -3 -10  -3    3.44    0.16
  -3 -10  -3    3.78    0.17
  -3 -10  -3    3.18    0.16
  -3 -10  -3    3.19    0.16
  -3 -10  -3    3.35    0.15
   3  10   3    3.55    0.16
   3  10   3    3.23    0.17
   3  10   3    2.98    0.16
   3  10   3    3.38    0.17
  -4 -10  -3    4.66    0.20
  -4 -10  -3    4.82    0.20
  -4 -10  -3    4.75    0.20
  -4 -10  -3    4.81    0.20
  -4 -10  -3    4.60    0.18
  -4 -10  -3    4.57    0.20
   4  10   3    4.78    0.20
   4  10   3    4.79    0.21
   4  10   3    4.69    0.20
   4  10   3    4.90    0.19
  -5 -10  -3    0.03    0.06
  -5 -10  -3    0.02    0.06
  -5 -10  -3   -0.05    0.04
  -5 -10  -3    0.06    0.05
  -5 -10  -3   -0.01    0.05
  -5 -10  -3    0.03    0.05
   5  10   3   -0.10    0.05
   5  10   3   -0.02    0.04
   5  10   3   -0.03    0.05
   5  10   3    0.01    0.06
  -6 -10  -3   -0.03    0.05
  -6 -10  -3    0.12    0.06
  -6 -10  -3    0.01    0.06
  -6 -10  -3    0.02    0.06
  -6 -10  -3   -0.02    0.05
   6  10   3    0.12    0.07
   6  10   3   -0.04    0.05
   6  10   3    0.06    0.06
   1 -11  -3    2.34    0.16
   1 -11  -3    1.90    0.14
   1 -11  -3    2.26    0.15
   1 -11  -3    2.52    0.15
  -1  11   3    2.08    0.15
  -1  11   3    2.26    0.16
   0 -11  -3    1.53    0.13
   0 -11  -3    1.56    0.13
   0 -11  -3    1.34    0.12
   0 -11  -3    1.51    0.12
   0  11   3    1.67    0.15
   0  11   3    1.67    0.14
   0  11   3    1.33    0.13
  -1 -11  -3    0.05    0.05
  -1 -11  -3    0.05    0.06
  -1 -11  -3    0.14    0.06
  -1 -11  -3    0.03    0.05
   1  11   3    0.10    0.06
   1  11   3    0.06    0.06
   1  11   3    0.02    0.06
  -2 -11  -3    0.16    0.06
  -2 -11  -3    0.12    0.06
  -2 -11  -3    0.19    0.06
  -2 -11  -3    0.14    0.06
   2  11   3    0.10    0.06
   2  11   3    0.25    0.07
   2  11   3    0.21    0.07
  -3 -11  -3    0.17    0.07
  -3 -11  -3    0.41    0.08
  -3 -11  -3    0.41    0.08
  -3 -11  -3    0.37    0.08
  -3 -11  -3    0.20    0.07
   3  11   3    0.23    0.07
   3  11   3    0.18    0.07
   3  11   3    0.30    0.08
  -4 -11  -3    0.44    0.08
  -4 -11  -3    0.39    0.08
  -4 -11  -3    0.42    0.09
  -4 -11  -3    0.38    0.08
  -4 -11  -3    0.47    0.08
   4  11   3    0.39    0.08
   4  11   3    0.24    0.08
   4  11   3    0.42    0.08
  -5 -11  -3    0.42    0.08
  -5 -11  -3    0.62    0.09
  -5 -11  -3    0.48    0.09
  -5 -11  -3    0.50    0.09
  -5 -11  -3    0.52    0.09
  -5 -11  -3    0.38    0.08
   5  11   3    0.55    0.10
   5  11   3    0.71    0.10
   5  11   3    0.39    0.09
   4   9  -4    5.81    0.21
  -4  -9   4    5.29    0.22
  -4  -9   4    5.66    0.16
  -4  -9   4    5.44    0.21
  -4  -9   4    5.81    0.21
  -4  -9   4    5.75    0.21
   3   9  -4    0.27    0.06
  -3  -9   4    0.16    0.05
  -3  -9   4    0.24    0.06
  -3  -9   4    0.23    0.03
  -3  -9   4    0.27    0.07
  -3  -9   4    0.20    0.06
   2   9  -4    0.32    0.06
  -2  -9   4    0.25    0.06
  -2  -9   4    0.16    0.05
  -2  -9   4    0.11    0.06
  -2  -9   4    0.19    0.05
   1   9  -4    2.94    0.14
  -1  -9   4    3.47    0.18
  -1  -9   4    3.16    0.14
  -1  -9   4    2.83    0.13
  -1  -9   4    2.92    0.13
   0   9  -4    0.25    0.05
   0  -9   4    0.25    0.06
   0  -9   4    0.29    0.08
   0  -9   4    0.16    0.05
   0  -9   4    0.19    0.05
  -1   9  -4    0.00    0.04
   1  -9   4    0.02    0.04
   1  -9   4    0.01    0.04
   1  -9   4    0.05    0.04
   1  -9   4   -0.03    0.06
  -2   9  -4    0.85    0.08
   2  -9   4    0.66    0.08
   2  -9   4    0.79    0.11
   2  -9   4    0.67    0.08
   2  -9   4    0.73    0.08
   6   8  -4    3.88    0.18
  -6  -8   4    3.51    0.40
  -6  -8   4    3.54    0.40
  -6  -8   4    3.53    0.17
  -6  -8   4    3.65    0.18
  -6  -8   4    3.68    0.15
  -6  -8   4    3.58    0.18
   5   8  -4    1.83    0.12
  -5  -8   4    1.35    0.25
  -5  -8   4    1.63    0.12
  -5  -8   4    1.78    0.12
  -5  -8   4    1.31    0.24
  -5  -8   4    1.71    0.09
  -5  -8   4    1.63    0.12
   4   8  -4    1.45    0.11
  -4  -8   4    1.63    0.11
  -4  -8   4    1.73    0.08
  -4  -8   4    1.48    0.11
  -4  -8   4    1.60    0.11
  -4  -8   4    1.83    0.22
  -4  -8   4    1.60    0.12
   3   8  -4    4.20    0.16
  -3  -8   4    4.70    0.13
  -3  -8   4    4.49    0.17
  -3  -8   4    4.56    0.17
  -3  -8   4    4.64    0.17
  -3  -8   4    4.55    0.19
   2   8  -4    0.75    0.07
  -2  -8   4    0.77    0.04
  -2  -8   4    0.78    0.10
  -2  -8   4    0.66    0.07
  -2  -8   4    0.71    0.07
  -2  -8   4    0.67    0.07
   1   8  -4    1.14    0.08
  -1  -8   4    1.02    0.08
  -1  -8   4    1.06    0.08
  -1  -8   4    1.13    0.08
  -1  -8   4    1.17    0.11
   0   8  -4    0.23    0.05
   0  -8   4    0.26    0.05
   0  -8   4    0.23    0.07
   0  -8   4    0.23    0.05
   0  -8   4    0.25    0.05
  -1   8  -4    0.06    0.04
   1  -8   4    0.03    0.06
   1  -8   4    0.05    0.04
   1  -8   4   -0.01    0.04
   1  -8   4    0.03    0.04
  -2   8  -4    1.65    0.10
   2  -8   4    1.71    0.11
   2  -8   4    1.91    0.14
   2  -8   4    1.71    0.10
   2  -8   4    1.77    0.11
   3  -8   4   -0.03    0.04
   3  -8   4   -0.02    0.04
   3  -8   4   -0.02    0.04
   3  -8   4    0.01    0.06
   7   7  -4    0.10    0.06
   7   7  -4    0.25    0.07
  -7  -7   4    0.17    0.07
  -7  -7   4    0.32    0.07
  -7  -7   4    0.12    0.07
  -7  -7   4    0.31    0.19
  -7  -7   4    0.39    0.21
  -7  -7   4    0.24    0.06
  -7  -7   4    0.16    0.05
  -7  -7   4    0.32    0.07
  -7  -7   4    0.16    0.06
   6   7  -4    1.50    0.12
   6   7  -4    1.59    0.12
  -6  -7   4    1.36    0.11
  -6  -7   4    1.56    0.13
  -6  -7   4    1.68    0.30
  -6  -7   4    1.40    0.11
  -6  -7   4    1.62    0.30
  -6  -7   4    1.60    0.10
  -6  -7   4    1.50    0.12
   5   7  -4    0.19    0.05
   5   7  -4    0.16    0.05
  -5  -7   4    0.36    0.16
  -5  -7   4    0.17    0.05
  -5  -7   4    0.28    0.06
  -5  -7   4    0.17    0.04
  -5  -7   4    0.35    0.16
  -5  -7   4    0.25    0.06
   4   7  -4    2.07    0.11
  -4  -7   4    1.99    0.11
  -4  -7   4    2.03    0.24
  -4  -7   4    2.10    0.24
  -4  -7   4    1.98    0.11
  -4  -7   4    2.15    0.09
  -4  -7   4    2.20    0.11
  -4  -7   4    1.92    0.12
   3   7  -4    8.77    0.25
  -3  -7   4    9.27    0.25
  -3  -7   4    8.77    0.27
  -3  -7   4    8.81    0.25
  -3  -7   4    9.02    0.25
  -3  -7   4    9.18    0.21
   2   7  -4   17.87    0.41
  -2  -7   4   17.83    0.36
  -2  -7   4   17.91    0.41
  -2  -7   4   18.49    0.41
  -2  -7   4   17.83    0.41
  -2  -7   4   18.30    0.45
   1   7  -4    1.47    0.08
  -1  -7   4    1.52    0.09
  -1  -7   4    1.46    0.08
  -1  -7   4    1.61    0.12
  -1  -7   4    1.58    0.09
   0   7  -4   35.73    0.75
   0  -7   4   36.15    0.81
   0  -7   4   36.06    0.75
   0  -7   4   37.93    0.75
   0  -7   4   36.32    0.75
  -1   7  -4    7.92    0.22
   1  -7   4    8.14    0.22
   1  -7   4    7.98    0.27
   1  -7   4    7.90    0.22
   1  -7   4    7.83    0.22
   2  -7   4    3.34    0.17
   2  -7   4    3.33    0.13
   2  -7   4    3.40    0.13
   2  -7   4    3.21    0.13
   3  -7   4   -0.03    0.05
   3  -7   4   -0.02    0.03
   3  -7   4   -0.02    0.03
   3  -7   4    0.01    0.03
   4  -7   4    1.28    0.10
   4  -7   4    1.36    0.10
   4  -7   4    1.24    0.09
   4  -7   4    1.49    0.12
   5  -7   4    2.84    0.14
   5  -7   4    3.12    0.18
   5  -7   4    3.20    0.15
   5  -7   4    3.08    0.15
   7   6  -4    0.88    0.10
   7   6  -4    0.85    0.10
  -7  -6   4    1.07    0.13
  -7  -6   4    0.95    0.10
  -7  -6   4    0.75    0.10
  -7  -6   4    1.09    0.11
  -7  -6   4    0.73    0.08
  -7  -6   4    1.00    0.29
  -7  -6   4    0.85    0.10
  -7  -6   4    0.91    0.11
  -7  -6   4    0.81    0.09
   6   6  -4    0.16    0.06
   6   6  -4    0.07    0.05
  -6  -6   4    0.17    0.06
  -6  -6   4    0.16    0.14
  -6  -6   4    0.16    0.05
  -6  -6   4    0.09    0.05
  -6  -6   4    0.27    0.16
  -6  -6   4    0.09    0.05
  -6  -6   4    0.34    0.07
  -6  -6   4    0.04    0.05
  -6  -6   4    0.11    0.04
  -6  -6   4    0.18    0.05
   5   6  -4    0.87    0.09
   5   6  -4    0.51    0.07
  -5  -6   4    0.65    0.10
  -5  -6   4    0.68    0.20
  -5  -6   4    0.63    0.19
  -5  -6   4    0.74    0.06
  -5  -6   4    0.69    0.07
  -5  -6   4    0.61    0.07
  -5  -6   4    0.73    0.08
  -5  -6   4    0.71    0.08
  -5  -6   4    0.59    0.06
   4   6  -4   -0.06    0.03
   4   6  -4   -0.01    0.04
  -4  -6   4   -0.01    0.02
  -4  -6   4    0.01    0.03
  -4  -6   4    0.03    0.04
  -4  -6   4    0.02    0.03
  -4  -6   4    0.04    0.09
  -4  -6   4    0.05    0.09
  -4  -6   4    0.04    0.03
  -4  -6   4    0.03    0.04
   3   6  -4    1.07    0.08
   3   6  -4    1.21    0.08
  -3  -6   4    1.26    0.08
  -3  -6   4    1.24    0.08
  -3  -6   4    1.35    0.10
  -3  -6   4    1.24    0.08
  -3  -6   4    1.47    0.11
  -3  -6   4    1.21    0.06
   2   6  -4   24.04    0.51
  -2  -6   4   23.20    0.54
  -2  -6   4   23.48    0.57
  -2  -6   4   23.45    0.51
  -2  -6   4   23.83    0.51
  -2  -6   4   23.95    0.46
  -2  -6   4   23.78    0.51
   1   6  -4    0.30    0.04
  -1  -6   4    0.41    0.06
  -1  -6   4    0.30    0.04
  -1  -6   4    0.38    0.05
  -1  -6   4    0.39    0.08
  -1  -6   4    0.31    0.04
   0   6  -4    5.88    0.16
   0  -6   4    6.24    0.16
   0  -6   4    5.79    0.16
   0  -6   4    6.03    0.21
   0  -6   4    5.84    0.16
  -1   6  -4    0.11    0.03
   1  -6   4    0.11    0.03
   1  -6   4    0.05    0.03
   1  -6   4    0.07    0.03
   1  -6   4    0.05    0.04
   2  -6   4    7.77    0.21
   2  -6   4    8.16    0.21
   2  -6   4    8.17    0.21
   2  -6   4    7.97    0.26
   3  -6   4    2.17    0.10
   3  -6   4    2.29    0.10
   3  -6   4    2.23    0.13
   3  -6   4    2.10    0.10
   4  -6   4    1.39    0.09
   4  -6   4    1.40    0.09
   4  -6   4    1.27    0.09
   4  -6   4    1.07    0.11
   5  -6   4    0.72    0.08
   5  -6   4    0.72    0.09
   5  -6   4    0.77    0.08
   5  -6   4    0.92    0.09
   6  -6   4    0.81    0.09
   6  -6   4    0.96    0.10
   6  -6   4    0.73    0.10
   6  -6   4    0.77    0.09
   8   5  -4    0.38    0.08
   8   5  -4    0.41    0.08
   8   5  -4    0.22    0.07
  -8  -5   4    0.35    0.07
  -8  -5   4    0.26    0.07
  -8  -5   4    0.33    0.08
  -8  -5   4    0.34    0.09
  -8  -5   4    0.31    0.08
  -8  -5   4    0.44    0.07
  -8  -5   4    0.28    0.05
  -8  -5   4    0.24    0.06
  -8  -5   4    0.32    0.20
  -8  -5   4    0.23    0.07
  -8  -5   4    0.32    0.09
   7   5  -4    0.30    0.07
   7   5  -4    0.36    0.07
   7   5  -4    0.28    0.07
  -7  -5   4    0.36    0.09
  -7  -5   4    0.54    0.08
  -7  -5   4    0.38    0.06
  -7  -5   4    0.47    0.07
  -7  -5   4    0.34    0.18
  -7  -5   4    0.34    0.04
  -7  -5   4    0.36    0.04
  -7  -5   4    0.40    0.07
  -7  -5   4    0.32    0.07
  -7  -5   4    0.45    0.07
  -7  -5   4    0.39    0.06
  -7  -5   4    0.40    0.09
   6   5  -4    0.07    0.05
   6   5  -4    0.04    0.04
   6   5  -4    0.02    0.05
  -6  -5   4    0.02    0.11
  -6  -5   4   -0.04    0.03
  -6  -5   4    0.08    0.04
  -6  -5   4    0.03    0.04
  -6  -5   4    0.10    0.05
  -6  -5   4    0.03    0.05
  -6  -5   4    0.00    0.05
  -6  -5   4    0.03    0.04
  -6  -5   4    0.00    0.03
  -6  -5   4    0.05    0.04
  -6  -5   4    0.02    0.10
   5   5  -4    5.60    0.19
   5   5  -4    6.20    0.20
  -5  -5   4    5.82    0.19
  -5  -5   4    4.72    0.41
  -5  -5   4    5.94    0.18
  -5  -5   4    5.77    0.19
  -5  -5   4    5.88    0.17
  -5  -5   4    5.84    0.17
  -5  -5   4    4.87    0.42
  -5  -5   4    5.96    0.19
  -5  -5   4    6.24    0.17
  -5  -5   4    5.42    0.19
  -5  -5   4    5.28    0.19
  -5  -5   4    5.24    0.21
  -5  -5   4    5.86    0.19
  -5  -5   4    5.58    0.19
   4   5  -4   42.61    0.87
   4   5  -4   42.67    0.87
  -4  -5   4   40.92    0.86
  -4  -5   4   41.67    0.86
  -4  -5   4   42.38    0.87
  -4  -5   4   41.94    1.23
  -4  -5   4   42.30    0.91
  -4  -5   4   42.17    0.84
  -4  -5   4   41.59    1.22
  -4  -5   4   42.06    0.87
  -4  -5   4   43.17    0.83
  -4  -5   4   41.27    0.84
  -4  -5   4   42.83    0.86
   3   5  -4   28.40    0.59
   3   5  -4   28.36    0.59
  -3  -5   4   28.62    0.59
  -3  -5   4   30.11    0.58
  -3  -5   4   27.79    0.64
  -3  -5   4   28.77    0.59
  -3  -5   4   28.61    0.61
  -3  -5   4   24.51    0.76
  -3  -5   4   28.76    0.54
  -3  -5   4   29.13    0.59
  -3  -5   4   28.59    0.56
  -3  -5   4   25.26    0.77
   2   5  -4    3.50    0.12
   2   5  -4    3.31    0.11
  -2  -5   4    3.46    0.15
  -2  -5   4    3.27    0.08
  -2  -5   4    3.29    0.11
  -2  -5   4    3.29    0.11
  -2  -5   4    3.41    0.08
  -2  -5   4    3.26    0.13
  -2  -5   4    3.45    0.11
   1   5  -4   18.06    0.39
   1   5  -4   17.52    0.38
   1   5  -4   17.55    0.39
  -1  -5   4   17.88    0.38
  -1  -5   4   17.90    0.38
  -1  -5   4   18.21    0.45
  -1  -5   4   18.25    0.38
  -1  -5   4   17.55    0.42
   0   5  -4    2.73    0.09
   0   5  -4    2.84    0.10
   0  -5   4    2.76    0.09
   0  -5   4    2.71    0.09
   0  -5   4    2.94    0.09
   0  -5   4    2.85    0.13
  -1   5  -4    1.58    0.07
  -1   5  -4    1.70    0.08
   1  -5   4    1.65    0.10
   1  -5   4    1.58    0.07
   1  -5   4    1.48    0.07
   1  -5   4    1.66    0.07
   2  -5   4    4.99    0.14
   2  -5   4    5.13    0.14
   2  -5   4    5.08    0.18
   2  -5   4    5.12    0.14
   3  -5   4   13.61    0.32
   3  -5   4   13.86    0.32
   3  -5   4   13.79    0.36
   3  -5   4   13.45    0.32
  -4   5  -4    3.42    0.14
   4  -5   4    3.87    0.16
   4  -5   4    3.53    0.13
   4  -5   4    3.61    0.13
   4  -5   4    3.52    0.13
  -5   5  -4    0.20    0.05
   5  -5   4    0.19    0.05
   5  -5   4    0.13    0.04
   5  -5   4    0.17    0.06
   5  -5   4    0.25    0.05
  -6   5  -4    0.08    0.05
   6  -5   4    0.10    0.05
   6  -5   4    0.15    0.05
   6  -5   4    0.10    0.05
   6  -5   4    0.11    0.05
  -7   5  -4    0.04    0.05
   7  -5   4    0.02    0.05
   7  -5   4    0.00    0.04
   7  -5   4    0.02    0.05
   7  -5   4    0.01    0.09
   8   4  -4    2.43    0.15
   8   4  -4    2.25    0.15
   8   4  -4    2.34    0.15
  -8  -4   4    2.05    0.18
  -8  -4   4    2.19    0.14
  -8  -4   4    2.23    0.15
  -8  -4   4    2.23    0.14
  -8  -4   4    2.36    0.14
  -8  -4   4    2.24    0.15
  -8  -4   4    2.29    0.13
  -8  -4   4    2.25    0.11
  -8  -4   4    2.23    0.15
   7   4  -4    0.15    0.06
   7   4  -4    0.13    0.06
   7   4  -4    0.26    0.06
  -7  -4   4    0.22    0.06
  -7  -4   4    0.15    0.06
  -7  -4   4    0.26    0.18
  -7  -4   4    0.22    0.07
  -7  -4   4    0.18    0.05
  -7  -4   4    0.18    0.07
  -7  -4   4    0.25    0.06
  -7  -4   4    0.17    0.04
  -7  -4   4    0.09    0.05
  -7  -4   4    0.22    0.06
  -7  -4   4    0.13    0.05
  -7  -4   4    0.32    0.08
   6   4  -4    3.08    0.14
   6   4  -4    2.88    0.14
   6   4  -4    3.00    0.14
  -6  -4   4    2.95    0.10
  -6  -4   4    2.95    0.38
  -6  -4   4    2.91    0.10
  -6  -4   4    2.83    0.13
  -6  -4   4    2.90    0.37
  -6  -4   4    2.97    0.17
  -6  -4   4    3.28    0.17
  -6  -4   4    3.02    0.17
  -6  -4   4    2.86    0.14
  -6  -4   4    2.96    0.13
  -6  -4   4    2.86    0.13
  -6  -4   4    2.83    0.14
  -6  -4   4    3.08    0.13
  -6  -4   4    3.13    0.14
   5   4  -4    2.01    0.11
   5   4  -4    2.09    0.11
   5   4  -4    1.94    0.11
  -5  -4   4    1.98    0.11
  -5  -4   4    2.05    0.10
  -5  -4   4    1.92    0.09
  -5  -4   4    2.44    0.13
  -5  -4   4    2.05    0.11
  -5  -4   4    2.49    0.14
  -5  -4   4    2.06    0.10
  -5  -4   4    1.97    0.09
  -5  -4   4    1.95    0.10
  -5  -4   4    2.00    0.11
  -5  -4   4    2.33    0.13
   4   4  -4   63.56    1.27
   4   4  -4   62.41    1.27
   4   4  -4   64.32    1.27
  -4  -4   4   64.75    1.24
  -4  -4   4   64.27    1.67
  -4  -4   4   65.42    1.32
  -4  -4   4   64.68    1.24
  -4  -4   4   62.42    1.24
  -4  -4   4   62.96    1.26
  -4  -4   4   61.68    1.26
  -4  -4   4   62.44    1.26
  -4  -4   4   65.41    1.26
  -4  -4   4   63.19    1.25
  -4  -4   4   67.60    1.69
  -4  -4   4   61.14    1.26
  -4  -4   4   64.76    1.27
   3   4  -4    0.99    0.06
   3   4  -4    0.95    0.06
   3   4  -4    0.83    0.06
  -3  -4   4    0.93    0.06
  -3  -4   4    0.95    0.04
  -3  -4   4    1.02    0.07
  -3  -4   4    0.92    0.05
  -3  -4   4    1.10    0.09
  -3  -4   4    0.94    0.06
  -3  -4   4    0.88    0.06
  -3  -4   4    1.01    0.05
  -3  -4   4    0.93    0.06
   2   4  -4    3.08    0.10
   2   4  -4    2.85    0.10
   2   4  -4    3.27    0.11
  -2  -4   4    3.07    0.10
  -2  -4   4    3.29    0.14
  -2  -4   4    3.00    0.08
  -2  -4   4    3.08    0.10
  -2  -4   4    3.04    0.12
  -2  -4   4    3.13    0.10
  -2  -4   4    3.09    0.08
   1   4  -4    1.63    0.07
   1   4  -4    1.56    0.06
   1   4  -4    1.58    0.06
  -1  -4   4    1.70    0.06
  -1  -4   4    1.66    0.06
  -1  -4   4    1.60    0.06
  -1  -4   4    1.57    0.10
  -1  -4   4    1.70    0.07
  -1  -4   4    1.62    0.06
  -1  -4   4    1.43    0.09
   0   4  -4    0.01    0.02
   0   4  -4    0.06    0.02
   0   4  -4    0.05    0.02
   0  -4   4    0.05    0.02
   0  -4   4    0.12    0.04
   0  -4   4    0.01    0.04
   0  -4   4    0.06    0.02
   0  -4   4    0.04    0.02
   0  -4   4    0.08    0.02
   0  -4   4    0.04    0.02
  -1   4  -4   26.78    0.54
  -1   4  -4   27.10    0.54
   1  -4   4   26.94    0.53
   1  -4   4   26.59    0.53
   1  -4   4   27.10    0.53
   1  -4   4   26.29    0.59
   1  -4   4   27.26    0.53
   1  -4   4   25.93    0.53
  -2   4  -4   13.90    0.31
  -2   4  -4   12.93    0.33
  -2   4  -4   13.63    0.30
   2  -4   4   13.84    0.30
   2  -4   4   13.91    0.30
   2  -4   4   14.40    0.30
   2  -4   4   13.77    0.35
  -3   4  -4    1.25    0.07
   3  -4   4    1.15    0.09
   3  -4   4    1.29    0.07
   3  -4   4    1.28    0.07
   3  -4   4    1.24    0.07
  -4   4  -4    8.29    0.23
   4  -4   4    8.65    0.22
   4  -4   4    8.35    0.22
   4  -4   4    8.89    0.25
   4  -4   4    8.40    0.22
  -5   4  -4    0.57    0.07
   5  -4   4    0.70    0.08
   5  -4   4    0.55    0.06
   5  -4   4    0.55    0.06
   5  -4   4    0.61    0.06
  -6   4  -4    0.31    0.06
   6  -4   4    0.29    0.05
   6  -4   4    0.28    0.12
   6  -4   4    0.42    0.06
   6  -4   4    0.28    0.12
   6  -4   4    0.36    0.06
   6  -4   4    0.38    0.06
  -7   4  -4    0.66    0.09
   7  -4   4    0.60    0.18
   7  -4   4    0.79    0.09
   7  -4   4    0.70    0.08
   7  -4   4    0.60    0.18
   7  -4   4    0.70    0.09
   8   3  -4    4.92    0.21
   8   3  -4    4.70    0.21
   8   3  -4    4.66    0.21
  -8  -3   4    4.64    0.17
  -8  -3   4    4.91    0.19
  -8  -3   4    4.64    0.29
  -8  -3   4    5.03    0.21
  -8  -3   4    4.60    0.20
  -8  -3   4    4.70    0.21
  -8  -3   4    4.43    0.18
  -8  -3   4    4.78    0.20
  -8  -3   4    4.78    0.19
   7   3  -4    2.12    0.13
   7   3  -4    2.19    0.14
   7   3  -4    2.06    0.13
  -7  -3   4    2.18    0.13
  -7  -3   4    2.24    0.12
  -7  -3   4    1.82    0.35
  -7  -3   4    2.23    0.13
  -7  -3   4    2.21    0.13
  -7  -3   4    2.29    0.17
  -7  -3   4    2.07    0.13
  -7  -3   4    2.11    0.12
  -7  -3   4    2.01    0.17
  -7  -3   4    2.05    0.12
  -7  -3   4    2.25    0.11
   6   3  -4    0.71    0.08
   6   3  -4    0.65    0.07
   6   3  -4    0.72    0.08
  -6  -3   4    0.52    0.05
  -6  -3   4    0.68    0.08
  -6  -3   4    0.60    0.07
  -6  -3   4    0.37    0.17
  -6  -3   4    0.52    0.09
  -6  -3   4    0.57    0.05
  -6  -3   4    0.53    0.07
  -6  -3   4    0.62    0.10
  -6  -3   4    0.61    0.07
  -6  -3   4    0.58    0.07
  -6  -3   4    0.58    0.07
  -6  -3   4    0.48    0.08
  -6  -3   4    0.60    0.07
  -6  -3   4    0.34    0.17
   5   3  -4    0.48    0.06
   5   3  -4    0.55    0.07
   5   3  -4    0.42    0.06
  -5  -3   4    0.64    0.08
  -5  -3   4    0.47    0.05
  -5  -3   4    0.47    0.06
  -5  -3   4    0.41    0.06
  -5  -3   4    0.55    0.08
  -5  -3   4    0.83    0.21
  -5  -3   4    0.68    0.05
  -5  -3   4    0.62    0.08
  -5  -3   4    0.51    0.06
  -5  -3   4    0.57    0.04
  -5  -3   4    0.47    0.06
  -5  -3   4    0.45    0.06
  -5  -3   4    0.47    0.06
  -5  -3   4    0.50    0.05
  -5  -3   4    0.84    0.20
   4   3  -4    4.91    0.15
   4   3  -4    4.85    0.15
   4   3  -4    4.88    0.15
  -4  -3   4    4.96    0.15
  -4  -3   4    5.03    0.14
  -4  -3   4    3.92    0.33
  -4  -3   4    5.15    0.16
  -4  -3   4    4.44    0.16
  -4  -3   4    4.93    0.15
  -4  -3   4    4.74    0.15
  -4  -3   4    5.06    0.14
  -4  -3   4    4.89    0.15
  -4  -3   4    5.01    0.14
  -4  -3   4    4.74    0.16
  -4  -3   4    4.59    0.18
  -4  -3   4    3.82    0.32
   3   3  -4    3.53    0.12
   3   3  -4    3.36    0.11
   3   3  -4    3.34    0.11
   3   3  -4    3.36    0.12
  -3  -3   4    3.43    0.12
  -3  -3   4    3.58    0.10
  -3  -3   4    3.38    0.11
  -3  -3   4    3.39    0.12
  -3  -3   4    3.56    0.15
  -3  -3   4    3.75    0.25
  -3  -3   4    3.34    0.10
  -3  -3   4    3.36    0.11
  -3  -3   4    3.19    0.11
  -3  -3   4    3.52    0.09
  -3  -3   4    3.28    0.11
  -3  -3   4    3.51    0.24
   2   3  -4    2.08    0.07
   2   3  -4    1.95    0.07
   2   3  -4    1.89    0.07
   2   3  -4    1.99    0.07
  -2  -3   4    1.92    0.09
  -2  -3   4    1.88    0.07
  -2  -3   4    2.01    0.05
  -2  -3   4    1.84    0.07
  -2  -3   4    1.89    0.07
  -2  -3   4    1.91    0.11
  -2  -3   4    1.94    0.05
   1   3  -4    1.94    0.06
   1   3  -4    1.92    0.06
   1   3  -4    1.94    0.06
  -1  -3   4    2.04    0.06
  -1  -3   4    2.06    0.06
  -1  -3   4    1.97    0.06
  -1  -3   4    1.99    0.11
  -1  -3   4    2.05    0.07
  -1  -3   4    2.02    0.06
  -1  -3   4    1.95    0.09
   0   3  -4    2.33    0.06
   0   3  -4    2.41    0.07
   0   3  -4    2.26    0.06
   0   3  -4    2.52    0.06
   0  -3   4    2.25    0.06
   0  -3   4    2.24    0.07
   0  -3   4    2.34    0.06
   0  -3   4    2.42    0.06
   0  -3   4    2.29    0.10
   0  -3   4    2.33    0.06
   0  -3   4    2.42    0.07
   0  -3   4    2.31    0.12
  -1   3  -4    3.04    0.08
  -1   3  -4    2.90    0.08
  -1   3  -4    2.96    0.08
  -1   3  -4    2.93    0.07
   1  -3   4    3.05    0.08
   1  -3   4    2.98    0.08
   1  -3   4    2.95    0.07
   1  -3   4    2.98    0.08
   1  -3   4    3.09    0.12
   1  -3   4    3.02    0.07
   1  -3   4    2.93    0.08
   1  -3   4    2.91    0.14
  -2   3  -4    4.39    0.11
  -2   3  -4    4.16    0.11
  -2   3  -4    4.45    0.11
  -2   3  -4    4.43    0.11
  -2   3  -4    4.44    0.12
   2  -3   4    4.40    0.11
   2  -3   4    4.36    0.15
   2  -3   4    4.31    0.11
   2  -3   4    4.34    0.11
   2  -3   4    4.45    0.11
   2  -3   4    4.33    0.12
   2  -3   4    4.27    0.11
  -3   3  -4    0.73    0.05
  -3   3  -4    0.67    0.05
   3  -3   4    0.73    0.05
   3  -3   4    0.84    0.05
   3  -3   4    0.74    0.05
   3  -3   4    0.71    0.07
  -4   3  -4    1.88    0.09
  -4   3  -4    1.84    0.09
   4  -3   4    1.79    0.08
   4  -3   4    1.92    0.09
   4  -3   4    1.73    0.08
   4  -3   4    1.93    0.10
  -5   3  -4    0.88    0.07
  -5   3  -4    0.82    0.08
   5  -3   4    0.79    0.14
   5  -3   4    0.84    0.14
   5  -3   4    0.84    0.07
   5  -3   4    0.75    0.05
   5  -3   4    0.68    0.06
   5  -3   4    0.71    0.07
   5  -3   4    0.65    0.07
  -6   3  -4    1.31    0.09
  -6   3  -4    1.13    0.09
   6  -3   4    1.17    0.07
   6  -3   4    1.09    0.09
   6  -3   4    1.07    0.09
   6  -3   4    1.22    0.09
   6  -3   4    1.19    0.09
   6  -3   4    1.03    0.18
   6  -3   4    1.06    0.20
  -7   3  -4    0.19    0.06
  -7   3  -4    0.08    0.05
   7  -3   4    0.11    0.11
   7  -3   4    0.09    0.05
   7  -3   4    0.18    0.05
   7  -3   4    0.11    0.04
   7  -3   4    0.05    0.10
   7  -3   4    0.05    0.11
   7  -3   4    0.09    0.05
  -8   3  -4    0.06    0.05
  -8   3  -4    0.12    0.07
   8  -3   4    0.07    0.06
   8  -3   4    0.09    0.14
   8  -3   4    0.07    0.05
   8  -3   4    0.19    0.14
   8  -3   4    0.10    0.06
   8  -3   4    0.17    0.14
   8  -3   4    0.23    0.05
   9   2  -4    0.23    0.07
   9   2  -4    0.10    0.07
   9   2  -4    0.14    0.07
  -9  -2   4    0.05    0.07
  -9  -2   4    0.16    0.07
  -9  -2   4    0.06    0.07
  -9  -2   4    0.26    0.07
  -9  -2   4    0.27    0.07
  -9  -2   4    0.21    0.07
  -9  -2   4    0.25    0.07
  -9  -2   4    0.23    0.06
   8   2  -4    2.31    0.15
   8   2  -4    2.18    0.14
   8   2  -4    2.42    0.15
  -8  -2   4    2.30    0.15
  -8  -2   4    2.26    0.14
  -8  -2   4    2.29    0.15
  -8  -2   4    2.46    0.15
  -8  -2   4    2.24    0.13
  -8  -2   4    2.32    0.14
  -8  -2   4    2.24    0.14
  -8  -2   4    2.00    0.12
  -8  -2   4    2.33    0.14
   7   2  -4    0.68    0.09
   7   2  -4    0.63    0.08
   7   2  -4    0.60    0.08
  -7  -2   4    0.64    0.08
  -7  -2   4    0.59    0.07
  -7  -2   4    0.60    0.11
  -7  -2   4    0.50    0.07
  -7  -2   4    0.77    0.27
  -7  -2   4    0.37    0.07
  -7  -2   4    0.49    0.07
  -7  -2   4    0.62    0.08
  -7  -2   4    0.61    0.08
  -7  -2   4    0.48    0.08
   6   2  -4    3.13    0.14
   6   2  -4    2.87    0.14
   6   2  -4    3.07    0.14
  -6  -2   4    3.12    0.14
  -6  -2   4    3.45    0.19
  -6  -2   4    3.45    0.12
  -6  -2   4    3.69    0.19
  -6  -2   4    3.06    0.12
  -6  -2   4    3.00    0.13
  -6  -2   4    2.98    0.13
  -6  -2   4    4.21    0.55
  -6  -2   4    2.92    0.13
  -6  -2   4    3.28    0.15
  -6  -2   4    3.01    0.14
  -6  -2   4    2.84    0.13
   5   2  -4    0.05    0.03
   5   2  -4   -0.02    0.03
   5   2  -4    0.00    0.03
  -5  -2   4   -0.02    0.08
  -5  -2   4    0.05    0.03
  -5  -2   4    0.00    0.03
  -5  -2   4    0.00    0.04
  -5  -2   4    0.00    0.03
  -5  -2   4    0.03    0.03
  -5  -2   4    0.02    0.09
  -5  -2   4    0.01    0.02
  -5  -2   4    0.04    0.03
  -5  -2   4    0.01    0.04
  -5  -2   4    0.01    0.04
  -5  -2   4    0.02    0.03
  -5  -2   4    0.01    0.03
   4   2  -4   11.44    0.29
   4   2  -4   11.89    0.29
   4   2  -4   11.46    0.29
  -4  -2   4   11.95    0.25
  -4  -2   4   12.25    0.25
  -4  -2   4   11.60    0.29
  -4  -2   4   12.00    0.33
  -4  -2   4   11.63    0.27
  -4  -2   4   11.43    0.28
  -4  -2   4   11.86    0.29
  -4  -2   4   11.64    0.28
  -4  -2   4   11.65    0.27
  -4  -2   4   12.08    0.32
  -4  -2   4   12.74    0.58
  -4  -2   4   11.59    0.28
  -4  -2   4   12.27    0.28
  -4  -2   4   12.55    0.59
  -4  -2   4   12.11    0.32
   3   2  -4    4.88    0.14
   3   2  -4    4.78    0.14
   3   2  -4    4.72    0.14
   3   2  -4    4.56    0.14
  -3  -2   4    4.84    0.18
  -3  -2   4    4.64    0.12
  -3  -2   4    4.69    0.13
  -3  -2   4    4.88    0.12
  -3  -2   4    4.61    0.29
  -3  -2   4    4.66    0.13
  -3  -2   4    4.76    0.14
  -3  -2   4    4.54    0.14
  -3  -2   4    4.68    0.12
  -3  -2   4    4.68    0.13
  -3  -2   4    4.70    0.13
  -3  -2   4    4.77    0.29
   2   2  -4   74.11    1.40
   2   2  -4   72.51    1.41
   2   2  -4   74.93    1.40
   2   2  -4   72.05    1.40
  -2  -2   4   72.44    1.42
  -2  -2   4   74.85    1.38
  -2  -2   4   73.73    1.38
  -2  -2   4   74.52    1.40
  -2  -2   4   73.43    1.40
  -2  -2   4   72.87    1.40
  -2  -2   4   71.48    1.47
  -2  -2   4   73.02    1.38
   1   2  -4    9.79    0.21
   1   2  -4   10.02    0.21
   1   2  -4   10.48    0.21
  -1  -2   4   10.50    0.21
  -1  -2   4    9.95    0.21
  -1  -2   4   10.10    0.25
  -1  -2   4   10.48    0.21
  -1  -2   4   10.02    0.28
  -1  -2   4    9.93    0.21
  -1  -2   4   10.20    0.21
   0  -2   4   43.61    0.92
   0  -2   4   44.46    0.83
   0  -2   4   44.70    0.83
   0  -2   4   43.01    0.88
  -1   2  -4   33.13    0.64
   1  -2   4   32.57    0.63
   1  -2   4   33.27    0.72
   1  -2   4   33.26    0.63
   1  -2   4   33.33    0.68
  -2   2  -4    0.01    0.01
  -2   2  -4   -0.01    0.01
  -2   2  -4    0.03    0.01
  -2   2  -4    0.02    0.01
  -2   2  -4    0.05    0.01
   2  -2   4    0.00    0.01
   2  -2   4    0.02    0.03
   2  -2   4    0.01    0.01
   2  -2   4    0.02    0.01
   2  -2   4    0.00    0.01
   2  -2   4    0.02    0.01
  -3   2  -4   11.83    0.26
  -3   2  -4   11.80    0.29
  -3   2  -4   11.93    0.26
  -3   2  -4   12.09    0.26
  -3   2  -4   11.85    0.26
   3  -2   4   12.31    0.26
   3  -2   4   11.77    0.26
   3  -2   4   11.93    0.26
   3  -2   4   11.72    0.26
   3  -2   4   12.06    0.29
   3  -2   4   11.79    0.26
   3  -2   4   12.30    0.26
  -4   2  -4   18.29    0.39
  -4   2  -4   18.57    0.40
  -4   2  -4   18.15    0.41
   4  -2   4   18.73    0.40
   4  -2   4   18.78    0.40
   4  -2   4   18.41    0.37
   4  -2   4   18.46    0.40
   4  -2   4   18.52    0.42
  -5   2  -4    0.18    0.04
  -5   2  -4    0.28    0.04
  -5   2  -4    0.16    0.04
   5  -2   4    0.25    0.03
   5  -2   4    0.24    0.03
   5  -2   4    0.16    0.04
   5  -2   4    0.22    0.09
   5  -2   4    0.26    0.04
   5  -2   4    0.17    0.04
   5  -2   4    0.21    0.04
   5  -2   4    0.13    0.09
  -6   2  -4    0.60    0.06
  -6   2  -4    0.68    0.07
  -6   2  -4    0.57    0.07
   6  -2   4    0.62    0.06
   6  -2   4    0.78    0.06
   6  -2   4    0.69    0.07
   6  -2   4    0.71    0.17
   6  -2   4    0.53    0.06
   6  -2   4    0.67    0.07
   6  -2   4    0.76    0.19
   6  -2   4    0.66    0.07
  -7   2  -4    4.61    0.18
  -7   2  -4    4.36    0.18
  -7   2  -4    4.69    0.17
   7  -2   4    4.48    0.15
   7  -2   4    4.39    0.15
   7  -2   4    3.94    0.38
   7  -2   4    4.62    0.18
   7  -2   4    4.61    0.17
   7  -2   4    4.54    0.17
   7  -2   4    3.89    0.39
  -8   2  -4    2.32    0.14
  -8   2  -4    1.94    0.14
   8  -2   4    1.93    0.11
   8  -2   4    2.05    0.11
   8  -2   4    2.31    0.14
   8  -2   4    2.00    0.13
   8  -2   4    2.06    0.13
   8  -2   4    2.39    0.34
   8  -2   4    2.32    0.35
   9   1  -4    1.30    0.14
   9   1  -4    0.99    0.12
   9   1  -4    1.22    0.14
  -9  -1   4    1.05    0.12
  -9  -1   4    1.32    0.13
  -9  -1   4    1.21    0.13
  -9  -1   4    1.29    0.12
  -9  -1   4    1.17    0.12
  -9  -1   4    1.36    0.13
  -9  -1   4    1.24    0.11
   8   1  -4    1.73    0.13
   8   1  -4    1.52    0.13
   8   1  -4    1.64    0.13
  -8  -1   4    1.73    0.11
  -8  -1   4    1.66    0.12
  -8  -1   4    1.62    0.13
  -8  -1   4    1.70    0.13
  -8  -1   4    1.69    0.13
  -8  -1   4    1.53    0.12
  -8  -1   4    1.71    0.13
  -8  -1   4    1.75    0.12
   7   1  -4    0.13    0.05
   7   1  -4    0.01    0.04
   7   1  -4    0.06    0.04
  -7  -1   4    0.09    0.04
  -7  -1   4    0.10    0.05
  -7  -1   4    0.08    0.05
  -7  -1   4    0.07    0.05
  -7  -1   4    0.10    0.05
  -7  -1   4    0.08    0.05
  -7  -1   4    0.06    0.04
  -7  -1   4    0.08    0.09
  -7  -1   4    0.11    0.05
  -7  -1   4    0.01    0.04
   6   1  -4   16.30    0.40
   6   1  -4   16.31    0.41
   6   1  -4   16.29    0.41
  -6  -1   4   16.54    0.86
  -6  -1   4   15.83    0.39
  -6  -1   4   16.64    0.40
  -6  -1   4   16.15    0.40
  -6  -1   4   16.63    0.41
  -6  -1   4   16.19    0.38
  -6  -1   4   16.20    0.40
  -6  -1   4   16.60    0.41
  -6  -1   4   16.10    0.48
  -6  -1   4   16.57    0.40
  -6  -1   4   16.41    0.48
  -6  -1   4   16.69    0.40
   5   1  -4    4.85    0.17
   5   1  -4    4.84    0.16
   5   1  -4    4.74    0.15
   5   1  -4    4.89    0.17
  -5  -1   4    5.08    0.21
  -5  -1   4    4.71    0.15
  -5  -1   4    4.61    0.16
  -5  -1   4    4.62    0.16
  -5  -1   4    4.88    0.15
  -5  -1   4    5.03    0.21
  -5  -1   4    4.89    0.16
  -5  -1   4    5.03    0.16
  -5  -1   4    4.76    0.17
  -5  -1   4    5.34    0.44
  -5  -1   4    4.85    0.16
  -5  -1   4    5.16    0.15
  -5  -1   4    5.34    0.43
   4   1  -4    5.19    0.16
   4   1  -4    5.26    0.16
   4   1  -4    4.94    0.16
   4   1  -4    5.21    0.14
  -4  -1   4    5.28    0.19
  -4  -1   4    5.06    0.16
  -4  -1   4    4.97    0.16
  -4  -1   4    5.12    0.15
  -4  -1   4    5.05    0.15
  -4  -1   4    5.22    0.14
  -4  -1   4    5.46    0.39
  -4  -1   4    5.28    0.15
  -4  -1   4    5.57    0.39
  -4  -1   4    5.58    0.20
  -4  -1   4    5.36    0.14
  -4  -1   4    5.02    0.15
   3   1  -4   18.31    0.40
   3   1  -4   18.68    0.39
   3   1  -4   18.41    0.39
   3   1  -4   18.60    0.37
   3   1  -4   18.51    0.40
  -3  -1   4   17.18    0.64
  -3  -1   4   18.27    0.35
  -3  -1   4   18.06    0.41
  -3  -1   4   18.08    0.45
  -3  -1   4   18.31    0.38
  -3  -1   4   18.86    0.38
  -3  -1   4   18.02    0.35
  -3  -1   4   18.51    0.39
  -3  -1   4   18.43    0.39
  -3  -1   4   16.81    0.64
  -3  -1   4   18.92    0.39
  -3  -1   4   17.69    0.41
  -3  -1   4   18.69    0.38
   2   1  -4   -0.01    0.02
   2   1  -4    0.00    0.02
   2   1  -4    0.00    0.02
   2   1  -4    0.05    0.02
  -2  -1   4    0.03    0.05
  -2  -1   4   -0.01    0.02
  -2  -1   4    0.01    0.02
  -2  -1   4    0.02    0.01
  -2  -1   4    0.00    0.02
  -2  -1   4    0.01    0.05
  -2  -1   4    0.02    0.02
  -2  -1   4    0.02    0.01
  -2  -1   4    0.01    0.02
  -2  -1   4    0.03    0.04
   1   1  -4    0.00    0.01
   1   1  -4    0.04    0.01
  -1  -1   4    0.00    0.03
  -1  -1   4    0.01    0.01
  -1  -1   4    0.00    0.01
  -1  -1   4    0.01    0.01
  -1  -1   4    0.01    0.01
  -1  -1   4    0.04    0.02
  -1  -1   4    0.01    0.01
   0  -1   4   21.71    0.46
   0  -1   4   21.91    0.50
   1  -1   4    2.73    0.10
   1  -1   4    2.79    0.12
  -2   1  -4   45.80    0.86
  -2   1  -4   45.24    0.86
  -2   1  -4   47.04    0.88
  -2   1  -4   44.48    0.86
   2  -1   4   42.89    0.95
   2  -1   4   46.03    0.86
   2  -1   4   46.52    0.87
   2  -1   4   44.96    0.86
   2  -1   4   44.32    0.86
   2  -1   4   45.37    0.86
   2  -1   4   46.02    0.91
  -3   1  -4    3.29    0.10
  -3   1  -4    3.21    0.09
  -3   1  -4    3.17    0.09
  -3   1  -4    3.14    0.09
  -3   1  -4    3.12    0.09
   3  -1   4    3.13    0.09
   3  -1   4    2.98    0.11
   3  -1   4    2.90    0.09
   3  -1   4    3.05    0.09
   3  -1   4    3.21    0.09
   3  -1   4    3.08    0.09
   3  -1   4    3.28    0.09
   3  -1   4    3.08    0.07
  -4   1  -4   13.14    0.30
  -4   1  -4   13.41    0.31
  -4   1  -4   13.34    0.30
  -4   1  -4   13.39    0.30
   4  -1   4   13.51    0.30
   4  -1   4   13.77    0.27
   4  -1   4   13.37    0.31
   4  -1   4   14.11    0.47
   4  -1   4   13.17    0.30
   4  -1   4   13.14    0.45
   4  -1   4   13.18    0.28
   4  -1   4   13.18    0.30
   4  -1   4   13.69    0.30
  -5   1  -4    2.27    0.10
  -5   1  -4    2.24    0.10
  -5   1  -4    2.27    0.10
  -5   1  -4    2.40    0.10
   5  -1   4    2.42    0.23
   5  -1   4    2.28    0.10
   5  -1   4    2.41    0.08
   5  -1   4    2.36    0.10
   5  -1   4    2.38    0.24
   5  -1   4    2.34    0.10
   5  -1   4    2.22    0.10
   5  -1   4    2.31    0.09
  -6   1  -4    4.66    0.16
  -6   1  -4    4.75    0.19
  -6   1  -4    4.37    0.17
  -6   1  -4    4.58    0.16
   6  -1   4    4.42    0.37
   6  -1   4    4.56    0.15
   6  -1   4    4.60    0.16
   6  -1   4    4.50    0.16
   6  -1   4    4.86    0.14
   6  -1   4    4.74    0.14
   6  -1   4    4.30    0.36
   6  -1   4    4.68    0.14
   6  -1   4    4.60    0.16
  -7   1  -4    2.59    0.13
  -7   1  -4    2.69    0.13
  -7   1  -4    2.98    0.15
   7  -1   4    2.53    0.13
   7  -1   4    2.83    0.12
   7  -1   4    2.60    0.13
   7  -1   4    2.39    0.32
   7  -1   4    2.75    0.11
   7  -1   4    2.79    0.12
   7  -1   4    2.44    0.13
   7  -1   4    2.51    0.34
  -8   1  -4    0.71    0.09
  -8   1  -4    0.81    0.10
  -8   1  -4    0.65    0.08
   8  -1   4    0.57    0.07
   8  -1   4    0.59    0.08
   8  -1   4    0.68    0.07
   8  -1   4    0.51    0.21
   8  -1   4    0.66    0.09
   8  -1   4    0.66    0.07
   8  -1   4    0.61    0.08
   8  -1   4    0.59    0.22
  -9   1  -4    0.03    0.05
  -9   1  -4    0.03    0.05
  -9   1  -4    0.03    0.06
   9  -1   4    0.05    0.14
   9  -1   4    0.05    0.05
   9  -1   4    0.04    0.05
   9  -1   4    0.04    0.04
   9  -1   4    0.04    0.04
   9  -1   4    0.16    0.06
   9   0  -4    0.30    0.08
   9   0  -4    0.29    0.08
   9   0  -4    0.25    0.08
  -9   0   4    0.22    0.07
  -9   0   4    0.21    0.08
  -9   0   4    0.19    0.07
  -9   0   4    0.23    0.06
  -9   0   4    0.36    0.08
  -9   0   4    0.32    0.08
  -9   0   4    0.46    0.10
   8   0  -4    0.55    0.09
   8   0  -4    0.47    0.08
   8   0  -4    0.45    0.08
  -8   0   4    0.55    0.08
  -8   0   4    0.49    0.08
  -8   0   4    0.49    0.08
  -8   0   4    0.52    0.07
  -8   0   4    0.47    0.08
  -8   0   4    0.62    0.08
  -8   0   4    0.46    0.08
   7   0  -4    0.20    0.06
   7   0  -4    0.31    0.07
   7   0  -4    0.36    0.07
  -7   0   4    0.34    0.07
  -7   0   4    0.34    0.06
  -7   0   4    0.23    0.06
  -7   0   4    0.28    0.06
  -7   0   4    0.39    0.06
  -7   0   4    0.33    0.07
  -7   0   4    0.31    0.07
   6   0  -4   15.46    0.39
   6   0  -4   15.19    0.38
   6   0  -4   15.70    0.39
   6   0  -4   15.96    0.37
  -6   0   4   15.18    0.47
  -6   0   4   15.23    0.37
  -6   0   4   15.44    0.39
  -6   0   4   15.52    0.38
  -6   0   4   15.04    0.39
  -6   0   4   15.57    0.38
  -6   0   4   15.12    0.38
  -6   0   4   14.96    0.84
  -6   0   4   15.69    0.38
  -6   0   4   15.25    0.49
   5   0  -4    3.73    0.15
   5   0  -4    3.79    0.13
   5   0  -4    3.70    0.14
   5   0  -4    3.64    0.14
  -5   0   4    4.14    0.14
  -5   0   4    3.77    0.14
  -5   0   4    3.75    0.14
  -5   0   4    3.37    0.37
  -5   0   4    3.74    0.14
  -5   0   4    3.88    0.14
  -5   0   4    3.95    0.14
  -5   0   4    3.44    0.18
  -5   0   4    3.68    0.14
  -5   0   4    3.59    0.38
  -5   0   4    3.73    0.13
  -5   0   4    3.64    0.13
  -5   0   4    3.86    0.19
   4   0  -4    0.45    0.05
   4   0  -4    0.48    0.04
   4   0  -4    0.43    0.06
   4   0  -4    0.42    0.05
   4   0  -4    0.39    0.05
  -4   0   4    0.54    0.05
  -4   0   4    0.54    0.07
  -4   0   4    0.45    0.05
  -4   0   4    0.33    0.05
  -4   0   4    0.45    0.05
  -4   0   4    0.64    0.08
  -4   0   4    0.45    0.05
  -4   0   4    0.45    0.04
  -4   0   4    0.42    0.05
  -4   0   4    0.73    0.18
  -4   0   4    0.39    0.05
  -4   0   4    0.41    0.05
  -4   0   4    0.76    0.19
   3   0  -4    0.48    0.05
   3   0  -4    0.48    0.04
   3   0  -4    0.46    0.05
   3   0  -4    0.57    0.05
   3   0  -4    0.45    0.04
  -3   0   4    0.54    0.04
  -3   0   4    0.46    0.06
  -3   0   4    0.42    0.04
  -3   0   4    0.43    0.04
  -3   0   4    0.51    0.04
  -3   0   4    0.35    0.12
  -3   0   4    0.45    0.04
  -3   0   4    0.51    0.04
  -3   0   4    0.49    0.05
  -3   0   4    0.46    0.04
  -3   0   4    0.39    0.12
  -3   0   4    0.46    0.06
   2   0  -4   84.26    1.65
   2   0  -4   85.46    1.65
   2   0  -4   85.02    1.65
   2   0  -4   85.15    1.65
   2   0  -4   85.09    1.63
  -2   0   4   89.93    1.92
  -2   0   4   85.55    1.64
  -2   0   4   86.11    1.64
  -2   0   4   89.01    1.66
  -2   0   4   84.58    1.65
  -2   0   4   85.92    1.65
  -2   0   4   84.63    1.65
  -2   0   4   86.51    1.64
  -2   0   4   90.89    1.94
  -2   0   4   86.98    1.66
  -2   0   4   88.10    1.71
   1   0  -4    1.10    0.04
   1   0  -4    1.18    0.05
  -1   0   4    1.10    0.04
  -1   0   4    1.05    0.05
  -1   0   4    1.12    0.04
  -1   0   4    1.09    0.04
  -1   0   4    1.08    0.06
  -1   0   4    1.11    0.04
  -1   0   4    0.87    0.07
   0   0  -4   18.10    0.35
   0   0  -4   18.46    0.36
   0   0   4   18.68    0.35
   0   0   4   17.53    0.39
   0   0   4   18.09    0.35
   0   0   4   18.32    0.35
   0   0   4   17.83    0.42
   0   0   4   18.00    0.35
   1   0   4   58.94    1.08
   1   0   4   57.27    1.12
   1   0   4   55.21    1.15
   1   0   4   56.85    1.08
  -2   0  -4    2.89    0.09
  -2   0  -4    2.74    0.07
  -2   0  -4    2.67    0.07
   2   0   4    2.78    0.07
   2   0   4    2.78    0.07
   2   0   4    2.69    0.10
   2   0   4    2.70    0.07
   2   0   4    2.78    0.12
   2   0   4    2.61    0.07
   2   0   4    2.79    0.07
   2   0   4    2.68    0.07
  -3   0  -4    5.87    0.15
  -3   0  -4    5.67    0.15
  -3   0  -4    5.58    0.18
  -3   0  -4    5.80    0.14
  -3   0  -4    5.72    0.14
   3   0   4    5.81    0.14
   3   0   4    5.66    0.16
   3   0   4    5.90    0.12
   3   0   4    5.48    0.14
   3   0   4    5.67    0.13
   3   0   4    5.98    0.14
   3   0   4    5.64    0.14
  -4   0  -4    4.25    0.13
  -4   0  -4    4.32    0.13
  -4   0  -4    4.10    0.12
  -4   0  -4    3.97    0.13
   4   0   4    4.24    0.13
   4   0   4    4.12    0.12
   4   0   4    4.22    0.27
   4   0   4    4.15    0.13
   4   0   4    4.22    0.12
   4   0   4    3.93    0.25
   4   0   4    4.25    0.11
   4   0   4    4.01    0.12
   4   0   4    4.23    0.11
   4   0   4    4.12    0.11
  -5   0  -4   -0.04    0.03
  -5   0  -4    0.03    0.03
  -5   0  -4    0.00    0.03
  -5   0  -4   -0.01    0.03
   5   0   4   -0.01    0.02
   5   0   4   -0.01    0.02
   5   0   4   -0.02    0.03
   5   0   4   -0.02    0.02
   5   0   4    0.01    0.03
   5   0   4    0.02    0.03
   5   0   4   -0.02    0.02
   5   0   4    0.00    0.06
   5   0   4   -0.01    0.07
   5   0   4    0.02    0.03
   5   0   4    0.01    0.02
  -6   0  -4    0.24    0.05
  -6   0  -4    0.17    0.04
  -6   0  -4    0.18    0.05
  -6   0  -4    0.12    0.05
   6   0   4    0.18    0.04
   6   0   4    0.17    0.04
   6   0   4    0.12    0.03
   6   0   4    0.13    0.04
   6   0   4    0.12    0.04
   6   0   4    0.14    0.04
   6   0   4    0.13    0.05
   6   0   4    0.12    0.11
   6   0   4    0.14    0.04
   6   0   4    0.15    0.02
   6   0   4    0.06    0.10
  -7   0  -4    4.43    0.17
  -7   0  -4    4.05    0.16
  -7   0  -4    4.17    0.17
  -7   0  -4    4.60    0.18
   7   0   4    4.39    0.17
   7   0   4    4.45    0.43
   7   0   4    4.32    0.15
   7   0   4    4.23    0.11
   7   0   4    4.02    0.40
   7   0   4    4.13    0.16
   7   0   4    4.41    0.17
   7   0   4    4.51    0.15
   7   0   4    4.24    0.15
   7   0   4    4.54    0.19
  -8   0  -4    0.83    0.10
  -8   0  -4    1.00    0.10
  -8   0  -4    0.91    0.10
  -8   0  -4    0.96    0.10
   8   0   4    1.07    0.29
   8   0   4    0.91    0.09
   8   0   4    0.89    0.08
   8   0   4    0.88    0.11
   8   0   4    0.90    0.06
   8   0   4    0.78    0.36
   8   0   4    0.99    0.09
   8   0   4    0.87    0.11
   8   0   4    0.73    0.09
   8   0   4    0.77    0.08
   8   0   4    0.73    0.09
  -9   0  -4    0.69    0.09
  -9   0  -4    0.54    0.09
  -9   0  -4    0.70    0.10
   9   0   4    0.63    0.06
   9   0   4    0.49    0.07
   9   0   4    0.55    0.07
   9   0   4    0.51    0.24
   9   0   4    0.60    0.09
   9   0   4    0.55    0.10
   9   0   4    0.55    0.09
   9   0   4    0.39    0.08
   9   0   4    0.50    0.07
   9  -1  -4    2.97    0.18
   9  -1  -4    2.56    0.17
   9  -1  -4    2.58    0.17
  -9   1   4    2.41    0.17
  -9   1   4    2.63    0.17
  -9   1   4    2.37    0.16
  -9   1   4    2.30    0.16
  -9   1   4    2.66    0.18
  -9   1   4    2.66    0.16
   8  -1  -4    1.59    0.13
   8  -1  -4    1.50    0.14
   8  -1  -4    1.60    0.13
  -8   1   4    1.74    0.13
  -8   1   4    1.65    0.13
  -8   1   4    1.49    0.12
  -8   1   4    1.70    0.13
  -8   1   4    1.70    0.13
  -8   1   4    1.33    0.13
  -8   1   4    1.74    0.13
   7  -1  -4    0.99    0.10
   7  -1  -4    1.27    0.11
   7  -1  -4    1.03    0.11
   7  -1  -4    1.16    0.10
  -7   1   4    0.97    0.10
  -7   1   4    1.08    0.10
  -7   1   4    1.06    0.10
  -7   1   4    1.11    0.10
  -7   1   4    1.08    0.10
  -7   1   4    0.91    0.09
  -7   1   4    1.00    0.09
   6  -1  -4    2.59    0.13
   6  -1  -4    2.57    0.12
   6  -1  -4    2.37    0.13
   6  -1  -4    2.80    0.14
  -6   1   4    2.51    0.12
  -6   1   4    2.44    0.13
  -6   1   4    2.57    0.13
  -6   1   4    2.42    0.13
  -6   1   4    2.43    0.12
  -6   1   4    2.48    0.12
  -6   1   4    2.46    0.13
   5  -1  -4    3.60    0.13
   5  -1  -4    3.52    0.14
   5  -1  -4    3.32    0.14
   5  -1  -4    3.71    0.15
   5  -1  -4    3.36    0.13
  -5   1   4    3.34    0.13
  -5   1   4    3.24    0.18
  -5   1   4    3.37    0.13
  -5   1   4    3.27    0.37
  -5   1   4    3.51    0.14
  -5   1   4    3.54    0.14
  -5   1   4    3.45    0.13
  -5   1   4    3.26    0.13
  -5   1   4    3.59    0.13
  -5   1   4    3.30    0.19
   4  -1  -4   67.13    1.37
   4  -1  -4   68.31    1.35
   4  -1  -4   68.55    1.37
   4  -1  -4   70.40    1.36
   4  -1  -4   69.15    1.37
   4  -1  -4   72.12    1.37
   4  -1  -4   70.49    1.35
  -4   1   4   68.58    1.37
  -4   1   4   68.58    1.36
  -4   1   4   68.85    1.37
  -4   1   4   68.89    1.45
  -4   1   4   68.90    1.36
  -4   1   4   71.52    1.92
  -4   1   4   68.42    1.35
  -4   1   4   68.49    1.91
  -4   1   4   69.96    1.35
  -4   1   4   68.91    1.36
  -4   1   4   71.01    1.45
  -4   1   4   70.21    1.36
   3  -1  -4    3.62    0.11
   3  -1  -4    3.56    0.12
   3  -1  -4    3.43    0.12
   3  -1  -4    3.62    0.11
   3  -1  -4    3.45    0.12
   3  -1  -4    3.48    0.12
  -3   1   4    3.49    0.10
  -3   1   4    3.61    0.15
  -3   1   4    3.49    0.11
  -3   1   4    3.87    0.32
  -3   1   4    3.47    0.11
  -3   1   4    3.48    0.11
  -3   1   4    3.48    0.12
  -3   1   4    3.23    0.11
  -3   1   4    3.81    0.32
  -3   1   4    3.39    0.12
  -3   1   4    3.57    0.15
  -3   1   4    3.48    0.11
   2  -1  -4    2.40    0.09
   2  -1  -4    2.44    0.09
   2  -1  -4    2.55    0.09
   2  -1  -4    2.51    0.09
   2  -1  -4    2.55    0.08
  -2   1   4    2.59    0.23
  -2   1   4    2.27    0.08
  -2   1   4    2.54    0.11
  -2   1   4    2.45    0.07
  -2   1   4    2.43    0.09
  -2   1   4    2.64    0.23
  -2   1   4    2.50    0.07
  -2   1   4    2.37    0.08
  -2   1   4    2.41    0.08
  -2   1   4    2.43    0.08
  -2   1   4    2.52    0.09
  -2   1   4    2.59    0.11
   1  -1  -4    0.05    0.02
   1  -1  -4    0.06    0.02
   1  -1  -4    0.05    0.02
  -1   1   4    0.11    0.07
  -1   1   4    0.13    0.06
  -1   1   4    0.07    0.02
  -1   1   4    0.09    0.02
  -1   1   4    0.06    0.02
  -1   1   4    0.04    0.02
  -1   1   4    0.04    0.02
  -1   1   4    0.07    0.03
  -1   1   4    0.06    0.02
  -1   1   4    0.04    0.02
  -1   1   4    0.06    0.02
   0  -1  -4   11.17    0.23
   0  -1  -4   11.22    0.23
   0   1   4   10.46    0.30
   0   1   4   11.29    0.23
   0   1   4   11.48    0.22
   0   1   4    9.93    0.30
   0   1   4   11.43    0.22
   0   1   4   11.16    0.23
   0   1   4   11.03    0.28
   0   1   4   10.92    0.23
  -1  -1  -4    4.06    0.10
   1   1   4    4.23    0.10
   1   1   4    4.17    0.10
   1   1   4    3.95    0.10
   1   1   4    4.14    0.09
   1   1   4    4.19    0.10
   1   1   4    4.10    0.14
   1   1   4    4.14    0.10
  -2  -1  -4    7.11    0.16
  -2  -1  -4    7.01    0.16
  -2  -1  -4    6.98    0.17
  -2  -1  -4    6.94    0.16
   2   1   4    6.78    0.16
   2   1   4    6.80    0.15
   2   1   4    6.77    0.23
   2   1   4    7.06    0.16
   2   1   4    7.17    0.14
   2   1   4    6.70    0.20
   2   1   4    6.74    0.24
   2   1   4    6.90    0.15
   2   1   4    6.99    0.16
  -3  -1  -4   15.78    0.35
  -3  -1  -4   16.06    0.36
  -3  -1  -4   16.52    0.34
  -3  -1  -4   16.20    0.34
   3   1   4   15.90    0.34
   3   1   4   15.99    0.35
   3   1   4   16.00    0.52
   3   1   4   16.10    0.33
   3   1   4   16.88    0.54
   3   1   4   16.79    0.33
   3   1   4   16.09    0.34
   3   1   4   16.11    0.34
   3   1   4   16.29    0.34
   3   1   4   16.38    0.33
   3   1   4   16.06    0.39
  -4  -1  -4    0.85    0.06
  -4  -1  -4    0.81    0.05
  -4  -1  -4    0.67    0.06
  -4  -1  -4    0.74    0.05
  -4  -1  -4    0.78    0.06
   4   1   4    0.81    0.05
   4   1   4    0.75    0.06
   4   1   4    0.71    0.05
   4   1   4    0.70    0.05
   4   1   4    0.77    0.05
   4   1   4    0.78    0.05
   4   1   4    0.69    0.05
   4   1   4    0.73    0.05
   4   1   4    0.83    0.05
   4   1   4    0.56    0.13
  -5  -1  -4    2.26    0.11
  -5  -1  -4    2.33    0.10
  -5  -1  -4    2.41    0.11
  -5  -1  -4    2.44    0.10
   5   1   4    2.45    0.10
   5   1   4    2.29    0.10
   5   1   4    2.28    0.10
   5   1   4    2.82    0.29
   5   1   4    2.36    0.09
   5   1   4    2.35    0.09
   5   1   4    2.41    0.09
   5   1   4    2.26    0.10
   5   1   4    2.31    0.25
   5   1   4    2.24    0.07
   5   1   4    2.35    0.12
  -6  -1  -4    0.04    0.04
  -6  -1  -4    0.08    0.04
  -6  -1  -4    0.07    0.04
  -6  -1  -4    0.01    0.04
   6   1   4    0.05    0.02
   6   1   4    0.08    0.10
   6   1   4   -0.02    0.09
   6   1   4   -0.01    0.03
   6   1   4    0.04    0.03
   6   1   4    0.05    0.04
   6   1   4    0.07    0.04
   6   1   4    0.05    0.03
   6   1   4    0.00    0.03
   6   1   4    0.03    0.04
   6   1   4    0.03    0.03
  -7  -1  -4    2.45    0.13
  -7  -1  -4    2.38    0.13
  -7  -1  -4    2.26    0.12
  -7  -1  -4    2.24    0.12
   7   1   4    2.22    0.09
   7   1   4    1.92    0.32
   7   1   4    2.38    0.12
   7   1   4    2.26    0.14
   7   1   4    2.45    0.11
   7   1   4    2.30    0.11
   7   1   4    2.14    0.11
   7   1   4    2.09    0.31
   7   1   4    2.21    0.11
   7   1   4    2.30    0.12
  -8  -1  -4    1.21    0.11
  -8  -1  -4    1.06    0.10
  -8  -1  -4    0.95    0.10
  -8  -1  -4    1.17    0.11
   8   1   4    1.24    0.10
   8   1   4    1.13    0.09
   8   1   4    1.02    0.12
   8   1   4    1.06    0.10
   8   1   4    1.21    0.09
   8   1   4    1.09    0.07
   8   1   4    1.17    0.10
   8   1   4    1.01    0.28
   8   1   4    1.10    0.13
   8   1   4    1.00    0.10
  -9  -1  -4    0.01    0.05
  -9  -1  -4    0.04    0.06
  -9  -1  -4   -0.02    0.05
  -9  -1  -4    0.00    0.05
   9   1   4    0.09    0.06
   9   1   4    0.08    0.15
   9   1   4    0.02    0.03
   9   1   4   -0.01    0.05
   9   1   4    0.07    0.06
   9   1   4    0.05    0.05
   9   1   4    0.07    0.05
   9   1   4    0.05    0.05
   9   1   4    0.02    0.06
   9   1   4    0.01    0.04
   8  -2  -4    0.21    0.07
   8  -2  -4    0.14    0.06
   8  -2  -4    0.12    0.05
   8  -2  -4    0.16    0.07
  -8   2   4    0.21    0.07
  -8   2   4    0.22    0.07
  -8   2   4    0.13    0.07
  -8   2   4    0.19    0.07
  -8   2   4    0.19    0.07
  -8   2   4    0.15    0.06
  -8   2   4    0.12    0.06
  -8   2   4    0.06    0.06
   7  -2  -4    0.13    0.06
   7  -2  -4    0.10    0.06
   7  -2  -4    0.15    0.06
   7  -2  -4    0.17    0.05
  -7   2   4    0.15    0.06
  -7   2   4    0.21    0.06
  -7   2   4    0.05    0.05
  -7   2   4    0.08    0.05
  -7   2   4    0.13    0.06
  -7   2   4    0.13    0.05
  -7   2   4    0.14    0.05
  -7   2   4    0.19    0.06
   6  -2  -4    1.77    0.10
   6  -2  -4    1.50    0.12
   6  -2  -4    1.85    0.11
   6  -2  -4    1.76    0.11
   6  -2  -4    1.44    0.11
  -6   2   4    1.93    0.11
  -6   2   4    2.02    0.11
  -6   2   4    1.59    0.11
  -6   2   4    1.73    0.11
  -6   2   4    1.52    0.10
  -6   2   4    1.72    0.11
  -6   2   4    1.87    0.12
  -6   2   4    1.65    0.11
   5  -2  -4    3.72    0.14
   5  -2  -4    3.31    0.14
   5  -2  -4    3.68    0.15
   5  -2  -4    3.77    0.14
   5  -2  -4    3.48    0.14
  -5   2   4    3.89    0.21
  -5   2   4    3.67    0.14
  -5   2   4    3.76    0.15
  -5   2   4    3.55    0.14
  -5   2   4    3.79    0.14
  -5   2   4    3.64    0.14
  -5   2   4    3.65    0.15
  -5   2   4    4.35    0.44
  -5   2   4    3.66    0.14
  -5   2   4    3.73    0.15
   4  -2  -4    0.13    0.04
   4  -2  -4    0.15    0.03
   4  -2  -4    0.14    0.03
   4  -2  -4    0.21    0.04
   4  -2  -4    0.17    0.04
   4  -2  -4    0.21    0.04
   4  -2  -4    0.15    0.04
  -4   2   4    0.11    0.03
  -4   2   4    0.16    0.04
  -4   2   4    0.16    0.04
  -4   2   4    0.12    0.10
  -4   2   4    0.16    0.04
  -4   2   4    0.13    0.04
  -4   2   4    0.09    0.04
  -4   2   4    0.13    0.04
  -4   2   4    0.14    0.04
  -4   2   4    0.15    0.06
  -4   2   4    0.02    0.09
  -4   2   4    0.07    0.03
  -4   2   4    0.10    0.05
   3  -2  -4    1.49    0.08
   3  -2  -4    1.47    0.08
   3  -2  -4    1.33    0.07
   3  -2  -4    1.47    0.07
   3  -2  -4    1.42    0.07
   3  -2  -4    1.29    0.07
   3  -2  -4    1.32    0.07
   3  -2  -4    1.25    0.07
  -3   2   4    1.50    0.22
  -3   2   4    1.36    0.10
  -3   2   4    1.18    0.07
  -3   2   4    1.38    0.07
  -3   2   4    1.73    0.25
  -3   2   4    1.32    0.07
  -3   2   4    1.29    0.07
  -3   2   4    1.45    0.08
  -3   2   4    1.27    0.07
  -3   2   4    1.34    0.07
  -3   2   4    1.62    0.11
  -3   2   4    1.32    0.07
  -3   2   4    1.33    0.07
   2  -2  -4   23.76    0.48
   2  -2  -4   23.14    0.49
   2  -2  -4   23.40    0.50
   2  -2  -4   23.73    0.48
   2  -2  -4   23.53    0.49
  -2   2   4   24.24    0.54
  -2   2   4   23.08    0.49
  -2   2   4   23.72    0.48
  -2   2   4   23.99    0.49
  -2   2   4   23.70    0.49
  -2   2   4   23.00    0.49
  -2   2   4   23.20    0.54
  -2   2   4   23.44    0.48
  -2   2   4   23.86    0.49
  -2   2   4   23.98    0.84
  -2   2   4   23.33    0.49
  -2   2   4   23.97    0.81
   1  -2  -4    3.56    0.11
   1  -2  -4    3.60    0.10
   1  -2  -4    3.63    0.11
   1  -2  -4    3.62    0.11
  -1   2   4    3.36    0.09
  -1   2   4    3.67    0.10
  -1   2   4    3.60    0.13
  -1   2   4    3.54    0.25
  -1   2   4    3.60    0.10
  -1   2   4    3.45    0.10
  -1   2   4    3.04    0.25
  -1   2   4    3.48    0.11
  -1   2   4    3.46    0.10
  -1   2   4    3.64    0.10
  -1   2   4    3.60    0.09
  -1   2   4    3.38    0.13
   0  -2  -4    1.83    0.06
   0  -2  -4    1.65    0.06
   0  -2  -4    1.78    0.06
   0  -2  -4    1.70    0.07
   0   2   4    1.41    0.07
   0   2   4    1.75    0.05
   0   2   4    1.66    0.06
   0   2   4    1.48    0.16
   0   2   4    1.65    0.06
   0   2   4    1.72    0.06
   0   2   4    1.71    0.06
   0   2   4    1.75    0.08
   0   2   4    1.39    0.08
   0   2   4    1.74    0.06
   0   2   4    1.58    0.05
   0   2   4    1.80    0.06
  -1  -2  -4    5.68    0.13
  -1  -2  -4    5.78    0.14
  -1  -2  -4    5.85    0.14
   1   2   4    5.77    0.14
   1   2   4    5.25    0.15
   1   2   4    5.48    0.17
   1   2   4    5.20    0.27
   1   2   4    5.83    0.13
   1   2   4    5.83    0.14
   1   2   4    5.92    0.13
   1   2   4    5.86    0.14
   1   2   4    5.58    0.15
   1   2   4    6.32    0.14
   1   2   4    5.88    0.13
  -2  -2  -4    0.60    0.04
  -2  -2  -4    0.58    0.05
  -2  -2  -4    0.58    0.04
  -2  -2  -4    0.59    0.03
   2   2   4    0.57    0.04
   2   2   4    0.41    0.11
   2   2   4    0.53    0.04
   2   2   4    0.54    0.06
   2   2   4    0.52    0.05
   2   2   4    0.53    0.04
   2   2   4    0.53    0.04
   2   2   4    0.57    0.04
   2   2   4    0.57    0.04
   2   2   4    0.57    0.04
  -3  -2  -4   67.51    1.30
  -3  -2  -4   67.83    1.29
  -3  -2  -4   66.58    1.29
  -3  -2  -4   67.51    1.29
  -3  -2  -4   67.07    1.27
   3   2   4   66.57    1.32
   3   2   4   65.84    1.27
   3   2   4   68.11    1.29
   3   2   4   65.55    1.31
   3   2   4   66.43    1.26
   3   2   4   68.60    1.26
   3   2   4   65.96    1.29
   3   2   4   63.30    1.59
   3   2   4   64.97    1.60
   3   2   4   66.19    1.27
   3   2   4   66.43    1.28
   3   2   4   65.07    1.28
   3   2   4   67.64    1.28
  -4  -2  -4    1.67    0.07
  -4  -2  -4    1.52    0.08
  -4  -2  -4    1.59    0.08
  -4  -2  -4    1.52    0.08
  -4  -2  -4    1.40    0.08
   4   2   4    1.43    0.06
   4   2   4    1.56    0.09
   4   2   4    1.49    0.07
   4   2   4    1.79    0.22
   4   2   4    1.86    0.23
   4   2   4    1.41    0.07
   4   2   4    1.44    0.07
   4   2   4    1.56    0.08
   4   2   4    1.49    0.08
   4   2   4    1.45    0.07
   4   2   4    1.45    0.07
  -5  -2  -4   50.70    1.00
  -5  -2  -4   49.71    1.02
  -5  -2  -4   49.69    1.02
  -5  -2  -4   50.05    1.01
  -5  -2  -4   51.52    1.01
   5   2   4   52.28    1.02
   5   2   4   51.92    1.48
   5   2   4   51.10    1.00
   5   2   4   51.60    1.50
   5   2   4   49.33    0.99
   5   2   4   49.30    0.98
   5   2   4   49.60    1.00
   5   2   4   49.04    1.00
   5   2   4   49.11    1.06
   5   2   4   51.07    1.00
   5   2   4   48.89    1.01
  -6  -2  -4    5.98    0.20
  -6  -2  -4    5.80    0.19
  -6  -2  -4    6.44    0.20
  -6  -2  -4    6.00    0.20
   6   2   4    5.97    0.18
   6   2   4    5.82    0.16
   6   2   4    5.96    0.19
   6   2   4    6.01    0.19
   6   2   4    6.02    0.23
   6   2   4    5.85    0.18
   6   2   4    6.09    0.46
   6   2   4    5.95    0.18
   6   2   4    6.03    0.19
   6   2   4    5.99    0.19
   6   2   4    6.43    0.49
  -7  -2  -4    2.95    0.14
  -7  -2  -4    2.81    0.14
  -7  -2  -4    2.79    0.14
  -7  -2  -4    3.06    0.15
   7   2   4    3.06    0.53
   7   2   4    2.80    0.14
   7   2   4    2.81    0.13
   7   2   4    2.75    0.13
   7   2   4    3.12    0.14
   7   2   4    2.78    0.17
   7   2   4    3.12    0.14
   7   2   4    2.62    0.12
   7   2   4    3.47    0.41
   7   2   4    2.76    0.11
   7   2   4    2.90    0.12
  -8  -2  -4    1.60    0.12
  -8  -2  -4    1.77    0.12
  -8  -2  -4    1.46    0.12
  -8  -2  -4    1.52    0.12
   8   2   4    1.58    0.11
   8   2   4    1.68    0.12
   8   2   4    1.43    0.11
   8   2   4    1.52    0.09
   8   2   4    1.68    0.12
   8   2   4    1.52    0.11
   8   2   4    1.39    0.14
   8   2   4    1.60    0.11
   8   2   4    1.51    0.33
  -9  -2  -4    3.97    0.19
  -9  -2  -4    3.84    0.19
  -9  -2  -4    3.42    0.19
  -9  -2  -4    4.08    0.19
   9   2   4    4.09    0.18
   9   2   4    3.98    0.17
   9   2   4    3.93    0.15
   9   2   4    3.72    0.18
   9   2   4    3.78    0.23
   9   2   4    4.34    0.18
   9   2   4    3.85    0.18
   9   2   4    4.24    0.18
   8  -3  -4   -0.01    0.06
   8  -3  -4    0.00    0.05
   8  -3  -4   -0.01    0.05
   8  -3  -4   -0.05    0.05
   8  -3  -4    0.06    0.06
  -8   3   4    0.01    0.06
  -8   3   4   -0.06    0.05
  -8   3   4   -0.04    0.05
  -8   3   4   -0.03    0.05
   7  -3  -4    0.34    0.07
   7  -3  -4    0.27    0.06
   7  -3  -4    0.18    0.06
   7  -3  -4    0.19    0.06
   7  -3  -4    0.20    0.06
  -7   3   4    0.30    0.07
  -7   3   4    0.12    0.06
  -7   3   4    0.20    0.07
  -7   3   4    0.23    0.06
  -7   3   4    0.15    0.06
  -7   3   4    0.20    0.06
  -7   3   4    0.28    0.07
   6  -3  -4    0.69    0.08
   6  -3  -4    0.59    0.07
   6  -3  -4    0.76    0.09
   6  -3  -4    0.72    0.09
   6  -3  -4    0.53    0.07
  -6   3   4    0.63    0.07
  -6   3   4    0.74    0.08
  -6   3   4    0.84    0.09
  -6   3   4    0.71    0.09
  -6   3   4    0.66    0.08
  -6   3   4    0.70    0.08
  -6   3   4    0.57    0.08
   5  -3  -4   -0.01    0.04
   5  -3  -4    0.02    0.04
   5  -3  -4    0.04    0.04
   5  -3  -4    0.04    0.03
   5  -3  -4    0.02    0.04
   5  -3  -4    0.05    0.04
  -5   3   4    0.04    0.04
  -5   3   4    0.04    0.04
  -5   3   4    0.03    0.04
  -5   3   4    0.04    0.04
  -5   3   4    0.02    0.04
  -5   3   4    0.03    0.04
  -5   3   4    0.02    0.04
   4  -3  -4    1.77    0.09
   4  -3  -4    1.68    0.10
   4  -3  -4    1.79    0.10
   4  -3  -4    1.71    0.10
   4  -3  -4    1.61    0.10
   4  -3  -4    1.66    0.09
   4  -3  -4    1.73    0.09
  -4   3   4    1.80    0.14
  -4   3   4    1.61    0.10
  -4   3   4    1.52    0.13
  -4   3   4    1.63    0.09
  -4   3   4    1.77    0.09
  -4   3   4    1.64    0.09
  -4   3   4    1.75    0.09
  -4   3   4    1.70    0.09
  -4   3   4    1.76    0.09
  -4   3   4    1.67    0.28
   3  -3  -4   26.73    0.57
   3  -3  -4   25.59    0.56
   3  -3  -4   25.93    0.56
   3  -3  -4   26.59    0.55
   3  -3  -4   26.46    0.56
   3  -3  -4   26.04    0.56
   3  -3  -4   26.86    0.56
   3  -3  -4   26.63    0.55
  -3   3   4   25.72    0.56
  -3   3   4   25.57    0.56
  -3   3   4   25.68    0.56
  -3   3   4   25.85    0.56
  -3   3   4   26.74    1.00
  -3   3   4   26.40    0.56
  -3   3   4   27.26    1.05
  -3   3   4   26.43    0.64
  -3   3   4   26.09    0.56
  -3   3   4   26.27    0.63
  -3   3   4   25.75    0.55
  -3   3   4   26.36    0.55
   2  -3  -4    3.26    0.11
   2  -3  -4    3.16    0.11
   2  -3  -4    3.07    0.10
   2  -3  -4    3.14    0.10
   2  -3  -4    3.19    0.11
   2  -3  -4    3.01    0.11
  -2   3   4    3.13    0.11
  -2   3   4    3.19    0.11
  -2   3   4    3.14    0.11
  -2   3   4    2.97    0.11
  -2   3   4    3.04    0.11
  -2   3   4    3.16    0.11
  -2   3   4    3.18    0.10
  -2   3   4    2.98    0.11
  -2   3   4    3.17    0.30
  -2   3   4    2.96    0.15
  -2   3   4    3.18    0.31
   1  -3  -4    0.00    0.02
   1  -3  -4   -0.01    0.02
   1  -3  -4    0.04    0.03
   1  -3  -4   -0.01    0.02
   1  -3  -4    0.00    0.02
  -1   3   4    0.00    0.02
  -1   3   4    0.01    0.02
  -1   3   4    0.00    0.03
  -1   3   4    0.07    0.03
  -1   3   4    0.03    0.07
  -1   3   4    0.03    0.02
  -1   3   4    0.03    0.03
  -1   3   4    0.01    0.02
  -1   3   4    0.03    0.02
  -1   3   4    0.00    0.02
  -1   3   4    0.00    0.07
  -1   3   4   -0.01    0.02
   0  -3  -4   50.48    0.97
   0  -3  -4   48.19    0.98
   0  -3  -4   49.76    0.98
   0  -3  -4   49.98    0.98
   0  -3  -4   49.41    0.97
   0   3   4   49.44    0.97
   0   3   4   50.43    0.97
   0   3   4   50.56    0.96
   0   3   4   48.79    1.32
   0   3   4   49.83    0.97
   0   3   4   51.45    1.33
   0   3   4   49.91    0.97
   0   3   4   50.16    0.97
   0   3   4   50.38    0.98
   0   3   4   49.76    0.96
   0   3   4   49.50    1.01
   0   3   4   49.24    1.02
   0   3   4   49.87    1.02
  -1  -3  -4   20.81    0.44
  -1  -3  -4   20.74    0.43
  -1  -3  -4   21.63    0.42
   1   3   4   20.72    0.42
   1   3   4   20.30    0.43
   1   3   4   20.66    0.42
   1   3   4   18.50    0.69
   1   3   4   21.32    0.43
   1   3   4   20.28    0.47
   1   3   4   21.15    0.43
   1   3   4   20.77    0.43
   1   3   4   20.58    0.42
   1   3   4   20.26    0.70
   1   3   4   20.66    0.43
   1   3   4   21.14    0.42
   1   3   4   20.41    0.47
   1   3   4   20.26    0.45
  -2  -3  -4    9.18    0.22
  -2  -3  -4    9.12    0.21
  -2  -3  -4    9.09    0.22
  -2  -3  -4    9.42    0.23
   2   3   4    9.30    0.25
   2   3   4    9.16    0.21
   2   3   4    9.04    0.22
   2   3   4   10.37    0.47
   2   3   4    9.47    0.21
   2   3   4    8.83    0.22
   2   3   4    9.01    0.20
   2   3   4    9.24    0.24
   2   3   4    8.82    0.22
   2   3   4   10.57    0.48
   2   3   4    9.25    0.22
   2   3   4    9.33    0.22
   2   3   4    9.12    0.21
  -3  -3  -4    7.87    0.20
  -3  -3  -4    7.51    0.20
  -3  -3  -4    7.79    0.18
  -3  -3  -4    7.45    0.19
   3   3   4    7.07    0.42
   3   3   4    7.59    0.18
   3   3   4    7.52    0.19
   3   3   4    7.83    0.20
   3   3   4    7.58    0.19
   3   3   4    7.45    0.23
   3   3   4    7.16    0.42
   3   3   4    7.43    0.19
   3   3   4    7.62    0.19
   3   3   4    7.69    0.19
   3   3   4    7.74    0.19
   3   3   4    7.58    0.21
   3   3   4    7.98    0.18
  -4  -3  -4    5.22    0.15
  -4  -3  -4    5.50    0.16
  -4  -3  -4    5.39    0.14
  -4  -3  -4    5.04    0.16
  -4  -3  -4    5.18    0.16
  -4  -3  -4    5.26    0.16
   4   3   4    5.17    0.15
   4   3   4    5.23    0.15
   4   3   4    5.24    0.15
   4   3   4    5.02    0.19
   4   3   4    4.76    0.38
   4   3   4    5.01    0.15
   4   3   4    5.24    0.15
   4   3   4    4.95    0.38
   4   3   4    5.36    0.16
   4   3   4    5.08    0.15
   4   3   4    5.14    0.14
  -5  -3  -4    6.05    0.20
  -5  -3  -4    6.59    0.20
  -5  -3  -4    6.63    0.19
  -5  -3  -4    6.63    0.19
  -5  -3  -4    6.63    0.18
   5   3   4    6.43    0.18
   5   3   4    6.84    0.19
   5   3   4    6.38    0.17
   5   3   4    5.63    0.45
   5   3   4    5.67    0.44
   5   3   4    6.48    0.18
   5   3   4    6.72    0.19
   5   3   4    6.56    0.19
   5   3   4    6.46    0.19
   5   3   4    6.88    0.20
   5   3   4    6.77    0.24
  -6  -3  -4   12.03    0.32
  -6  -3  -4   11.81    0.29
  -6  -3  -4   11.69    0.31
  -6  -3  -4   11.74    0.31
  -6  -3  -4   11.70    0.31
   6   3   4   11.91    0.37
   6   3   4   12.09    0.30
   6   3   4   11.85    0.28
   6   3   4   11.69    0.68
   6   3   4   10.95    0.68
   6   3   4   12.22    0.30
   6   3   4   11.59    0.31
   6   3   4   11.97    0.30
   6   3   4   12.24    0.31
   6   3   4   11.99    0.29
   6   3   4   12.13    0.31
  -7  -3  -4    3.01    0.14
  -7  -3  -4    2.99    0.15
  -7  -3  -4    3.04    0.14
  -7  -3  -4    2.88    0.14
   7   3   4    3.09    0.14
   7   3   4    3.11    0.14
   7   3   4    3.17    0.15
   7   3   4    2.87    0.13
   7   3   4    2.97    0.14
   7   3   4    2.23    0.36
   7   3   4    2.84    0.12
   7   3   4    2.99    0.13
   7   3   4    3.06    0.18
   7   3   4    2.94    0.13
  -8  -3  -4    1.27    0.11
  -8  -3  -4    1.22    0.11
  -8  -3  -4    1.35    0.11
  -8  -3  -4    1.32    0.12
   8   3   4    1.23    0.11
   8   3   4    1.17    0.09
   8   3   4    1.19    0.10
   8   3   4    1.31    0.10
   8   3   4    1.42    0.15
   8   3   4    1.40    0.11
   8   3   4    1.38    0.17
   8   3   4    1.02    0.10
   8   3   4    1.11    0.10
  -9  -3  -4    0.52    0.10
  -9  -3  -4    0.56    0.09
  -9  -3  -4    0.45    0.08
  -9  -3  -4    0.50    0.09
   9   3   4    0.45    0.08
   9   3   4    0.36    0.07
   9   3   4    0.59    0.07
   9   3   4    0.51    0.08
   9   3   4    0.59    0.08
   9   3   4    0.47    0.07
   9   3   4    0.46    0.08
   8  -4  -4    1.60    0.14
   8  -4  -4    1.98    0.16
   8  -4  -4    1.97    0.15
   8  -4  -4    2.03    0.14
   8  -4  -4    1.85    0.15
  -8   4   4    2.04    0.16
  -8   4   4    2.01    0.15
  -8   4   4    1.61    0.14
  -8   4   4    1.87    0.14
   7  -4  -4    0.04    0.06
   7  -4  -4    0.13    0.06
   7  -4  -4    0.08    0.05
   7  -4  -4    0.05    0.06
   7  -4  -4    0.05    0.06
  -7   4   4    0.16    0.06
  -7   4   4    0.00    0.05
  -7   4   4    0.10    0.06
  -7   4   4    0.04    0.05
   6  -4  -4    1.70    0.12
   6  -4  -4    1.66    0.11
   6  -4  -4    1.77    0.13
   6  -4  -4    1.73    0.13
   6  -4  -4    1.63    0.13
  -6   4   4    2.14    0.21
  -6   4   4    1.78    0.12
  -6   4   4    1.76    0.12
  -6   4   4    1.73    0.12
  -6   4   4    1.75    0.11
  -6   4   4    1.79    0.12
  -6   4   4    1.70    0.12
   5  -4  -4   14.63    0.39
   5  -4  -4   14.56    0.38
   5  -4  -4   14.48    0.37
   5  -4  -4   15.45    0.45
   5  -4  -4   14.23    0.38
   5  -4  -4   14.79    0.36
   5  -4  -4   15.24    0.37
  -5   4   4   14.79    0.38
  -5   4   4   14.60    0.38
  -5   4   4   14.67    0.37
  -5   4   4   14.53    0.37
  -5   4   4   14.66    0.37
  -5   4   4   14.57    0.37
  -5   4   4   14.24    0.38
   4  -4  -4    0.38    0.06
   4  -4  -4    0.40    0.06
   4  -4  -4    0.37    0.06
   4  -4  -4    0.34    0.06
   4  -4  -4    0.27    0.05
   4  -4  -4    0.34    0.05
  -4   4   4    0.34    0.05
  -4   4   4    0.41    0.06
  -4   4   4    0.42    0.06
  -4   4   4    0.22    0.05
  -4   4   4    0.37    0.06
  -4   4   4    0.26    0.05
  -4   4   4    0.37    0.06
   3  -4  -4    1.31    0.08
   3  -4  -4    1.23    0.08
   3  -4  -4    1.18    0.07
   3  -4  -4    1.07    0.08
   3  -4  -4    1.31    0.08
   3  -4  -4    1.14    0.07
   3  -4  -4    1.15    0.09
  -3   4   4    1.26    0.08
  -3   4   4    1.06    0.08
  -3   4   4    1.22    0.08
  -3   4   4    1.15    0.08
  -3   4   4    1.06    0.08
  -3   4   4    1.17    0.08
  -3   4   4    1.01    0.11
  -3   4   4    1.16    0.08
  -3   4   4    1.12    0.24
   2  -4  -4    3.70    0.13
   2  -4  -4    3.75    0.12
   2  -4  -4    3.73    0.14
   2  -4  -4    3.65    0.12
   2  -4  -4    3.64    0.13
   2  -4  -4    3.71    0.13
   2  -4  -4    3.60    0.13
   2  -4  -4    3.72    0.13
  -2   4   4    3.55    0.17
  -2   4   4    3.68    0.13
  -2   4   4    3.79    0.13
  -2   4   4    3.47    0.34
  -2   4   4    3.60    0.13
  -2   4   4    3.53    0.12
  -2   4   4    3.51    0.12
  -2   4   4    3.59    0.12
  -2   4   4    3.64    0.12
  -2   4   4    3.68    0.13
   1  -4  -4   22.22    0.49
   1  -4  -4   22.28    0.47
   1  -4  -4   22.73    0.48
   1  -4  -4   22.57    0.48
   1  -4  -4   22.43    0.47
   1  -4  -4   23.15    0.48
   1  -4  -4   22.54    0.47
   1  -4  -4   22.25    0.47
  -1   4   4   22.90    0.47
  -1   4   4   21.89    0.47
  -1   4   4   21.78    0.48
  -1   4   4   22.34    0.48
  -1   4   4   21.42    0.47
  -1   4   4   21.40    0.86
  -1   4   4   22.11    0.54
  -1   4   4   22.07    0.47
  -1   4   4   21.62    0.47
  -1   4   4   21.83    0.47
  -1   4   4   22.07    0.55
  -1   4   4   22.72    0.86
   0  -4  -4   52.53    1.02
   0  -4  -4   53.55    1.03
   0  -4  -4   51.96    1.03
   0  -4  -4   51.51    1.04
   0  -4  -4   52.88    1.02
   0  -4  -4   52.18    1.04
   0  -4  -4   51.86    1.03
   0   4   4   51.66    1.02
   0   4   4   51.88    1.03
   0   4   4   52.82    1.03
   0   4   4   52.43    1.10
   0   4   4   52.95    1.03
   0   4   4   52.71    1.10
   0   4   4   51.54    1.03
   0   4   4   51.37    1.03
   0   4   4   51.97    1.47
   0   4   4   54.26    1.48
   0   4   4   52.33    1.03
   0   4   4   51.98    1.02
  -1  -4  -4   73.11    1.43
  -1  -4  -4   75.24    1.43
  -1  -4  -4   75.09    1.43
  -1  -4  -4   74.52    1.41
  -1  -4  -4   74.20    1.41
   1   4   4   72.81    1.43
   1   4   4   72.78    1.42
   1   4   4   73.52    1.42
   1   4   4   72.30    1.42
   1   4   4   70.73    1.41
   1   4   4   74.94    1.41
   1   4   4   72.40    1.41
   1   4   4   73.01    1.42
   1   4   4   69.38    1.48
   1   4   4   75.21    1.87
   1   4   4   76.82    1.89
   1   4   4   72.90    1.42
   1   4   4   71.68    1.85
  -2  -4  -4  149.67    2.89
  -2  -4  -4  154.44    2.91
  -2  -4  -4  147.92    2.88
  -2  -4  -4  151.01    2.87
  -2  -4  -4  148.77    2.87
  -2  -4  -4  149.79    2.89
   2   4   4  148.43    2.88
   2   4   4  149.69    2.88
   2   4   4  152.73    2.95
   2   4   4  153.59    2.87
   2   4   4  148.84    2.88
   2   4   4  160.17    3.39
   2   4   4  150.92    2.89
   2   4   4  149.20    2.88
   2   4   4  148.54    2.87
   2   4   4  148.78    2.87
   2   4   4  170.36    3.45
   2   4   4  147.68    2.88
   2   4   4  153.27    2.88
  -3  -4  -4    0.84    0.07
  -3  -4  -4    0.81    0.06
  -3  -4  -4    0.82    0.05
  -3  -4  -4    0.76    0.06
  -3  -4  -4    0.66    0.05
  -3  -4  -4    0.82    0.06
   3   4   4    0.82    0.05
   3   4   4    0.73    0.06
   3   4   4    0.82    0.05
   3   4   4    0.66    0.08
   3   4   4    0.85    0.07
   3   4   4    0.73    0.18
   3   4   4    0.84    0.06
   3   4   4    0.85    0.06
   3   4   4    0.82    0.06
   3   4   4    0.73    0.06
   3   4   4    0.74    0.06
   3   4   4    0.71    0.05
   3   4   4    0.78    0.19
  -4  -4  -4    5.36    0.17
  -4  -4  -4    4.91    0.17
  -4  -4  -4    5.34    0.16
  -4  -4  -4    5.40    0.16
  -4  -4  -4    5.29    0.16
  -4  -4  -4    5.49    0.15
  -4  -4  -4    5.26    0.16
   4   4   4    5.04    0.16
   4   4   4    5.18    0.15
   4   4   4    5.24    0.16
   4   4   4    5.05    0.16
   4   4   4    5.01    0.15
   4   4   4    5.00    0.16
   4   4   4    5.25    0.16
   4   4   4    5.40    0.17
   4   4   4    5.80    0.43
   4   4   4    5.94    0.44
   4   4   4    5.59    0.21
  -5  -4  -4    0.90    0.07
  -5  -4  -4    0.91    0.07
  -5  -4  -4    1.10    0.08
  -5  -4  -4    0.93    0.08
  -5  -4  -4    1.01    0.07
  -5  -4  -4    0.85    0.07
   5   4   4    0.94    0.06
   5   4   4    0.80    0.22
   5   4   4    0.96    0.07
   5   4   4    0.89    0.10
   5   4   4    0.88    0.23
   5   4   4    0.91    0.07
   5   4   4    0.91    0.07
   5   4   4    0.87    0.07
   5   4   4    0.89    0.07
   5   4   4    0.88    0.07
   5   4   4    0.98    0.08
  -6  -4  -4    0.67    0.08
  -6  -4  -4    0.80    0.08
  -6  -4  -4    0.54    0.07
  -6  -4  -4    0.69    0.07
  -6  -4  -4    0.73    0.08
   6   4   4    0.59    0.06
   6   4   4    0.79    0.10
   6   4   4    0.61    0.06
   6   4   4    0.85    0.25
   6   4   4    0.79    0.08
   6   4   4    0.69    0.07
   6   4   4    0.67    0.07
   6   4   4    0.62    0.06
   6   4   4    0.57    0.07
   6   4   4    0.77    0.08
  -7  -4  -4   -0.03    0.04
  -7  -4  -4   -0.01    0.04
  -7  -4  -4    0.00    0.04
  -7  -4  -4    0.06    0.05
   7   4   4    0.00    0.04
   7   4   4    0.01    0.04
   7   4   4    0.06    0.05
   7   4   4    0.03    0.05
   7   4   4    0.04    0.05
   7   4   4    0.03    0.03
   7   4   4    0.03    0.04
   7   4   4    0.02    0.04
   7   4   4    0.21    0.23
   7   4   4   -0.03    0.04
  -8  -4  -4    9.35    0.30
  -8  -4  -4    9.07    0.29
  -8  -4  -4    8.83    0.29
  -8  -4  -4    8.66    0.28
   8   4   4    8.88    0.27
   8   4   4    8.66    0.27
   8   4   4    8.83    0.25
   8   4   4    8.82    0.28
   8   4   4    8.70    0.29
   8   4   4    9.00    0.27
   8   4   4    8.60    0.27
   8   4   4    8.92    0.28
  -9  -4  -4    2.85    0.17
  -9  -4  -4    3.11    0.17
  -9  -4  -4    2.89    0.17
   9   4   4    2.96    0.16
   9   4   4    2.94    0.16
   9   4   4    3.15    0.17
   9   4   4    3.05    0.14
   9   4   4    2.88    0.16
   9   4   4    3.10    0.16
   9   4   4    2.89    0.15
   7  -5  -4    1.52    0.12
   7  -5  -4    1.48    0.13
   7  -5  -4    1.15    0.12
   7  -5  -4    1.55    0.13
  -7   5   4    1.46    0.13
  -7   5   4    1.34    0.13
  -7   5   4    1.51    0.12
  -7   5   4    1.32    0.12
   6  -5  -4    1.46    0.13
   6  -5  -4    1.44    0.12
   6  -5  -4    1.47    0.11
   6  -5  -4    1.22    0.12
  -6   5   4    1.38    0.12
  -6   5   4    1.48    0.12
  -6   5   4    1.39    0.11
  -6   5   4    1.34    0.11
   5  -5  -4    0.45    0.08
   5  -5  -4    0.53    0.07
   5  -5  -4    0.36    0.07
   5  -5  -4    0.50    0.07
   5  -5  -4    0.50    0.08
   5  -5  -4    0.46    0.07
  -5   5   4    0.47    0.07
  -5   5   4    0.52    0.08
  -5   5   4    0.52    0.08
  -5   5   4    0.49    0.07
  -5   5   4    0.50    0.07
  -5   5   4    0.53    0.07
   4  -5  -4    6.23    0.21
   4  -5  -4    6.49    0.21
   4  -5  -4    6.39    0.20
   4  -5  -4    6.29    0.22
   4  -5  -4    6.34    0.22
   4  -5  -4    6.52    0.20
   4  -5  -4    6.81    0.22
  -4   5   4    6.49    0.21
  -4   5   4    6.41    0.21
  -4   5   4    6.38    0.21
  -4   5   4    6.27    0.21
  -4   5   4    6.40    0.21
  -4   5   4    6.44    0.21
  -4   5   4    6.81    0.22
   3  -5  -4    2.72    0.12
   3  -5  -4    2.76    0.13
   3  -5  -4    2.78    0.12
   3  -5  -4    2.43    0.11
   3  -5  -4    2.59    0.12
   3  -5  -4    2.78    0.12
   3  -5  -4    2.62    0.12
  -3   5   4    2.77    0.12
  -3   5   4    2.51    0.12
  -3   5   4    2.62    0.12
  -3   5   4    2.54    0.12
  -3   5   4    2.42    0.12
  -3   5   4    2.41    0.11
  -3   5   4    2.50    0.12
   2  -5  -4    4.91    0.16
   2  -5  -4    5.23    0.16
   2  -5  -4    5.11    0.18
   2  -5  -4    5.32    0.17
   2  -5  -4    5.12    0.17
   2  -5  -4    5.17    0.16
   2  -5  -4    4.87    0.17
   2  -5  -4    5.11    0.16
  -2   5   4    4.93    0.16
  -2   5   4    5.06    0.23
  -2   5   4    4.89    0.16
  -2   5   4    5.26    0.45
  -2   5   4    5.08    0.16
  -2   5   4    5.28    0.17
  -2   5   4    4.87    0.16
  -2   5   4    4.82    0.16
  -2   5   4    5.11    0.17
   1  -5  -4    4.06    0.13
   1  -5  -4    4.40    0.15
   1  -5  -4    4.28    0.14
   1  -5  -4    4.13    0.14
   1  -5  -4    4.35    0.14
   1  -5  -4    4.53    0.14
   1  -5  -4    4.14    0.15
  -1   5   4    4.26    0.14
  -1   5   4    4.20    0.14
  -1   5   4    4.10    0.14
  -1   5   4    4.02    0.14
  -1   5   4    4.21    0.20
  -1   5   4    4.04    0.39
  -1   5   4    4.23    0.19
  -1   5   4    4.10    0.38
  -1   5   4    4.13    0.14
  -1   5   4    4.21    0.14
  -1   5   4    4.09    0.14
   0  -5  -4    5.49    0.17
   0  -5  -4    5.40    0.17
   0  -5  -4    5.59    0.16
   0  -5  -4    5.59    0.16
   0  -5  -4    5.45    0.17
   0  -5  -4    5.74    0.16
   0  -5  -4    5.44    0.17
   0   5   4    5.33    0.16
   0   5   4    6.44    0.46
   0   5   4    6.01    0.23
   0   5   4    5.42    0.17
   0   5   4    5.57    0.17
   0   5   4    5.38    0.16
   0   5   4    6.09    0.44
   0   5   4    5.30    0.16
   0   5   4    5.23    0.16
   0   5   4    5.52    0.22
   0   5   4    5.76    0.16
   0   5   4    5.75    0.16
  -1  -5  -4    7.42    0.19
  -1  -5  -4    7.55    0.20
  -1  -5  -4    7.69    0.20
  -1  -5  -4    7.52    0.19
  -1  -5  -4    7.50    0.21
   1   5   4    7.16    0.20
   1   5   4    7.24    0.19
   1   5   4    7.63    0.20
   1   5   4    6.89    0.25
   1   5   4    7.65    0.20
   1   5   4    7.14    0.48
   1   5   4    7.31    0.48
   1   5   4    7.44    0.20
   1   5   4    6.99    0.47
   1   5   4    7.52    0.19
   1   5   4    7.45    0.20
   1   5   4    7.22    0.20
   1   5   4    7.55    0.20
  -2  -5  -4   95.14    1.78
  -2  -5  -4   95.12    1.81
  -2  -5  -4   94.81    1.80
  -2  -5  -4   94.47    1.78
  -2  -5  -4   94.77    1.80
  -2  -5  -4   93.76    1.80
   2   5   4   95.08    1.80
   2   5   4   92.21    1.79
   2   5   4   88.31    1.78
   2   5   4   86.41    2.32
   2   5   4   85.46    2.30
   2   5   4   93.70    1.79
   2   5   4   91.62    1.78
   2   5   4   94.70    1.79
   2   5   4   93.73    1.80
   2   5   4   94.96    1.79
   2   5   4   88.03    1.87
   2   5   4   94.25    1.79
   2   5   4   92.92    1.79
  -3  -5  -4   21.49    0.46
  -3  -5  -4   21.48    0.48
  -3  -5  -4   21.93    0.47
  -3  -5  -4   21.98    0.46
  -3  -5  -4   21.41    0.49
  -3  -5  -4   21.86    0.48
   3   5   4   21.42    0.47
   3   5   4   21.39    0.47
   3   5   4   21.72    0.55
   3   5   4   21.41    0.47
   3   5   4   21.07    0.90
   3   5   4   21.50    0.47
   3   5   4   21.67    0.45
   3   5   4   21.14    0.47
   3   5   4   21.90    0.47
   3   5   4   21.36    0.46
   3   5   4   21.23    0.91
   3   5   4   21.50    0.47
   3   5   4   22.08    0.48
  -4  -5  -4   11.42    0.30
  -4  -5  -4   11.74    0.30
  -4  -5  -4   12.17    0.29
  -4  -5  -4   11.94    0.30
  -4  -5  -4   11.66    0.29
  -4  -5  -4   11.91    0.28
  -4  -5  -4   11.76    0.29
   4   5   4   11.28    0.29
   4   5   4   11.79    0.29
   4   5   4   11.81    0.29
   4   5   4   11.42    0.29
   4   5   4   11.47    0.29
   4   5   4   10.97    0.36
   4   5   4   11.70    0.29
   4   5   4   10.45    0.63
   4   5   4   12.11    0.30
   4   5   4   11.58    0.28
  -5  -5  -4    8.50    0.25
  -5  -5  -4    8.45    0.23
  -5  -5  -4    8.66    0.25
  -5  -5  -4    8.72    0.25
  -5  -5  -4    8.42    0.24
   5   5   4    8.74    0.23
   5   5   4    8.65    0.24
   5   5   4    8.90    0.24
   5   5   4    8.45    0.31
   5   5   4    8.44    0.24
   5   5   4    8.93    0.25
   5   5   4    8.72    0.24
   5   5   4    8.41    0.24
   5   5   4    7.95    0.60
   5   5   4    8.51    0.24
  -6  -5  -4    0.46    0.07
  -6  -5  -4    0.34    0.06
  -6  -5  -4    0.42    0.07
  -6  -5  -4    0.35    0.06
  -6  -5  -4    0.33    0.06
   6   5   4    0.14    0.07
   6   5   4    0.41    0.06
   6   5   4    0.40    0.06
   6   5   4    0.40    0.07
   6   5   4    0.37    0.06
   6   5   4    0.33    0.06
   6   5   4    0.44    0.06
   6   5   4    0.37    0.06
   6   5   4    0.36    0.06
  -7  -5  -4    0.59    0.08
  -7  -5  -4    0.52    0.07
  -7  -5  -4    0.45    0.07
  -7  -5  -4    0.52    0.08
  -7  -5  -4    0.50    0.08
   7   5   4    0.61    0.07
   7   5   4    0.61    0.08
   7   5   4    0.59    0.08
   7   5   4    0.48    0.08
   7   5   4    0.44    0.07
   7   5   4    0.40    0.07
   7   5   4    0.43    0.07
   7   5   4    0.48    0.07
  -8  -5  -4    0.62    0.09
  -8  -5  -4    0.45    0.08
  -8  -5  -4    0.56    0.09
   8   5   4    0.46    0.07
   8   5   4    0.38    0.07
   8   5   4    0.62    0.09
   8   5   4    0.52    0.08
   8   5   4    0.38    0.07
   8   5   4    0.44    0.08
   8   5   4    0.50    0.08
   8   5   4    0.37    0.07
  -9  -5  -4    6.20    0.24
  -9  -5  -4    5.97    0.24
  -9  -5  -4    6.07    0.25
   9   5   4    6.21    0.24
   9   5   4    5.76    0.21
   9   5   4    6.16    0.23
   9   5   4    5.69    0.23
   9   5   4    5.95    0.23
   9   5   4    5.54    0.23
   9   5   4    6.00    0.26
   9   5   4    5.90    0.23
   7  -6  -4    0.05    0.06
   7  -6  -4    0.15    0.07
   7  -6  -4    0.12    0.07
   7  -6  -4    0.11    0.07
  -7   6   4    0.10    0.06
  -7   6   4    0.05    0.06
  -7   6   4    0.06    0.06
  -7   6   4    0.00    0.05
   6  -6  -4    0.51    0.08
   6  -6  -4    0.61    0.10
   6  -6  -4    0.54    0.09
   6  -6  -4    0.52    0.08
  -6   6   4    0.56    0.09
  -6   6   4    0.64    0.09
  -6   6   4    0.62    0.09
  -6   6   4    0.47    0.08
   5  -6  -4   25.22    0.61
   5  -6  -4   25.46    0.59
   5  -6  -4   25.70    0.61
   5  -6  -4   24.85    0.59
   5  -6  -4   25.77    0.65
   5  -6  -4   25.23    0.60
  -5   6   4   25.05    0.60
  -5   6   4   25.43    0.59
  -5   6   4   25.68    0.61
  -5   6   4   24.81    0.59
   4  -6  -4    0.23    0.06
   4  -6  -4    0.34    0.06
   4  -6  -4    0.36    0.06
   4  -6  -4    0.30    0.07
   4  -6  -4    0.26    0.06
   4  -6  -4    0.31    0.07
  -4   6   4    0.30    0.06
  -4   6   4    0.36    0.07
  -4   6   4    0.26    0.06
  -4   6   4    0.28    0.06
  -4   6   4    0.25    0.05
  -4   6   4    0.28    0.06
   3  -6  -4    0.00    0.04
   3  -6  -4    0.09    0.04
   3  -6  -4    0.02    0.04
   3  -6  -4    0.11    0.04
   3  -6  -4    0.10    0.04
   3  -6  -4   -0.02    0.04
   3  -6  -4    0.01    0.04
   3  -6  -4    0.06    0.04
  -3   6   4    0.05    0.04
  -3   6   4    0.09    0.04
  -3   6   4    0.04    0.04
  -3   6   4   -0.01    0.04
  -3   6   4    0.06    0.04
  -3   6   4    0.06    0.04
  -3   6   4    0.03    0.04
   2  -6  -4    4.68    0.17
   2  -6  -4    4.40    0.17
   2  -6  -4    4.44    0.16
   2  -6  -4    4.60    0.16
   2  -6  -4    4.51    0.15
   2  -6  -4    4.84    0.16
   2  -6  -4    4.11    0.16
  -2   6   4    4.38    0.16
  -2   6   4    4.22    0.16
  -2   6   4    4.64    0.16
  -2   6   4    4.34    0.16
  -2   6   4    4.57    0.16
   1  -6  -4    2.45    0.12
   1  -6  -4    2.37    0.11
   1  -6  -4    2.45    0.11
   1  -6  -4    2.22    0.11
   1  -6  -4    2.38    0.11
   1  -6  -4    2.30    0.12
   1  -6  -4    2.24    0.11
  -1   6   4    2.75    0.45
  -1   6   4    2.60    0.11
  -1   6   4    2.36    0.11
  -1   6   4    2.38    0.11
  -1   6   4    2.40    0.11
  -1   6   4    2.19    0.11
  -1   6   4    2.37    0.11
  -1   6   4    2.27    0.11
   0  -6  -4    0.13    0.04
   0  -6  -4    0.19    0.04
   0  -6  -4    0.13    0.03
   0  -6  -4    0.13    0.04
   0  -6  -4    0.11    0.04
   0  -6  -4    0.10    0.04
   0   6   4    0.09    0.04
   0   6   4    0.18    0.04
   0   6   4    0.12    0.04
   0   6   4    0.09    0.03
   0   6   4    0.04    0.04
   0   6   4    0.08    0.03
   0   6   4    0.10    0.05
   0   6   4    0.06    0.10
   0   6   4    0.17    0.04
   0   6   4    0.21    0.04
  -1  -6  -4    1.90    0.10
  -1  -6  -4    1.98    0.09
  -1  -6  -4    1.67    0.09
  -1  -6  -4    1.81    0.09
   1   6   4    1.74    0.09
   1   6   4    1.87    0.09
   1   6   4    1.78    0.10
   1   6   4    2.49    0.16
   1   6   4    1.79    0.09
   1   6   4    1.88    0.09
   1   6   4    2.06    0.10
   1   6   4    1.78    0.10
   1   6   4    2.52    0.33
  -2  -6  -4   32.52    0.68
  -2  -6  -4   31.24    0.67
  -2  -6  -4   31.93    0.66
  -2  -6  -4   32.59    0.67
  -2  -6  -4   31.43    0.66
  -2  -6  -4   31.68    0.67
   2   6   4   31.18    0.66
   2   6   4   31.27    0.66
   2   6   4   30.94    0.64
   2   6   4   31.29    0.66
   2   6   4   30.97    0.67
   2   6   4   31.75    0.67
   2   6   4   30.21    0.76
   2   6   4   31.41    0.66
   2   6   4   31.24    0.67
   2   6   4   31.58    1.19
   2   6   4   32.41    0.66
  -3  -6  -4   11.89    0.29
  -3  -6  -4   11.60    0.29
  -3  -6  -4   11.97    0.30
  -3  -6  -4   11.77    0.30
  -3  -6  -4   12.33    0.31
  -3  -6  -4   11.58    0.30
   3   6   4   11.75    0.29
   3   6   4   11.47    0.29
   3   6   4   11.15    0.37
   3   6   4   11.89    0.29
   3   6   4   11.41    0.69
   3   6   4   11.74    0.30
   3   6   4   12.03    0.31
   3   6   4   11.80    0.30
   3   6   4   11.69    0.29
   3   6   4   11.70    0.30
  -4  -6  -4    8.61    0.25
  -4  -6  -4    9.01    0.26
  -4  -6  -4    8.40    0.24
  -4  -6  -4    8.71    0.24
  -4  -6  -4    8.41    0.23
  -4  -6  -4    8.48    0.25
  -4  -6  -4    8.69    0.25
   4   6   4    8.47    0.24
   4   6   4   10.45    0.67
   4   6   4    8.87    0.25
   4   6   4    9.09    0.26
   4   6   4    8.68    0.24
   4   6   4    8.85    0.24
   4   6   4    8.74    0.24
   4   6   4    8.65    0.24
   4   6   4    8.43    0.24
   4   6   4    9.30    0.39
  -5  -6  -4    0.64    0.07
  -5  -6  -4    0.76    0.07
  -5  -6  -4    0.63    0.08
  -5  -6  -4    0.58    0.07
  -5  -6  -4    0.62    0.07
   5   6   4    0.66    0.07
   5   6   4    0.67    0.07
   5   6   4    0.71    0.07
   5   6   4    0.80    0.08
   5   6   4    0.73    0.08
   5   6   4    0.82    0.08
   5   6   4    0.77    0.08
   5   6   4    0.73    0.08
  -6  -6  -4    7.24    0.25
  -6  -6  -4    7.63    0.24
  -6  -6  -4    7.23    0.24
  -6  -6  -4    7.70    0.23
  -6  -6  -4    7.28    0.24
  -6  -6  -4    7.48    0.24
   6   6   4    7.21    0.23
   6   6   4    7.79    0.23
   6   6   4    7.54    0.24
   6   6   4    7.55    0.23
   6   6   4    7.42    0.23
   6   6   4    7.66    0.24
   6   6   4    7.53    0.25
   6   6   4    7.27    0.23
  -7  -6  -4    1.53    0.12
  -7  -6  -4    1.58    0.12
  -7  -6  -4    1.78    0.11
  -7  -6  -4    1.70    0.12
   7   6   4    1.60    0.11
   7   6   4    1.56    0.11
   7   6   4    1.67    0.12
   7   6   4    1.44    0.12
   7   6   4    1.50    0.11
   7   6   4    1.52    0.10
   7   6   4    1.71    0.13
   7   6   4    1.58    0.12
  -8  -6  -4    0.59    0.09
  -8  -6  -4    0.47    0.08
  -8  -6  -4    0.52    0.08
   8   6   4    0.72    0.09
   8   6   4    0.56    0.08
   8   6   4    0.68    0.09
   8   6   4    0.67    0.10
   8   6   4    0.64    0.10
   8   6   4    0.61    0.09
   8   6   4    0.58    0.08
   8   6   4    0.75    0.09
  -9  -6  -4    2.91    0.18
  -9  -6  -4    2.77    0.17
  -9  -6  -4    2.83    0.17
   9   6   4    2.92    0.18
   9   6   4    3.06    0.17
   9   6   4    2.57    0.16
   9   6   4    2.91    0.17
   9   6   4    2.79    0.17
   9   6   4    2.96    0.16
   9   6   4    2.88    0.17
   9   6   4    2.86    0.16
   6  -7  -4    0.08    0.06
   6  -7  -4    0.26    0.08
   6  -7  -4    0.27    0.07
   6  -7  -4    0.21    0.07
  -6   7   4    0.15    0.07
  -6   7   4    0.21    0.07
  -6   7   4    0.36    0.08
   5  -7  -4    2.62    0.16
   5  -7  -4    2.80    0.15
   5  -7  -4    2.55    0.15
   5  -7  -4    2.55    0.14
  -5   7   4    2.53    0.16
  -5   7   4    2.52    0.15
  -5   7   4    2.83    0.16
  -5   7   4    2.56    0.15
   4  -7  -4    2.96    0.15
   4  -7  -4    3.10    0.15
   4  -7  -4    3.00    0.15
   4  -7  -4    2.85    0.15
   4  -7  -4    2.84    0.16
   4  -7  -4    3.14    0.15
  -4   7   4    2.87    0.15
  -4   7   4    2.93    0.15
  -4   7   4    2.96    0.15
  -4   7   4    2.89    0.15
   3  -7  -4    4.13    0.17
   3  -7  -4    4.14    0.17
   3  -7  -4    4.18    0.16
   3  -7  -4    3.89    0.17
   3  -7  -4    4.22    0.17
   3  -7  -4    4.20    0.17
  -3   7   4    3.94    0.17
  -3   7   4    4.05    0.18
  -3   7   4    4.22    0.17
  -3   7   4    4.04    0.16
  -3   7   4    4.06    0.17
  -3   7   4    4.09    0.16
   2  -7  -4    1.11    0.09
   2  -7  -4    1.07    0.09
   2  -7  -4    1.08    0.10
   2  -7  -4    1.14    0.09
   2  -7  -4    0.98    0.09
   2  -7  -4    1.02    0.08
  -2   7   4    1.24    0.11
  -2   7   4    1.06    0.09
  -2   7   4    0.97    0.08
  -2   7   4    1.08    0.09
  -2   7   4    1.02    0.09
  -2   7   4    1.03    0.09
   1  -7  -4   14.70    0.36
   1  -7  -4   14.67    0.36
   1  -7  -4   14.83    0.37
   1  -7  -4   14.79    0.38
   1  -7  -4   14.17    0.37
   1  -7  -4   14.37    0.37
  -1   7   4   14.40    0.36
  -1   7   4   14.28    0.37
  -1   7   4   14.55    0.36
  -1   7   4   14.43    0.36
  -1   7   4   14.59    0.37
  -1   7   4   14.96    0.36
  -1   7   4   14.92    0.37
   0  -7  -4    1.76    0.11
   0  -7  -4    1.66    0.10
   0  -7  -4    1.81    0.11
   0  -7  -4    1.74    0.10
   0  -7  -4    1.72    0.11
   0  -7  -4    1.75    0.11
   0   7   4    1.77    0.10
   0   7   4    1.77    0.10
   0   7   4    1.82    0.10
   0   7   4    1.93    0.10
   0   7   4    1.85    0.11
   0   7   4    1.87    0.10
  -1  -7  -4   33.13    0.72
  -1  -7  -4   32.72    0.70
  -1  -7  -4   32.29    0.71
  -1  -7  -4   33.70    0.71
  -1  -7  -4   33.21    0.70
   1   7   4   33.02    0.71
   1   7   4   33.55    0.71
   1   7   4   32.98    0.71
   1   7   4   34.03    0.71
   1   7   4   33.34    0.71
   1   7   4   32.27    0.71
   1   7   4   33.37    0.72
   1   7   4   33.67    0.71
  -2  -7  -4   16.11    0.39
  -2  -7  -4   16.30    0.40
  -2  -7  -4   15.90    0.38
  -2  -7  -4   15.29    0.38
  -2  -7  -4   15.55    0.38
  -2  -7  -4   15.89    0.38
   2   7   4   16.17    0.39
   2   7   4   15.64    0.38
   2   7   4   15.64    0.38
   2   7   4   15.70    0.38
   2   7   4   15.74    0.38
   2   7   4   15.70    0.39
   2   7   4   15.40    0.38
   2   7   4   15.96    0.39
  -3  -7  -4    3.55    0.14
  -3  -7  -4    3.23    0.14
  -3  -7  -4    3.51    0.15
  -3  -7  -4    3.97    0.14
  -3  -7  -4    3.59    0.14
  -3  -7  -4    3.55    0.16
   3   7   4    3.66    0.15
   3   7   4    3.61    0.14
   3   7   4    3.70    0.14
   3   7   4    3.87    0.14
   3   7   4    3.45    0.15
   3   7   4    3.61    0.15
   3   7   4    3.38    0.14
  -4  -7  -4   10.67    0.30
  -4  -7  -4   10.64    0.30
  -4  -7  -4   10.59    0.29
  -4  -7  -4   10.75    0.28
  -4  -7  -4   10.79    0.28
  -4  -7  -4   10.70    0.29
  -4  -7  -4   10.92    0.31
   4   7   4   11.19    0.29
   4   7   4   10.71    0.30
   4   7   4   10.80    0.29
   4   7   4   10.24    0.29
   4   7   4   10.95    0.30
   4   7   4   10.35    0.29
   4   7   4   10.30    0.29
  -5  -7  -4    0.54    0.07
  -5  -7  -4    0.57    0.07
  -5  -7  -4    0.57    0.08
  -5  -7  -4    0.47    0.07
  -5  -7  -4    0.53    0.07
   5   7   4    0.54    0.07
   5   7   4    0.42    0.06
   5   7   4    0.49    0.07
   5   7   4    0.57    0.08
   5   7   4    0.58    0.08
   5   7   4    0.55    0.07
   5   7   4    0.62    0.08
   5   7   4    0.59    0.07
  -6  -7  -4    2.38    0.14
  -6  -7  -4    2.57    0.14
  -6  -7  -4    2.66    0.13
  -6  -7  -4    2.77    0.14
  -6  -7  -4    2.66    0.14
   6   7   4    2.47    0.13
   6   7   4    2.79    0.13
   6   7   4    2.60    0.14
   6   7   4    2.44    0.13
   6   7   4    2.51    0.14
   6   7   4    2.65    0.14
   6   7   4    2.60    0.13
   6   7   4    2.43    0.13
  -7  -7  -4    0.10    0.06
  -7  -7  -4    0.06    0.06
  -7  -7  -4    0.06    0.06
  -7  -7  -4    0.04    0.05
  -7  -7  -4    0.02    0.05
   7   7   4    0.09    0.04
   7   7   4    0.01    0.05
   7   7   4    0.06    0.06
   7   7   4    0.03    0.05
   7   7   4    0.13    0.06
   7   7   4    0.10    0.05
   7   7   4    0.09    0.05
   7   7   4    0.03    0.05
  -8  -7  -4    0.30    0.07
  -8  -7  -4    0.25    0.07
  -8  -7  -4    0.19    0.07
  -8  -7  -4    0.10    0.06
   8   7   4    0.11    0.06
   8   7   4    0.21    0.07
   8   7   4    0.26    0.06
   8   7   4    0.15    0.06
   8   7   4    0.17    0.06
   8   7   4    0.09    0.07
   8   7   4    0.20    0.07
   8   7   4    0.14    0.07
   5  -8  -4    2.26    0.15
   5  -8  -4    1.91    0.15
   5  -8  -4    2.21    0.14
  -5   8   4    2.25    0.16
  -5   8   4    2.33    0.16
  -5   8   4    2.47    0.16
   4  -8  -4    0.07    0.06
   4  -8  -4    0.00    0.05
   4  -8  -4    0.06    0.05
   4  -8  -4    0.02    0.05
   4  -8  -4    0.04    0.05
   4  -8  -4    0.01    0.05
  -4   8   4    0.04    0.05
  -4   8   4    0.10    0.06
  -4   8   4    0.08    0.06
  -4   8   4    0.09    0.06
   3  -8  -4    2.27    0.14
   3  -8  -4    2.40    0.13
   3  -8  -4    2.15    0.14
   3  -8  -4    2.10    0.12
   3  -8  -4    2.03    0.13
  -3   8   4    2.10    0.13
  -3   8   4    2.09    0.14
  -3   8   4    2.03    0.13
  -3   8   4    2.28    0.13
   2  -8  -4    5.24    0.20
   2  -8  -4    5.36    0.19
   2  -8  -4    5.17    0.20
   2  -8  -4    5.19    0.19
   2  -8  -4    5.37    0.20
  -2   8   4    5.10    0.20
  -2   8   4    5.32    0.19
  -2   8   4    5.03    0.20
  -2   8   4    5.13    0.19
   1  -8  -4    8.11    0.26
   1  -8  -4    7.64    0.23
   1  -8  -4    8.16    0.25
   1  -8  -4    7.80    0.24
  -1   8   4    8.38    0.27
  -1   8   4    7.95    0.24
  -1   8   4    7.75    0.24
  -1   8   4    7.47    0.24
  -1   8   4    7.80    0.24
  -1   8   4    7.70    0.24
   0  -8  -4    0.06    0.05
   0  -8  -4    0.01    0.04
   0  -8  -4    0.09    0.05
   0  -8  -4    0.01    0.04
   0  -8  -4    0.00    0.04
   0   8   4    0.07    0.04
   0   8   4    0.05    0.04
   0   8   4    0.04    0.04
   0   8   4    0.02    0.04
   0   8   4   -0.01    0.04
   0   8   4    0.10    0.05
  -1  -8  -4    5.90    0.19
  -1  -8  -4    5.86    0.20
  -1  -8  -4    5.78    0.20
  -1  -8  -4    6.12    0.20
   1   8   4    5.81    0.20
   1   8   4    5.96    0.20
   1   8   4    5.92    0.20
   1   8   4    5.69    0.20
   1   8   4    6.04    0.20
   1   8   4    5.81    0.19
  -2  -8  -4   31.98    0.72
  -2  -8  -4   33.68    0.72
  -2  -8  -4   33.22    0.72
  -2  -8  -4   33.93    0.73
  -2  -8  -4   33.70    0.72
   2   8   4   33.37    0.73
   2   8   4   32.95    0.72
   2   8   4   32.71    0.72
   2   8   4   34.62    0.73
   2   8   4   32.67    0.73
   2   8   4   33.11    0.72
   2   8   4   33.72    0.74
   2   8   4   32.87    0.73
  -3  -8  -4    0.49    0.07
  -3  -8  -4    0.55    0.07
  -3  -8  -4    0.60    0.08
  -3  -8  -4    0.36    0.06
  -3  -8  -4    0.54    0.07
   3   8   4    0.63    0.07
   3   8   4    0.44    0.07
   3   8   4    0.43    0.07
   3   8   4    0.67    0.07
   3   8   4    0.60    0.07
   3   8   4    0.69    0.08
   3   8   4    0.51    0.07
   3   8   4    0.41    0.06
  -4  -8  -4    0.21    0.05
  -4  -8  -4    0.16    0.05
  -4  -8  -4    0.32    0.06
  -4  -8  -4    0.17    0.05
  -4  -8  -4    0.23    0.06
  -4  -8  -4    0.20    0.05
   4   8   4    0.28    0.06
   4   8   4    0.15    0.05
   4   8   4    0.28    0.06
   4   8   4    0.31    0.06
   4   8   4    0.20    0.06
   4   8   4    0.22    0.05
   4   8   4    0.25    0.06
   4   8   4    0.21    0.05
  -5  -8  -4    0.36    0.07
  -5  -8  -4    0.40    0.06
  -5  -8  -4    0.36    0.07
  -5  -8  -4    0.38    0.07
   5   8   4    0.42    0.07
   5   8   4    0.28    0.06
   5   8   4    0.42    0.07
   5   8   4    0.46    0.07
   5   8   4    0.25    0.06
   5   8   4    0.22    0.06
   5   8   4    0.43    0.07
  -6  -8  -4    0.62    0.09
  -6  -8  -4    0.52    0.08
  -6  -8  -4    0.47    0.08
  -6  -8  -4    0.42    0.07
  -6  -8  -4    0.55    0.08
   6   8   4    0.50    0.07
   6   8   4    0.50    0.07
   6   8   4    0.55    0.09
   6   8   4    0.55    0.08
   6   8   4    0.45    0.08
   6   8   4    0.43    0.08
   6   8   4    0.49    0.07
  -7  -8  -4    3.65    0.18
  -7  -8  -4    4.02    0.19
  -7  -8  -4    3.95    0.19
  -7  -8  -4    3.94    0.19
  -7  -8  -4    4.32    0.19
   7   8   4    3.92    0.19
   7   8   4    3.95    0.19
   7   8   4    4.34    0.19
   7   8   4    4.07    0.19
   7   8   4    4.44    0.19
  -8  -8  -4    0.90    0.11
  -8  -8  -4    0.69    0.10
  -8  -8  -4    0.86    0.11
  -8  -8  -4    0.84    0.11
   8   8   4    0.92    0.11
   8   8   4    0.74    0.10
   8   8   4    0.93    0.12
   8   8   4    0.88    0.10
   8   8   4    0.76    0.10
   4  -9  -4    1.84    0.13
   4  -9  -4    1.55    0.18
   4  -9  -4    1.65    0.14
   4  -9  -4    1.74    0.13
   4  -9  -4    1.46    0.14
  -4   9   4    1.63    0.14
  -4   9   4    1.66    0.14
   3  -9  -4    0.96    0.11
   3  -9  -4    0.97    0.10
   3  -9  -4    1.09    0.11
   3  -9  -4    1.07    0.10
   3  -9  -4    1.11    0.12
  -3   9   4    1.28    0.11
  -3   9   4    1.26    0.12
  -3   9   4    0.80    0.10
   2  -9  -4    0.10    0.05
   2  -9  -4    0.11    0.05
   2  -9  -4    0.09    0.05
   2  -9  -4    0.17    0.06
   2  -9  -4    0.08    0.06
  -2   9   4    0.19    0.06
  -2   9   4    0.10    0.05
  -2   9   4    0.14    0.06
  -2   9   4    0.09    0.05
   1  -9  -4    2.72    0.15
   1  -9  -4    2.45    0.13
   1  -9  -4    2.62    0.15
   1  -9  -4    2.41    0.14
   1  -9  -4    2.54    0.14
  -1   9   4    2.47    0.15
  -1   9   4    2.51    0.14
  -1   9   4    2.67    0.14
  -1   9   4    2.40    0.14
   0  -9  -4    1.73    0.12
   0  -9  -4    2.01    0.12
   0  -9  -4    1.83    0.12
   0  -9  -4    2.17    0.13
   0   9   4    1.90    0.13
   0   9   4    2.09    0.12
   0   9   4    1.93    0.12
   0   9   4    1.83    0.12
  -1  -9  -4    0.53    0.07
  -1  -9  -4    0.66    0.07
  -1  -9  -4    0.50    0.07
  -1  -9  -4    0.43    0.07
  -1  -9  -4    0.44    0.07
   1   9   4    0.50    0.08
   1   9   4    0.54    0.08
   1   9   4    0.44    0.07
   1   9   4    0.40    0.06
   1   9   4    0.49    0.08
  -2  -9  -4    0.23    0.06
  -2  -9  -4    0.21    0.06
  -2  -9  -4    0.23    0.05
  -2  -9  -4    0.25    0.05
  -2  -9  -4    0.18    0.05
   2   9   4    0.32    0.06
   2   9   4    0.19    0.06
   2   9   4    0.23    0.06
   2   9   4    0.22    0.06
   2   9   4    0.24    0.06
  -3  -9  -4    3.75    0.16
  -3  -9  -4    4.12    0.18
  -3  -9  -4    4.07    0.17
  -3  -9  -4    3.96    0.16
  -3  -9  -4    4.10    0.17
  -3  -9  -4    3.97    0.17
   3   9   4    3.55    0.16
   3   9   4    3.93    0.17
   3   9   4    3.86    0.16
   3   9   4    3.99    0.18
   3   9   4    3.80    0.17
  -4  -9  -4    1.74    0.12
  -4  -9  -4    1.74    0.12
  -4  -9  -4    1.67    0.11
  -4  -9  -4    1.82    0.12
  -4  -9  -4    1.86    0.12
  -4  -9  -4    1.77    0.11
   4   9   4    1.85    0.13
   4   9   4    1.71    0.12
   4   9   4    1.60    0.12
   4   9   4    1.88    0.12
   4   9   4    1.66    0.11
  -5  -9  -4    0.53    0.08
  -5  -9  -4    0.65    0.08
  -5  -9  -4    0.56    0.08
  -5  -9  -4    0.50    0.08
   5   9   4    0.60    0.08
   5   9   4    0.74    0.10
   5   9   4    0.73    0.09
   5   9   4    0.60    0.08
   5   9   4    0.53    0.08
  -6  -9  -4    1.18    0.12
  -6  -9  -4    0.88    0.10
  -6  -9  -4    0.84    0.10
  -6  -9  -4    1.17    0.11
  -6  -9  -4    0.94    0.10
   6   9   4    0.92    0.10
   6   9   4    0.89    0.10
   6   9   4    0.96    0.11
   6   9   4    0.95    0.11
   6   9   4    0.96    0.11
  -7  -9  -4    0.11    0.06
  -7  -9  -4    0.12    0.07
  -7  -9  -4    0.12    0.06
  -7  -9  -4    0.21    0.07
  -7  -9  -4    0.07    0.06
   7   9   4    0.12    0.06
   7   9   4   -0.04    0.06
   7   9   4    0.13    0.06
   7   9   4    0.10    0.06
   7   9   4   -0.01    0.05
   3 -10  -4    0.05    0.05
   3 -10  -4    0.14    0.07
   3 -10  -4    0.07    0.06
   3 -10  -4    0.04    0.06
   3 -10  -4    0.06    0.06
  -3  10   4    0.10    0.07
  -3  10   4    0.04    0.06
   2 -10  -4    0.33    0.08
   2 -10  -4    0.32    0.07
   2 -10  -4    0.29    0.07
   2 -10  -4    0.21    0.06
   2 -10  -4    0.17    0.07
  -2  10   4    0.22    0.07
  -2  10   4    0.25    0.07
   1 -10  -4    0.57    0.09
   1 -10  -4    0.55    0.09
   1 -10  -4    0.57    0.08
   1 -10  -4    0.72    0.09
   1 -10  -4    0.45    0.08
  -1  10   4    0.63    0.09
  -1  10   4    0.52    0.08
  -1  10   4    0.60    0.08
   0 -10  -4    2.58    0.14
   0 -10  -4    2.56    0.15
   0 -10  -4    2.55    0.14
   0 -10  -4    2.22    0.14
   0  10   4    2.54    0.14
   0  10   4    2.49    0.15
   0  10   4    2.34    0.15
  -1 -10  -4    0.21    0.07
  -1 -10  -4    0.06    0.05
  -1 -10  -4    0.12    0.05
  -1 -10  -4    0.04    0.05
  -1 -10  -4    0.16    0.05
   1  10   4    0.16    0.06
   1  10   4    0.06    0.06
   1  10   4    0.09    0.05
   1  10   4    0.03    0.05
   1  10   4    0.22    0.07
  -2 -10  -4    0.14    0.06
  -2 -10  -4    0.02    0.05
  -2 -10  -4    0.02    0.04
  -2 -10  -4    0.11    0.05
  -2 -10  -4    0.16    0.06
   2  10   4    0.06    0.06
   2  10   4    0.03    0.05
   2  10   4    0.14    0.06
   2  10   4    0.08    0.05
   2  10   4    0.09    0.06
  -3 -10  -4    0.06    0.05
  -3 -10  -4    0.04    0.05
  -3 -10  -4    0.06    0.05
  -3 -10  -4    0.08    0.05
  -3 -10  -4    0.14    0.06
  -3 -10  -4    0.02    0.05
   3  10   4    0.06    0.06
   3  10   4    0.07    0.06
   3  10   4    0.10    0.06
   3  10   4   -0.04    0.04
   3  10   4    0.06    0.05
  -4 -10  -4    0.50    0.08
  -4 -10  -4    0.59    0.08
  -4 -10  -4    0.60    0.09
  -4 -10  -4    0.55    0.09
   4  10   4    0.44    0.08
   4  10   4    0.58    0.09
   4  10   4    0.52    0.08
   4  10   4    0.50    0.08
   4  10   4    0.56    0.08
  -5 -10  -4    0.03    0.05
  -5 -10  -4    0.04    0.05
  -5 -10  -4   -0.01    0.06
  -5 -10  -4    0.06    0.06
   5  10   4    0.07    0.06
   5  10   4    0.07    0.06
   5  10   4    0.03    0.05
   5  10   4    0.07    0.06
   5  10   4    0.04    0.05
  -6 -10  -4    0.35    0.08
  -6 -10  -4    0.20    0.07
  -6 -10  -4    0.30    0.07
  -6 -10  -4    0.28    0.08
  -6 -10  -4    0.41    0.08
   6  10   4    0.14    0.07
   6  10   4    0.26    0.07
   6  10   4    0.27    0.07
   6  10   4    0.20    0.07
   6  10   4    0.36    0.08
   1 -11  -4    3.62    0.18
   1 -11  -4    3.87    0.19
   1 -11  -4    3.59    0.19
   1 -11  -4    3.75    0.18
  -1  11   4    3.06    0.18
  -1  11   4    3.42    0.19
   0 -11  -4    0.80    0.10
   0 -11  -4    1.23    0.12
   0 -11  -4    1.21    0.12
   0 -11  -4    0.88    0.11
   0  11   4    0.98    0.12
   0  11   4    1.01    0.11
   0  11   4    1.06    0.12
  -1 -11  -4    4.87    0.21
  -1 -11  -4    5.02    0.22
  -1 -11  -4    4.66    0.20
  -1 -11  -4    4.70    0.20
   1  11   4    4.86    0.21
   1  11   4    4.69    0.22
   1  11   4    4.84    0.22
  -2 -11  -4    0.02    0.05
  -2 -11  -4   -0.04    0.05
  -2 -11  -4   -0.02    0.05
  -2 -11  -4   -0.07    0.04
   2  11   4   -0.01    0.06
   2  11   4    0.08    0.06
   2  11   4    0.02    0.05
  -3 -11  -4    0.34    0.08
  -3 -11  -4    0.36    0.08
  -3 -11  -4    0.40    0.08
  -3 -11  -4    0.53    0.10
  -3 -11  -4    0.23    0.07
   3  11   4    0.37    0.08
   3  11   4    0.32    0.08
   3  11   4    0.28    0.08
  -4 -11  -4    0.09    0.06
  -4 -11  -4    0.19    0.06
  -4 -11  -4    0.20    0.07
  -4 -11  -4    0.29    0.07
   4  11   4    0.13    0.06
   4  11   4    0.27    0.07
   4  11   4    0.25    0.08
  -5 -11  -4    0.43    0.08
  -5 -11  -4    0.29    0.08
  -5 -11  -4    0.35    0.08
  -5 -11  -4    0.54    0.09
   5  11   4    0.39    0.08
   5  11   4    0.51    0.10
   5  11   4    0.39    0.09
   2   9  -5    1.09    0.09
  -2  -9   5    0.99    0.09
  -2  -9   5    1.16    0.13
  -2  -9   5    1.20    0.10
  -2  -9   5    0.92    0.09
   1   9  -5    0.20    0.05
  -1  -9   5    0.24    0.05
  -1  -9   5    0.26    0.06
  -1  -9   5    0.20    0.05
  -1  -9   5    0.25    0.08
   4   8  -5    0.17    0.05
  -4  -8   5    0.19    0.06
  -4  -8   5    0.28    0.06
  -4  -8   5    0.28    0.06
  -4  -8   5    0.15    0.05
   3   8  -5    0.36    0.06
  -3  -8   5    0.27    0.05
  -3  -8   5    0.34    0.06
  -3  -8   5    0.24    0.07
  -3  -8   5    0.27    0.06
   2   8  -5   10.28    0.27
  -2  -8   5    9.65    0.27
  -2  -8   5   10.18    0.27
  -2  -8   5   10.15    0.32
  -2  -8   5    9.89    0.27
   1   8  -5    0.89    0.07
  -1  -8   5    0.85    0.08
  -1  -8   5    0.88    0.08
  -1  -8   5    1.00    0.11
  -1  -8   5    0.92    0.08
   0   8  -5    6.47    0.19
   0  -8   5    6.80    0.20
   0  -8   5    6.55    0.26
   0  -8   5    6.66    0.20
   0  -8   5    6.61    0.20
  -1   8  -5    4.13    0.14
   1  -8   5    3.89    0.20
   1  -8   5    4.16    0.15
   1  -8   5    4.30    0.16
   1  -8   5    4.22    0.15
  -2   8  -5    3.41    0.16
   2  -8   5    3.48    0.14
   2  -8   5    3.67    0.20
   2  -8   5    3.31    0.14
   2  -8   5    3.36    0.14
   6   7  -5    0.08    0.05
  -6  -7   5    0.08    0.05
  -6  -7   5    0.09    0.11
  -6  -7   5    0.13    0.05
  -6  -7   5    0.08    0.05
  -6  -7   5    0.10    0.04
  -6  -7   5    0.10    0.11
   5   7  -5    0.29    0.06
  -5  -7   5    0.27    0.04
  -5  -7   5    0.30    0.06
  -5  -7   5    0.20    0.05
  -5  -7   5    0.26    0.06
   4   7  -5   12.69    0.34
  -4  -7   5   12.91    0.34
  -4  -7   5   12.93    0.34
  -4  -7   5   12.99    0.28
  -4  -7   5   13.26    0.36
  -4  -7   5   13.57    0.34
   3   7  -5    0.43    0.06
  -3  -7   5    0.38    0.06
  -3  -7   5    0.29    0.07
  -3  -7   5    0.36    0.05
  -3  -7   5    0.35    0.06
   2   7  -5    0.02    0.03
  -2  -7   5    0.00    0.03
  -2  -7   5    0.01    0.03
  -2  -7   5    0.01    0.03
  -2  -7   5    0.01    0.05
  -2  -7   5    0.01    0.05
   1   7  -5    4.53    0.14
  -1  -7   5    4.35    0.19
  -1  -7   5    4.35    0.14
  -1  -7   5    4.25    0.14
  -1  -7   5    4.36    0.14
   0   7  -5    0.72    0.06
   0  -7   5    0.65    0.06
   0  -7   5    0.82    0.10
   0  -7   5    0.71    0.06
   0  -7   5    0.78    0.07
  -1   7  -5    4.03    0.14
   1  -7   5    4.39    0.14
   1  -7   5    4.18    0.19
   1  -7   5    4.16    0.14
   1  -7   5    4.09    0.14
  -2   7  -5    0.09    0.03
   2  -7   5    0.03    0.06
   2  -7   5    0.09    0.04
   2  -7   5   -0.05    0.03
   2  -7   5    0.04    0.03
   3  -7   5    2.20    0.11
   3  -7   5    2.08    0.15
   3  -7   5    2.37    0.12
   3  -7   5    2.26    0.11
   4  -7   5    0.01    0.06
   4  -7   5    0.01    0.04
   4  -7   5    0.04    0.04
   4  -7   5    0.03    0.04
   7   6  -5    3.17    0.16
   7   6  -5    3.20    0.17
  -7  -6   5    3.18    0.16
  -7  -6   5    3.24    0.17
  -7  -6   5    3.18    0.14
  -7  -6   5    3.04    0.17
  -7  -6   5    2.97    0.16
  -7  -6   5    2.68    0.38
  -7  -6   5    2.65    0.37
   6   6  -5    0.78    0.09
  -6  -6   5    0.89    0.23
  -6  -6   5    0.67    0.08
  -6  -6   5    0.70    0.07
  -6  -6   5    1.01    0.24
  -6  -6   5    0.85    0.09
  -6  -6   5    0.79    0.09
   5   6  -5    3.43    0.15
  -5  -6   5    3.26    0.14
  -5  -6   5    3.10    0.28
  -5  -6   5    3.37    0.14
  -5  -6   5    3.61    0.15
  -5  -6   5    2.99    0.27
  -5  -6   5    3.55    0.12
   4   6  -5    0.65    0.07
  -4  -6   5    0.57    0.07
  -4  -6   5    0.40    0.07
  -4  -6   5    0.59    0.07
  -4  -6   5    0.60    0.05
  -4  -6   5    0.59    0.07
   3   6  -5    2.34    0.11
  -3  -6   5    2.62    0.11
  -3  -6   5    2.51    0.13
  -3  -6   5    2.46    0.11
  -3  -6   5    2.65    0.15
  -3  -6   5    2.44    0.11
   2   6  -5    3.19    0.12
  -2  -6   5    3.31    0.16
  -2  -6   5    3.07    0.12
  -2  -6   5    3.40    0.12
  -2  -6   5    3.36    0.12
  -2  -6   5    3.72    0.18
   1   6  -5    1.71    0.08
  -1  -6   5    1.64    0.08
  -1  -6   5    1.61    0.08
  -1  -6   5    1.62    0.13
  -1  -6   5    1.61    0.12
  -1  -6   5    1.71    0.08
   0   6  -5   12.90    0.29
   0  -6   5   12.95    0.30
   0  -6   5   12.85    0.29
   0  -6   5   13.23    0.36
   0  -6   5   12.52    0.29
  -1   6  -5    1.29    0.07
   1  -6   5    1.34    0.07
   1  -6   5    1.34    0.07
   1  -6   5    1.36    0.07
   1  -6   5    1.37    0.11
  -2   6  -5    5.68    0.16
   2  -6   5    5.69    0.16
   2  -6   5    5.75    0.17
   2  -6   5    5.77    0.22
   2  -6   5    5.88    0.17
   3  -6   5    1.28    0.12
   3  -6   5    1.33    0.08
   3  -6   5    1.33    0.08
   3  -6   5    1.24    0.08
   4  -6   5    0.37    0.06
   4  -6   5    0.39    0.06
   4  -6   5    0.38    0.06
   4  -6   5    0.35    0.08
   5  -6   5    2.34    0.12
   5  -6   5    2.52    0.16
   5  -6   5    2.65    0.13
   5  -6   5    2.41    0.13
   7   5  -5    1.57    0.13
   7   5  -5    1.49    0.12
  -7  -5   5    1.61    0.12
  -7  -5   5    1.60    0.13
  -7  -5   5    1.45    0.12
  -7  -5   5    1.33    0.12
  -7  -5   5    1.32    0.10
  -7  -5   5    1.65    0.32
  -7  -5   5    1.67    0.32
  -7  -5   5    1.45    0.10
  -7  -5   5    1.46    0.12
  -7  -5   5    1.34    0.12
   6   5  -5    0.00    0.04
   6   5  -5    0.00    0.04
  -6  -5   5    0.01    0.11
  -6  -5   5    0.01    0.03
  -6  -5   5    0.00    0.04
  -6  -5   5   -0.04    0.04
  -6  -5   5    0.02    0.04
  -6  -5   5    0.04    0.04
  -6  -5   5    0.03    0.11
  -6  -5   5    0.05    0.04
   5   5  -5    3.81    0.16
   5   5  -5    3.85    0.15
  -5  -5   5    3.66    0.19
  -5  -5   5    4.28    0.34
  -5  -5   5    3.57    0.15
  -5  -5   5    3.63    0.15
  -5  -5   5    3.98    0.19
  -5  -5   5    4.09    0.33
  -5  -5   5    3.66    0.15
  -5  -5   5    3.79    0.13
   4   5  -5    0.08    0.04
  -4  -5   5    0.05    0.04
  -4  -5   5    0.01    0.03
  -4  -5   5    0.00    0.03
  -4  -5   5    0.04    0.02
  -4  -5   5    0.05    0.04
  -4  -5   5    0.06    0.05
   3   5  -5   19.27    0.44
  -3  -5   5   19.94    0.44
  -3  -5   5   20.03    0.44
  -3  -5   5   20.13    0.47
  -3  -5   5   20.75    0.51
  -3  -5   5   20.29    0.44
   2   5  -5   65.01    1.30
  -2  -5   5   67.09    1.31
  -2  -5   5   66.78    1.31
  -2  -5   5   67.32    1.36
  -2  -5   5   68.71    1.31
  -2  -5   5   68.22    1.40
   1   5  -5    0.90    0.06
  -1  -5   5    0.92    0.06
  -1  -5   5    0.87    0.08
  -1  -5   5    0.74    0.10
  -1  -5   5    0.91    0.06
  -1  -5   5    0.89    0.05
   0   5  -5   30.58    0.74
   0   5  -5   37.11    0.71
   0  -5   5   35.96    0.72
   0  -5   5   38.20    0.84
   0  -5   5   36.55    0.72
   0  -5   5   37.61    0.79
   0  -5   5   37.35    0.72
  -1   5  -5   12.10    0.26
   1  -5   5   12.01    0.26
   1  -5   5   11.19    0.32
   1  -5   5   11.64    0.26
   1  -5   5   11.54    0.26
   2  -5   5    0.43    0.04
   2  -5   5    0.48    0.05
   2  -5   5    0.39    0.04
   2  -5   5    0.43    0.07
   3  -5   5    1.35    0.08
   3  -5   5    1.28    0.11
   3  -5   5    1.36    0.07
   3  -5   5    1.31    0.07
  -4   5  -5    1.46    0.09
   4  -5   5    1.29    0.08
   4  -5   5    1.45    0.08
   4  -5   5    1.42    0.11
   4  -5   5    1.30    0.08
  -5   5  -5    3.60    0.15
   5  -5   5    3.61    0.14
   5  -5   5    3.31    0.14
   5  -5   5    3.66    0.17
   5  -5   5    3.34    0.14
  -6   5  -5   -0.01    0.04
   6  -5   5    0.02    0.05
   6  -5   5   -0.01    0.04
   6  -5   5    0.09    0.04
   6  -5   5    0.11    0.05
   8   4  -5    0.26    0.07
   8   4  -5    0.23    0.07
  -8  -4   5    0.23    0.06
  -8  -4   5    0.12    0.06
  -8  -4   5    0.04    0.15
  -8  -4   5    0.22    0.08
  -8  -4   5    0.06    0.06
  -8  -4   5    0.21    0.06
  -8  -4   5    0.19    0.06
  -8  -4   5    0.20    0.07
  -8  -4   5    0.21    0.04
  -8  -4   5    0.29    0.08
  -8  -4   5    0.16    0.04
  -8  -4   5    0.14    0.08
   7   4  -5    1.11    0.11
   7   4  -5    1.23    0.12
  -7  -4   5    1.27    0.11
  -7  -4   5    1.35    0.12
  -7  -4   5    1.13    0.09
  -7  -4   5    0.98    0.10
  -7  -4   5    1.21    0.17
  -7  -4   5    1.14    0.30
  -7  -4   5    1.36    0.10
  -7  -4   5    1.26    0.13
  -7  -4   5    1.34    0.12
  -7  -4   5    1.39    0.10
  -7  -4   5    1.25    0.13
  -7  -4   5    1.22    0.30
   6   4  -5    0.12    0.05
   6   4  -5    0.08    0.05
  -6  -4   5    0.12    0.05
  -6  -4   5    0.02    0.03
  -6  -4   5    0.10    0.05
  -6  -4   5    0.12    0.06
  -6  -4   5    0.01    0.04
  -6  -4   5    0.14    0.05
  -6  -4   5    0.08    0.05
  -6  -4   5    0.10    0.12
  -6  -4   5    0.08    0.12
  -6  -4   5    0.07    0.04
  -6  -4   5    0.04    0.04
  -6  -4   5    0.13    0.04
   5   4  -5    0.08    0.04
   5   4  -5    0.05    0.04
  -5  -4   5    0.04    0.10
  -5  -4   5   -0.01    0.08
  -5  -4   5    0.11    0.03
  -5  -4   5    0.14    0.04
  -5  -4   5    0.07    0.04
  -5  -4   5    0.07    0.04
  -5  -4   5    0.06    0.04
  -5  -4   5    0.04    0.05
  -5  -4   5    0.10    0.03
   4   4  -5    0.66    0.07
   4   4  -5    0.59    0.06
  -4  -4   5    0.64    0.09
  -4  -4   5    0.66    0.07
  -4  -4   5    0.63    0.06
  -4  -4   5    0.45    0.12
  -4  -4   5    0.46    0.12
  -4  -4   5    0.74    0.06
  -4  -4   5    0.74    0.05
  -4  -4   5    0.61    0.06
  -4  -4   5    0.67    0.07
   3   4  -5    0.56    0.05
   3   4  -5    0.76    0.06
  -3  -4   5    0.50    0.08
  -3  -4   5    0.60    0.04
  -3  -4   5    0.68    0.06
  -3  -4   5    0.68    0.04
  -3  -4   5    0.61    0.06
  -3  -4   5    0.66    0.07
  -3  -4   5    0.70    0.06
   2   4  -5    0.72    0.05
   2   4  -5    0.64    0.05
  -2  -4   5    0.61    0.05
  -2  -4   5    0.60    0.05
  -2  -4   5    0.63    0.08
  -2  -4   5    0.69    0.07
  -2  -4   5    0.53    0.05
   1   4  -5    0.03    0.02
   1   4  -5    0.03    0.02
  -1  -4   5    0.00    0.04
  -1  -4   5    0.04    0.02
  -1  -4   5    0.07    0.04
  -1  -4   5    0.03    0.02
  -1  -4   5    0.05    0.02
  -1  -4   5    0.03    0.02
   0   4  -5    0.25    0.02
   0   4  -5    0.23    0.03
   0  -4   5    0.22    0.03
   0  -4   5    0.18    0.05
   0  -4   5    0.20    0.03
   0  -4   5    0.21    0.02
   0  -4   5    0.20    0.02
   0  -4   5    0.22    0.06
  -1   4  -5    1.03    0.05
  -1   4  -5    1.01    0.04
   1  -4   5    1.17    0.11
   1  -4   5    1.09    0.09
   1  -4   5    1.04    0.05
   1  -4   5    1.12    0.05
   1  -4   5    1.07    0.05
   1  -4   5    1.00    0.05
  -2   4  -5    1.73    0.07
  -2   4  -5    1.62    0.07
   2  -4   5    1.80    0.07
   2  -4   5    1.71    0.07
   2  -4   5    1.69    0.11
   2  -4   5    1.73    0.07
  -3   4  -5   16.17    0.37
   3  -4   5   16.29    0.41
   3  -4   5   16.85    0.36
   3  -4   5   16.87    0.36
   3  -4   5   16.51    0.36
  -4   4  -5    0.01    0.03
   4  -4   5   -0.03    0.04
   4  -4   5    0.06    0.03
   4  -4   5    0.06    0.03
   4  -4   5    0.06    0.03
  -5   4  -5    1.13    0.09
   5  -4   5    1.16    0.08
   5  -4   5    1.05    0.08
   5  -4   5    1.07    0.10
   5  -4   5    0.99    0.08
  -6   4  -5    0.69    0.08
   6  -4   5    0.79    0.08
   6  -4   5    0.59    0.07
   6  -4   5    0.57    0.08
   6  -4   5    0.65    0.08
  -7   4  -5    1.50    0.12
   7  -4   5    1.90    0.12
   7  -4   5    1.67    0.11
   7  -4   5    1.61    0.11
   8   3  -5    1.07    0.12
   8   3  -5    1.04    0.11
   8   3  -5    1.05    0.11
  -8  -3   5    1.05    0.10
  -8  -3   5    1.07    0.10
  -8  -3   5    1.19    0.13
  -8  -3   5    1.09    0.10
  -8  -3   5    1.14    0.14
  -8  -3   5    1.05    0.11
  -8  -3   5    1.09    0.15
  -8  -3   5    1.10    0.14
  -8  -3   5    1.04    0.31
  -8  -3   5    0.93    0.11
  -8  -3   5    1.26    0.08
   7   3  -5    4.98    0.20
   7   3  -5    4.82    0.20
   7   3  -5    4.90    0.20
  -7  -3   5    4.43    0.48
  -7  -3   5    4.72    0.14
  -7  -3   5    4.54    0.23
  -7  -3   5    4.96    0.18
  -7  -3   5    4.51    0.22
  -7  -3   5    5.16    0.20
  -7  -3   5    5.27    0.20
  -7  -3   5    5.20    0.18
  -7  -3   5    4.82    0.23
  -7  -3   5    4.91    0.20
  -7  -3   5    5.11    0.20
  -7  -3   5    4.75    0.14
  -7  -3   5    5.17    0.18
   6   3  -5    0.86    0.09
   6   3  -5    0.84    0.09
   6   3  -5    0.86    0.09
  -6  -3   5    0.95    0.11
  -6  -3   5    0.84    0.09
  -6  -3   5    0.95    0.04
  -6  -3   5    0.74    0.07
  -6  -3   5    0.93    0.10
  -6  -3   5    0.87    0.10
  -6  -3   5    0.81    0.08
  -6  -3   5    0.93    0.24
  -6  -3   5    0.76    0.08
  -6  -3   5    1.03    0.25
  -6  -3   5    0.89    0.08
  -6  -3   5    0.71    0.07
   5   3  -5    2.98    0.13
   5   3  -5    2.99    0.13
  -5  -3   5    2.98    0.12
  -5  -3   5    3.16    0.11
  -5  -3   5    3.01    0.11
  -5  -3   5    2.84    0.13
  -5  -3   5    2.54    0.12
  -5  -3   5    2.79    0.13
  -5  -3   5    3.01    0.13
  -5  -3   5    2.34    0.29
  -5  -3   5    2.94    0.16
  -5  -3   5    3.07    0.11
  -5  -3   5    2.18    0.29
   4   3  -5    0.05    0.03
   4   3  -5   -0.01    0.03
  -4  -3   5    0.01    0.03
  -4  -3   5    0.02    0.02
  -4  -3   5    0.06    0.03
  -4  -3   5    0.05    0.05
  -4  -3   5    0.04    0.02
  -4  -3   5    0.01    0.02
  -4  -3   5    0.05    0.03
  -4  -3   5    0.02    0.03
   3   3  -5   44.05    0.90
   3   3  -5   46.46    0.90
  -3  -3   5   45.04    0.89
  -3  -3   5   45.14    0.90
  -3  -3   5   45.53    0.87
  -3  -3   5   44.36    0.97
  -3  -3   5   45.68    0.90
  -3  -3   5   44.75    0.87
  -3  -3   5   45.20    0.92
   2   3  -5    0.27    0.03
   2   3  -5    0.33    0.04
   2   3  -5    0.33    0.04
  -2  -3   5    0.26    0.05
  -2  -3   5    0.27    0.03
  -2  -3   5    0.24    0.06
  -2  -3   5    0.32    0.05
  -2  -3   5    0.29    0.03
  -2  -3   5    0.23    0.03
   1   3  -5    0.03    0.02
   1   3  -5   -0.01    0.01
  -1  -3   5    0.02    0.01
  -1  -3   5    0.03    0.01
  -1  -3   5    0.03    0.01
  -1  -3   5    0.01    0.02
  -1  -3   5    0.00    0.04
  -1  -3   5    0.00    0.03
  -1  -3   5    0.01    0.02
   0  -3   5    7.41    0.22
   0  -3   5    7.50    0.15
   0  -3   5    7.26    0.16
   0  -3   5    7.13    0.24
   0  -3   5    7.48    0.16
   0  -3   5    7.23    0.16
   1  -3   5    4.58    0.19
   1  -3   5    4.52    0.11
   1  -3   5    4.50    0.16
   1  -3   5    4.75    0.11
   1  -3   5    4.73    0.10
  -2   3  -5    0.09    0.02
  -2   3  -5    0.12    0.02
   2  -3   5    0.08    0.04
   2  -3   5    0.10    0.02
   2  -3   5    0.14    0.02
   2  -3   5    0.13    0.02
   2  -3   5    0.12    0.02
   2  -3   5    0.14    0.02
  -3   3  -5    2.48    0.09
   3  -3   5    2.63    0.09
   3  -3   5    2.52    0.08
   3  -3   5    2.63    0.09
   3  -3   5    2.68    0.13
  -4   3  -5   21.06    0.46
   4  -3   5   21.32    0.45
   4  -3   5   20.82    0.45
   4  -3   5   21.47    0.50
   4  -3   5   21.41    0.45
  -5   3  -5    0.06    0.03
   5  -3   5    0.05    0.03
   5  -3   5    0.02    0.03
   5  -3   5    0.00    0.03
   5  -3   5   -0.06    0.03
  -6   3  -5    0.95    0.09
   6  -3   5    1.10    0.08
   6  -3   5    0.94    0.08
   6  -3   5    1.09    0.09
   6  -3   5    1.00    0.09
  -7   3  -5    0.41    0.07
   7  -3   5    0.44    0.07
   7  -3   5    0.43    0.07
   7  -3   5    0.36    0.06
   8   2  -5    0.64    0.09
   8   2  -5    1.09    0.12
   8   2  -5    0.79    0.10
  -8  -2   5    0.69    0.07
  -8  -2   5    0.81    0.09
  -8  -2   5    0.99    0.11
  -8  -2   5    0.74    0.13
  -8  -2   5    0.96    0.11
  -8  -2   5    0.69    0.09
  -8  -2   5    0.69    0.10
  -8  -2   5    0.81    0.09
  -8  -2   5    0.78    0.09
   7   2  -5    3.94    0.18
   7   2  -5    4.30    0.18
   7   2  -5    4.47    0.19
  -7  -2   5    3.96    0.47
  -7  -2   5    4.26    0.23
  -7  -2   5    4.31    0.17
  -7  -2   5    4.04    0.18
  -7  -2   5    4.30    0.23
  -7  -2   5    4.29    0.18
  -7  -2   5    4.39    0.17
  -7  -2   5    4.44    0.17
  -7  -2   5    4.23    0.14
  -7  -2   5    4.06    0.18
   6   2  -5    4.36    0.17
   6   2  -5    4.28    0.17
   6   2  -5    4.46    0.17
  -6  -2   5    3.90    0.12
  -6  -2   5    4.16    0.17
  -6  -2   5    4.24    0.15
  -6  -2   5    4.17    0.17
  -6  -2   5    4.51    0.15
  -6  -2   5    3.80    0.19
  -6  -2   5    4.02    0.12
  -6  -2   5    3.45    0.40
  -6  -2   5    4.21    0.15
  -6  -2   5    4.27    0.16
  -6  -2   5    3.84    0.19
  -6  -2   5    3.87    0.20
   5   2  -5    0.15    0.04
   5   2  -5    0.20    0.05
   5   2  -5    0.17    0.04
  -5  -2   5    0.22    0.05
  -5  -2   5    0.21    0.05
  -5  -2   5    0.28    0.07
  -5  -2   5    0.24    0.04
  -5  -2   5    0.22    0.02
  -5  -2   5    0.16    0.04
  -5  -2   5    0.15    0.04
  -5  -2   5    0.21    0.02
  -5  -2   5    0.23    0.04
  -5  -2   5    0.31    0.05
  -5  -2   5    0.10    0.11
  -5  -2   5    0.25    0.13
  -5  -2   5    0.22    0.04
   4   2  -5    8.95    0.24
   4   2  -5    8.94    0.24
   4   2  -5    9.21    0.24
  -4  -2   5    8.67    0.24
  -4  -2   5    8.89    0.24
  -4  -2   5    9.10    0.22
  -4  -2   5    9.41    0.22
  -4  -2   5    8.97    0.23
  -4  -2   5   10.03    0.49
  -4  -2   5    9.77    0.23
  -4  -2   5    8.75    0.22
  -4  -2   5    9.27    0.23
  -4  -2   5   10.09    0.48
  -4  -2   5    9.60    0.30
   3   2  -5    0.40    0.05
   3   2  -5    0.44    0.05
   3   2  -5    0.39    0.04
   3   2  -5    0.40    0.04
  -3  -2   5    0.44    0.03
  -3  -2   5    0.38    0.04
  -3  -2   5    0.42    0.04
  -3  -2   5    0.38    0.03
  -3  -2   5    0.41    0.04
  -3  -2   5    0.46    0.11
  -3  -2   5    0.37    0.07
  -3  -2   5    0.34    0.04
  -3  -2   5    0.41    0.10
  -3  -2   5    0.40    0.05
  -3  -2   5    0.40    0.03
   2   2  -5   27.06    0.56
   2   2  -5   28.03    0.56
   2   2  -5   28.46    0.57
   2   2  -5   27.33    0.56
  -2  -2   5   27.27    0.55
  -2  -2   5   27.73    0.55
  -2  -2   5   27.18    0.64
  -2  -2   5   27.85    0.55
  -2  -2   5   28.22    0.56
  -2  -2   5   27.90    0.59
  -2  -2   5   27.84    0.56
   1   2  -5   19.39    0.38
   1   2  -5   18.55    0.38
   1   2  -5   18.96    0.38
  -1  -2   5   19.18    0.37
  -1  -2   5   19.72    0.47
  -1  -2   5   19.46    0.38
  -1  -2   5   18.57    0.43
  -1  -2   5   19.17    0.38
  -1  -2   5   19.39    0.37
  -1  -2   5   18.98    0.38
   0  -2   5   18.24    0.46
   0  -2   5   18.21    0.41
  -1   2  -5   22.96    0.46
   1  -2   5   23.30    0.56
   1  -2   5   22.83    0.51
  -2   2  -5   31.70    0.61
  -2   2  -5   31.15    0.60
   2  -2   5   31.16    0.59
   2  -2   5   31.08    0.66
   2  -2   5   31.82    0.60
   2  -2   5   31.14    0.60
   2  -2   5   30.25    0.60
   2  -2   5   31.54    0.60
   2  -2   5   30.01    0.71
  -3   2  -5   15.91    0.33
  -3   2  -5   15.12    0.33
   3  -2   5   15.18    0.37
   3  -2   5   15.40    0.32
   3  -2   5   15.06    0.32
   3  -2   5   15.75    0.33
   3  -2   5   15.99    0.32
  -4   2  -5   12.59    0.30
  -4   2  -5   13.49    0.30
   4  -2   5   12.79    0.30
   4  -2   5   13.43    0.30
   4  -2   5   13.23    0.30
   4  -2   5   13.80    0.34
  -5   2  -5    4.73    0.16
   5  -2   5    4.84    0.17
   5  -2   5    4.72    0.15
   5  -2   5    5.05    0.15
   5  -2   5    4.71    0.15
  -6   2  -5    0.44    0.06
   6  -2   5    0.46    0.06
   6  -2   5    0.42    0.06
   6  -2   5    0.49    0.06
   6  -2   5    0.50    0.06
   6  -2   5    0.51    0.04
  -7   2  -5    0.42    0.07
   7  -2   5    0.24    0.06
   7  -2   5    0.32    0.13
   7  -2   5    0.28    0.06
   7  -2   5    0.36    0.05
   7  -2   5    0.32    0.06
   7  -2   5    0.33    0.12
   7  -2   5    0.39    0.13
  -8   2  -5    2.45    0.15
   8  -2   5    2.42    0.11
   8  -2   5    2.44    0.14
   8  -2   5    2.58    0.14
   8  -2   5    2.61    0.31
   8  -2   5    2.22    0.29
   8  -2   5    2.36    0.14
   8   1  -5    6.51    0.25
   8   1  -5    6.06    0.24
   8   1  -5    6.48    0.25
  -8  -1   5    6.21    0.24
  -8  -1   5    6.31    0.24
  -8  -1   5    6.17    0.24
  -8  -1   5    6.43    0.23
  -8  -1   5    6.22    0.22
  -8  -1   5    6.14    0.23
  -8  -1   5    5.87    0.20
   7   1  -5   14.64    0.40
   7   1  -5   14.90    0.40
   7   1  -5   14.68    0.40
  -7  -1   5   14.81    0.40
  -7  -1   5   15.44    0.48
  -7  -1   5   15.39    0.40
  -7  -1   5   15.12    0.48
  -7  -1   5   15.29    0.36
  -7  -1   5   14.87    0.39
  -7  -1   5   14.98    0.38
  -7  -1   5   14.93    0.39
  -7  -1   5   14.81    0.38
  -7  -1   5   14.32    0.87
  -7  -1   5   15.23    0.39
   6   1  -5   17.46    0.42
   6   1  -5   17.78    0.42
   6   1  -5   17.11    0.43
  -6  -1   5   16.48    0.38
  -6  -1   5   17.21    0.42
  -6  -1   5   16.86    0.49
  -6  -1   5   14.86    0.87
  -6  -1   5   15.92    0.85
  -6  -1   5   18.18    0.41
  -6  -1   5   17.04    0.42
  -6  -1   5   17.65    0.41
  -6  -1   5   17.25    0.42
  -6  -1   5   16.79    0.38
  -6  -1   5   16.75    0.48
  -6  -1   5   17.43    0.42
  -6  -1   5   17.66    0.41
   5   1  -5   -0.04    0.03
   5   1  -5    0.04    0.04
   5   1  -5   -0.01    0.03
  -5  -1   5   -0.04    0.03
  -5  -1   5    0.02    0.02
  -5  -1   5   -0.01    0.09
  -5  -1   5   -0.03    0.04
  -5  -1   5    0.01    0.09
  -5  -1   5    0.01    0.04
  -5  -1   5    0.07    0.03
  -5  -1   5    0.05    0.04
  -5  -1   5    0.00    0.02
  -5  -1   5    0.01    0.03
  -5  -1   5   -0.03    0.03
  -5  -1   5    0.10    0.04
   4   1  -5    9.26    0.24
   4   1  -5    8.98    0.24
   4   1  -5    9.05    0.24
  -4  -1   5    9.78    0.26
  -4  -1   5    9.04    0.24
  -4  -1   5    9.12    0.24
  -4  -1   5    9.97    0.52
  -4  -1   5    9.17    0.26
  -4  -1   5    9.44    0.23
  -4  -1   5    9.44    0.23
  -4  -1   5    9.72    0.31
  -4  -1   5    9.23    0.24
  -4  -1   5   10.21    0.52
  -4  -1   5    9.41    0.23
   3   1  -5   44.25    0.88
   3   1  -5   43.87    0.88
   3   1  -5   43.13    0.88
   3   1  -5   43.55    0.89
  -3  -1   5   45.25    0.96
  -3  -1   5   43.62    0.88
  -3  -1   5   43.72    0.88
  -3  -1   5   44.48    0.88
  -3  -1   5   43.94    0.86
  -3  -1   5   44.31    0.86
  -3  -1   5   44.83    0.86
  -3  -1   5   44.92    1.15
  -3  -1   5   45.34    1.16
   2   1  -5   11.80    0.27
   2   1  -5   12.36    0.27
   2   1  -5   12.70    0.27
   2   1  -5   12.61    0.27
  -2  -1   5   11.99    0.29
  -2  -1   5   12.46    0.27
  -2  -1   5   12.32    0.27
  -2  -1   5   12.57    0.34
  -2  -1   5   12.24    0.27
  -2  -1   5   11.94    0.25
  -2  -1   5   12.40    0.25
   1   1  -5    1.87    0.06
   1   1  -5    1.86    0.06
  -1  -1   5    1.73    0.11
  -1  -1   5    1.90    0.05
  -1  -1   5    1.77    0.06
  -1  -1   5    1.97    0.06
  -1  -1   5    1.85    0.05
  -1  -1   5    1.83    0.09
  -1  -1   5    1.91    0.06
   0  -1   5    0.26    0.06
   0  -1   5    0.27    0.04
   1  -1   5   -0.02    0.03
   1  -1   5    0.05    0.03
  -2   1  -5    0.00    0.02
  -2   1  -5   -0.01    0.01
  -2   1  -5   -0.01    0.01
   2  -1   5   -0.03    0.03
   2  -1   5   -0.01    0.01
   2  -1   5    0.00    0.01
   2  -1   5   -0.02    0.01
   2  -1   5   -0.04    0.03
   2  -1   5    0.01    0.01
  -3   1  -5    2.64    0.09
  -3   1  -5    2.63    0.08
  -3   1  -5    2.69    0.08
   3  -1   5    2.48    0.11
   3  -1   5    2.59    0.08
   3  -1   5    2.56    0.08
   3  -1   5    2.69    0.08
   3  -1   5    2.66    0.08
   3  -1   5    2.58    0.08
  -4   1  -5    0.03    0.03
  -4   1  -5   -0.01    0.02
  -4   1  -5    0.00    0.02
   4  -1   5    0.00    0.02
   4  -1   5   -0.01    0.03
   4  -1   5    0.01    0.02
   4  -1   5    0.03    0.02
  -5   1  -5    0.26    0.05
  -5   1  -5    0.21    0.04
  -5   1  -5    0.23    0.04
   5  -1   5    0.26    0.04
   5  -1   5    0.24    0.04
   5  -1   5    0.24    0.03
   5  -1   5    0.21    0.04
   5  -1   5    0.29    0.04
  -6   1  -5   17.76    0.41
  -6   1  -5   17.93    0.41
  -6   1  -5   16.69    0.42
   6  -1   5   17.62    0.41
   6  -1   5   17.38    0.41
   6  -1   5   17.52    0.38
   6  -1   5   17.42    0.41
   6  -1   5   17.04    0.64
   6  -1   5   18.11    0.41
   6  -1   5   17.50    0.65
  -7   1  -5    4.98    0.19
  -7   1  -5    4.99    0.18
  -7   1  -5    5.05    0.18
   7  -1   5    5.08    0.18
   7  -1   5    4.97    0.39
   7  -1   5    4.95    0.38
   7  -1   5    4.75    0.18
   7  -1   5    4.97    0.15
   7  -1   5    4.82    0.18
  -8   1  -5    1.75    0.13
  -8   1  -5    2.05    0.19
  -8   1  -5    1.75    0.13
   8  -1   5    2.18    0.13
   8  -1   5    1.64    0.28
   8  -1   5    1.89    0.12
   8  -1   5    1.81    0.10
   8  -1   5    2.02    0.13
   8  -1   5    1.50    0.29
   8   0  -5    0.01    0.06
   8   0  -5    0.05    0.06
   8   0  -5   -0.11    0.05
  -8   0   5    0.10    0.06
  -8   0   5    0.14    0.06
  -8   0   5    0.05    0.06
  -8   0   5    0.08    0.06
  -8   0   5    0.10    0.05
  -8   0   5    0.12    0.06
  -8   0   5    0.16    0.06
   7   0  -5    9.78    0.30
   7   0  -5   10.04    0.31
   7   0  -5    9.92    0.30
  -7   0   5   10.33    0.29
  -7   0   5    9.97    0.31
  -7   0   5   10.26    0.29
  -7   0   5    9.37    0.27
  -7   0   5   10.18    0.29
  -7   0   5    9.72    0.30
  -7   0   5    9.99    0.30
  -7   0   5    9.59    0.38
   6   0  -5    5.50    0.20
   6   0  -5    5.67    0.20
   6   0  -5    5.46    0.20
  -6   0   5    5.73    0.18
  -6   0   5    5.62    0.19
  -6   0   5    6.20    0.26
  -6   0   5    5.63    0.20
  -6   0   5    5.86    0.21
  -6   0   5    5.49    0.19
  -6   0   5    5.86    0.20
  -6   0   5    5.72    0.26
  -6   0   5    6.32    0.54
  -6   0   5    5.46    0.20
   5   0  -5    4.50    0.16
   5   0  -5    4.04    0.15
   5   0  -5    4.28    0.16
  -5   0   5    4.51    0.13
  -5   0   5    4.38    0.41
  -5   0   5    4.29    0.19
  -5   0   5    4.12    0.13
  -5   0   5    4.19    0.41
  -5   0   5    4.17    0.15
  -5   0   5    4.28    0.20
  -5   0   5    4.41    0.15
  -5   0   5    4.47    0.15
  -5   0   5    4.09    0.16
  -5   0   5    4.16    0.15
  -5   0   5    4.23    0.15
  -5   0   5    4.08    0.16
   4   0  -5    9.67    0.26
   4   0  -5    9.48    0.25
   4   0  -5    9.08    0.25
  -4   0   5    9.30    0.25
  -4   0   5    9.98    0.29
  -4   0   5    9.21    0.24
  -4   0   5    9.29    0.24
  -4   0   5   10.74    0.56
  -4   0   5    9.89    0.22
  -4   0   5   10.10    0.22
  -4   0   5   10.79    0.57
  -4   0   5    9.11    0.25
  -4   0   5    9.77    0.24
  -4   0   5    9.68    0.24
  -4   0   5    9.87    0.29
  -4   0   5    9.44    0.25
   3   0  -5    7.64    0.20
   3   0  -5    7.63    0.19
   3   0  -5    7.55    0.20
   3   0  -5    7.62    0.20
   3   0  -5    7.68    0.18
  -3   0   5    7.41    0.20
  -3   0   5    7.87    0.18
  -3   0   5    7.03    0.21
  -3   0   5    7.40    0.19
  -3   0   5    6.71    0.40
  -3   0   5    7.23    0.21
  -3   0   5    7.45    0.19
  -3   0   5    7.37    0.41
  -3   0   5    7.54    0.18
  -3   0   5    7.56    0.25
  -3   0   5    7.60    0.19
  -3   0   5    7.32    0.18
   2   0  -5    2.83    0.09
   2   0  -5    3.01    0.10
   2   0  -5    2.81    0.09
   2   0  -5    2.70    0.09
  -2   0   5    2.90    0.08
  -2   0   5    3.00    0.14
  -2   0   5    2.83    0.09
  -2   0   5    2.75    0.09
  -2   0   5    2.71    0.08
  -2   0   5    2.71    0.09
  -2   0   5    2.92    0.08
   1   0  -5   69.86    1.31
   1   0  -5   68.20    1.31
  -1   0   5   69.51    1.31
  -1   0   5   68.51    1.31
  -1   0   5   69.16    1.40
  -1   0   5   69.77    1.31
  -1   0   5   67.86    1.31
  -1   0   5   68.90    1.31
   0   0  -5    4.16    0.09
   0   0  -5    4.13    0.10
   0   0   5    4.00    0.13
   0   0   5    4.13    0.10
   0   0   5    4.13    0.09
   0   0   5    3.99    0.10
   0   0   5    4.19    0.09
   0   0   5    4.15    0.16
   1   0   5   32.74    0.72
   1   0   5   33.04    0.62
   1   0   5   32.52    0.68
   1   0   5   32.63    0.62
  -2   0  -5    4.28    0.13
  -2   0  -5    4.59    0.11
  -2   0  -5    4.40    0.10
   2   0   5    4.14    0.17
   2   0   5    4.48    0.11
   2   0   5    4.44    0.10
   2   0   5    4.52    0.10
   2   0   5    4.49    0.10
   2   0   5    4.58    0.14
   2   0   5    4.38    0.11
  -3   0  -5    1.14    0.06
  -3   0  -5    1.30    0.05
  -3   0  -5    1.07    0.05
  -3   0  -5    1.19    0.06
  -3   0  -5    1.12    0.05
   3   0   5    1.14    0.05
   3   0   5    1.26    0.07
   3   0   5    1.17    0.05
   3   0   5    1.13    0.05
   3   0   5    1.16    0.10
   3   0   5    1.11    0.05
   3   0   5    1.12    0.05
   3   0   5    1.18    0.05
  -4   0  -5    2.78    0.11
  -4   0  -5    2.72    0.10
  -4   0  -5    2.60    0.10
  -4   0  -5    2.85    0.11
   4   0   5    2.64    0.09
   4   0   5    2.74    0.09
   4   0   5    2.84    0.11
   4   0   5    2.87    0.08
   4   0   5    2.85    0.10
  -5   0  -5    8.86    0.24
  -5   0  -5    9.03    0.23
  -5   0  -5    8.91    0.24
   5   0   5    8.98    0.20
   5   0   5    8.73    0.23
   5   0   5    8.62    0.39
   5   0   5    8.99    0.24
   5   0   5    9.00    0.41
   5   0   5    9.10    0.21
   5   0   5    8.91    0.23
   5   0   5    9.43    0.20
   5   0   5    8.92    0.23
  -6   0  -5    0.16    0.05
  -6   0  -5    0.15    0.05
  -6   0  -5    0.13    0.04
   6   0   5    0.11    0.04
   6   0   5    0.10    0.10
   6   0   5    0.06    0.04
   6   0   5    0.12    0.03
   6   0   5    0.17    0.03
   6   0   5    0.15    0.04
   6   0   5    0.14    0.03
   6   0   5    0.11    0.04
   6   0   5    0.13    0.10
  -7   0  -5    1.85    0.11
  -7   0  -5    2.04    0.13
  -7   0  -5    1.90    0.12
   7   0   5    1.98    0.11
   7   0   5    2.42    0.31
   7   0   5    1.86    0.10
   7   0   5    2.20    0.28
   7   0   5    2.08    0.12
   7   0   5    1.88    0.11
   7   0   5    2.05    0.09
  -8   0  -5    0.45    0.08
  -8   0  -5    0.48    0.08
  -8   0  -5    0.51    0.08
   8   0   5    0.41    0.07
   8   0   5    0.39    0.17
   8   0   5    0.54    0.07
   8   0   5    0.41    0.19
   8   0   5    0.40    0.07
   8   0   5    0.30    0.07
   8   0   5    0.51    0.06
  -9   0  -5    0.05    0.05
  -9   0  -5   -0.10    0.05
  -9   0  -5    0.04    0.05
   9   0   5    0.00    0.12
   9   0   5    0.04    0.04
   9   0   5    0.00    0.05
   9   0   5   -0.02    0.04
   9   0   5   -0.03    0.05
   9   0   5   -0.02    0.12
   9   0   5    0.02    0.05
   8  -1  -5    0.01    0.06
   8  -1  -5    0.08    0.06
   8  -1  -5   -0.06    0.05
  -8   1   5    0.04    0.06
  -8   1   5   -0.05    0.04
  -8   1   5    0.10    0.06
  -8   1   5   -0.09    0.05
  -8   1   5    0.02    0.06
  -8   1   5    0.01    0.05
  -8   1   5   -0.03    0.05
  -8   1   5    0.06    0.06
   7  -1  -5    1.31    0.12
   7  -1  -5    1.19    0.11
   7  -1  -5    1.43    0.12
  -7   1   5    1.42    0.11
  -7   1   5    1.03    0.11
  -7   1   5    1.41    0.10
  -7   1   5    1.40    0.11
  -7   1   5    1.43    0.11
  -7   1   5    1.51    0.12
  -7   1   5    1.27    0.12
   6  -1  -5    1.13    0.10
   6  -1  -5    1.10    0.10
   6  -1  -5    1.14    0.10
  -6   1   5    1.13    0.10
  -6   1   5    1.19    0.10
  -6   1   5    1.17    0.10
  -6   1   5    1.24    0.14
  -6   1   5    1.04    0.09
  -6   1   5    1.27    0.10
  -6   1   5    1.33    0.11
  -6   1   5    1.24    0.31
  -6   1   5    1.10    0.09
   5  -1  -5   19.35    0.46
   5  -1  -5   20.25    0.46
   5  -1  -5   19.47    0.46
   5  -1  -5   19.86    0.46
  -5   1   5   20.47    0.45
  -5   1   5   19.06    0.53
  -5   1   5   19.64    0.44
  -5   1   5   20.05    0.44
  -5   1   5   18.27    0.92
  -5   1   5   19.83    0.46
  -5   1   5   19.07    0.92
  -5   1   5   19.40    0.46
  -5   1   5   19.53    0.54
  -5   1   5   20.23    0.45
  -5   1   5   19.38    0.45
  -5   1   5   19.55    0.45
   4  -1  -5   26.82    0.57
   4  -1  -5   26.76    0.57
   4  -1  -5   26.59    0.55
   4  -1  -5   26.53    0.58
  -4   1   5   26.73    0.54
  -4   1   5   26.45    0.57
  -4   1   5   25.28    0.63
  -4   1   5   26.91    0.56
  -4   1   5   26.40    0.57
  -4   1   5   25.89    0.56
  -4   1   5   26.50    0.56
  -4   1   5   26.61    0.63
  -4   1   5   26.47    1.01
  -4   1   5   26.71    0.57
  -4   1   5   25.94    0.54
  -4   1   5   25.54    1.01
   3  -1  -5    3.36    0.12
   3  -1  -5    3.42    0.13
   3  -1  -5    3.50    0.11
   3  -1  -5    3.43    0.12
   3  -1  -5    3.47    0.12
  -3   1   5    3.37    0.11
  -3   1   5    3.70    0.15
  -3   1   5    3.85    0.32
  -3   1   5    3.52    0.10
  -3   1   5    3.45    0.11
  -3   1   5    3.48    0.12
  -3   1   5    3.61    0.10
  -3   1   5    3.51    0.12
  -3   1   5    3.46    0.11
  -3   1   5    3.55    0.15
  -3   1   5    3.90    0.33
  -3   1   5    3.43    0.12
   2  -1  -5    1.13    0.06
   2  -1  -5    1.13    0.06
   2  -1  -5    1.11    0.05
   2  -1  -5    1.14    0.06
  -2   1   5    1.11    0.07
  -2   1   5    1.19    0.05
  -2   1   5    1.15    0.06
  -2   1   5    0.94    0.15
  -2   1   5    1.14    0.09
  -2   1   5    1.15    0.05
  -2   1   5    1.20    0.06
  -2   1   5    1.10    0.06
  -2   1   5    0.92    0.15
  -2   1   5    1.17    0.06
  -2   1   5    1.13    0.07
   1  -1  -5   40.43    0.77
   1  -1  -5   40.11    0.77
   1  -1  -5   39.20    0.78
  -1   1   5   40.00    0.77
  -1   1   5   40.65    0.77
  -1   1   5   38.04    0.94
  -1   1   5   39.71    0.77
  -1   1   5   39.86    0.75
  -1   1   5   40.82    0.76
  -1   1   5   37.00    0.84
  -1   1   5   40.23    0.76
  -1   1   5   37.76    0.94
   0  -1  -5    4.78    0.12
   0  -1  -5    4.96    0.12
   0   1   5    4.79    0.11
   0   1   5    4.79    0.11
   0   1   5    4.86    0.11
   0   1   5    4.46    0.17
   0   1   5    5.02    0.12
  -1  -1  -5    0.31    0.03
   1   1   5    0.28    0.02
   1   1   5    0.32    0.03
   1   1   5    0.33    0.03
   1   1   5    0.31    0.02
   1   1   5    0.33    0.03
   1   1   5    0.24    0.05
   1   1   5    0.34    0.03
  -2  -1  -5    0.31    0.03
  -2  -1  -5    0.26    0.04
   2   1   5    0.30    0.03
   2   1   5    0.20    0.05
   2   1   5    0.30    0.03
   2   1   5    0.32    0.03
   2   1   5    0.33    0.03
   2   1   5    0.35    0.03
   2   1   5    0.30    0.03
  -3  -1  -5   66.45    1.30
  -3  -1  -5   68.70    1.28
  -3  -1  -5   65.80    1.29
  -3  -1  -5   67.30    1.28
   3   1   5   66.25    1.31
   3   1   5   65.45    1.26
   3   1   5   66.25    1.36
   3   1   5   69.98    1.28
   3   1   5   65.70    1.28
   3   1   5   66.28    1.28
   3   1   5   65.64    1.28
  -4  -1  -5   13.17    0.29
  -4  -1  -5   11.79    0.29
  -4  -1  -5   12.64    0.30
  -4  -1  -5   12.52    0.29
   4   1   5   12.85    0.26
   4   1   5   11.69    0.45
   4   1   5   12.45    0.29
   4   1   5   12.72    0.28
   4   1   5   13.30    0.29
   4   1   5   12.83    0.27
   4   1   5   11.68    0.46
   4   1   5   12.70    0.27
   4   1   5   12.65    0.28
   4   1   5   13.03    0.30
  -5  -1  -5   21.00    0.46
  -5  -1  -5   21.39    0.47
  -5  -1  -5   20.76    0.47
  -5  -1  -5   21.00    0.47
   5   1   5   21.74    0.44
   5   1   5   20.76    0.46
   5   1   5   21.12    0.46
   5   1   5   22.76    0.78
   5   1   5   20.99    0.74
   5   1   5   20.90    0.44
   5   1   5   20.54    0.46
   5   1   5   21.32    0.44
  -6  -1  -5    1.11    0.08
  -6  -1  -5    1.08    0.08
  -6  -1  -5    1.17    0.08
  -6  -1  -5    1.19    0.09
   6   1   5    1.35    0.23
   6   1   5    1.34    0.21
   6   1   5    1.23    0.08
   6   1   5    1.18    0.08
   6   1   5    1.14    0.07
   6   1   5    1.18    0.08
   6   1   5    0.96    0.08
   6   1   5    1.16    0.07
   6   1   5    1.02    0.07
  -7  -1  -5    1.06    0.09
  -7  -1  -5    1.12    0.10
  -7  -1  -5    1.11    0.10
   7   1   5    1.10    0.09
   7   1   5    0.98    0.09
   7   1   5    0.90    0.24
   7   1   5    1.10    0.09
   7   1   5    1.06    0.09
   7   1   5    0.83    0.21
   7   1   5    1.00    0.08
   7   1   5    0.90    0.08
   7   1   5    1.06    0.08
  -8  -1  -5    0.25    0.06
  -8  -1  -5    0.26    0.07
  -8  -1  -5    0.26    0.06
   8   1   5    0.27    0.16
   8   1   5    0.37    0.06
   8   1   5    0.32    0.07
   8   1   5    0.30    0.06
   8   1   5    0.20    0.05
   8   1   5    0.25    0.06
   8   1   5    0.24    0.06
   8   1   5    0.28    0.05
   8   1   5    0.35    0.19
  -9  -1  -5    1.19    0.12
  -9  -1  -5    1.02    0.11
  -9  -1  -5    1.13    0.12
   9   1   5    1.11    0.09
   9   1   5    1.22    0.32
   9   1   5    1.10    0.11
   9   1   5    1.13    0.11
   9   1   5    0.88    0.11
   9   1   5    1.07    0.11
   9   1   5    1.12    0.10
   8  -2  -5    0.66    0.10
   8  -2  -5    0.98    0.12
   8  -2  -5    0.84    0.11
  -8   2   5    0.73    0.10
  -8   2   5    0.86    0.10
  -8   2   5    0.69    0.10
  -8   2   5    1.04    0.11
  -8   2   5    0.73    0.11
  -8   2   5    0.90    0.11
  -8   2   5    0.67    0.10
  -8   2   5    0.80    0.10
   7  -2  -5    1.13    0.12
   7  -2  -5    0.98    0.11
   7  -2  -5    0.89    0.11
  -7   2   5    0.94    0.09
  -7   2   5    0.74    0.09
  -7   2   5    0.90    0.10
  -7   2   5    1.06    0.11
  -7   2   5    0.89    0.10
  -7   2   5    0.96    0.11
  -7   2   5    0.79    0.09
  -7   2   5    0.96    0.10
   6  -2  -5    2.26    0.13
   6  -2  -5    2.30    0.13
   6  -2  -5    2.28    0.13
   6  -2  -5    2.47    0.13
  -6   2   5    2.43    0.13
  -6   2   5    2.22    0.12
  -6   2   5    2.44    0.14
  -6   2   5    2.55    0.13
  -6   2   5    2.13    0.13
  -6   2   5    2.29    0.13
  -6   2   5    2.41    0.13
  -6   2   5    2.22    0.13
   5  -2  -5   13.03    0.31
   5  -2  -5   12.09    0.32
   5  -2  -5   12.52    0.33
   5  -2  -5   12.55    0.33
  -5   2   5   11.73    0.73
  -5   2   5   12.03    0.40
  -5   2   5   12.51    0.33
  -5   2   5   12.59    0.32
  -5   2   5   12.35    0.41
  -5   2   5   12.45    0.32
  -5   2   5   12.41    0.31
  -5   2   5   13.01    0.33
  -5   2   5   12.45    0.33
  -5   2   5   13.07    0.33
  -5   2   5   12.30    0.32
   4  -2  -5    3.21    0.13
   4  -2  -5    3.29    0.12
   4  -2  -5    3.17    0.13
   4  -2  -5    3.00    0.13
  -4   2   5    2.96    0.16
  -4   2   5    3.20    0.12
  -4   2   5    3.28    0.13
  -4   2   5    2.54    0.16
  -4   2   5    3.31    0.13
  -4   2   5    3.12    0.12
  -4   2   5    2.57    0.33
  -4   2   5    3.06    0.11
  -4   2   5    3.11    0.13
  -4   2   5    3.33    0.13
  -4   2   5    2.81    0.11
  -4   2   5    3.37    0.13
   3  -2  -5    2.29    0.10
   3  -2  -5    2.37    0.09
   3  -2  -5    2.26    0.10
   3  -2  -5    2.28    0.10
  -3   2   5    2.21    0.09
  -3   2   5    2.29    0.10
  -3   2   5    2.11    0.10
  -3   2   5    1.90    0.12
  -3   2   5    2.21    0.13
  -3   2   5    2.19    0.10
  -3   2   5    1.68    0.25
  -3   2   5    2.12    0.09
  -3   2   5    1.96    0.08
  -3   2   5    1.99    0.26
  -3   2   5    2.18    0.09
  -3   2   5    2.17    0.08
  -3   2   5    2.25    0.09
   2  -2  -5   28.36    0.59
   2  -2  -5   28.36    0.57
   2  -2  -5   28.93    0.59
   2  -2  -5   28.43    0.59
  -2   2   5   28.44    0.58
  -2   2   5   27.92    0.58
  -2   2   5   28.92    0.92
  -2   2   5   28.72    0.58
  -2   2   5   28.69    0.63
  -2   2   5   28.14    0.58
  -2   2   5   28.91    0.63
  -2   2   5   27.88    0.58
  -2   2   5   28.81    0.56
  -2   2   5   28.18    0.59
  -2   2   5   27.42    0.91
  -2   2   5   27.49    0.56
   1  -2  -5   19.16    0.40
   1  -2  -5   18.71    0.41
   1  -2  -5   19.40    0.39
   1  -2  -5   19.29    0.40
  -1   2   5   18.83    0.37
  -1   2   5   19.56    0.39
  -1   2   5   18.82    0.46
  -1   2   5   19.08    0.39
  -1   2   5   19.25    0.37
  -1   2   5   19.41    0.64
  -1   2   5   18.56    0.39
  -1   2   5   19.63    0.43
  -1   2   5   18.98    0.40
  -1   2   5   18.89    0.40
  -1   2   5   18.47    0.40
  -1   2   5   19.56    0.66
  -1   2   5   18.74    0.42
   0  -2  -5    7.94    0.19
   0  -2  -5    8.11    0.19
   0   2   5    8.04    0.34
   0   2   5    8.46    0.18
   0   2   5    8.27    0.18
   0   2   5    7.98    0.19
   0   2   5    7.83    0.18
   0   2   5    8.19    0.19
   0   2   5    7.77    0.24
   0   2   5    7.93    0.19
   0   2   5    8.09    0.19
   0   2   5    8.17    0.35
  -1  -2  -5    2.66    0.09
  -1  -2  -5    2.74    0.09
   1   2   5    2.73    0.07
   1   2   5    2.67    0.08
   1   2   5    3.32    0.19
   1   2   5    2.55    0.08
   1   2   5    2.68    0.07
   1   2   5    2.69    0.08
   1   2   5    2.55    0.09
   1   2   5    2.89    0.09
   1   2   5    2.80    0.12
   1   2   5    3.17    0.19
  -2  -2  -5    0.34    0.04
  -2  -2  -5    0.39    0.04
  -2  -2  -5    0.38    0.05
   2   2   5    0.36    0.03
   2   2   5    0.38    0.03
   2   2   5    0.35    0.03
   2   2   5    0.39    0.03
   2   2   5    0.25    0.05
   2   2   5    0.36    0.03
   2   2   5    0.43    0.04
   2   2   5    0.44    0.04
  -3  -2  -5    9.46    0.24
  -3  -2  -5    9.63    0.23
  -3  -2  -5    9.42    0.23
   3   2   5    9.41    0.22
   3   2   5    9.41    0.21
   3   2   5    9.35    0.21
   3   2   5   10.36    0.42
   3   2   5    9.47    0.22
   3   2   5    9.51    0.21
   3   2   5   10.10    0.41
   3   2   5    9.22    0.22
   3   2   5    9.19    0.27
   3   2   5    9.41    0.22
  -4  -2  -5    1.03    0.07
  -4  -2  -5    1.07    0.07
  -4  -2  -5    1.00    0.07
  -4  -2  -5    1.15    0.07
   4   2   5    0.90    0.15
   4   2   5    1.14    0.06
   4   2   5    1.08    0.06
   4   2   5    1.03    0.06
   4   2   5    1.00    0.05
   4   2   5    1.19    0.07
   4   2   5    0.99    0.06
   4   2   5    1.07    0.06
   4   2   5    1.11    0.07
  -5  -2  -5    5.51    0.17
  -5  -2  -5    5.27    0.17
  -5  -2  -5    5.32    0.17
  -5  -2  -5    5.39    0.17
   5   2   5    5.30    0.18
   5   2   5    5.46    0.15
   5   2   5    5.41    0.15
   5   2   5    5.51    0.16
   5   2   5    5.03    0.16
   5   2   5    5.26    0.15
   5   2   5    5.42    0.39
   5   2   5    5.42    0.37
   5   2   5    5.38    0.16
   5   2   5    5.60    0.17
  -6  -2  -5    0.04    0.04
  -6  -2  -5    0.01    0.03
  -6  -2  -5    0.03    0.04
  -6  -2  -5    0.02    0.04
   6   2   5    0.01    0.08
   6   2   5    0.01    0.03
   6   2   5    0.00    0.03
   6   2   5    0.00    0.03
   6   2   5    0.01    0.03
   6   2   5    0.04    0.02
   6   2   5    0.01    0.02
   6   2   5    0.04    0.09
   6   2   5    0.03    0.03
   6   2   5    0.01    0.03
   6   2   5    0.04    0.03
  -7  -2  -5    2.32    0.13
  -7  -2  -5    2.46    0.13
  -7  -2  -5    2.51    0.14
  -7  -2  -5    2.46    0.14
   7   2   5    2.51    0.11
   7   2   5    2.51    0.15
   7   2   5    2.32    0.12
   7   2   5    2.38    0.12
   7   2   5    2.69    0.36
   7   2   5    2.42    0.11
   7   2   5    2.59    0.09
   7   2   5    2.69    0.33
   7   2   5    2.47    0.11
   7   2   5    2.48    0.13
  -8  -2  -5    0.09    0.05
  -8  -2  -5   -0.06    0.04
  -8  -2  -5   -0.05    0.05
  -8  -2  -5    0.03    0.05
   8   2   5    0.07    0.04
   8   2   5    0.02    0.05
   8   2   5    0.04    0.05
   8   2   5    0.04    0.03
   8   2   5    0.00    0.04
   8   2   5    0.05    0.13
   8   2   5   -0.01    0.04
   8   2   5   -0.04    0.04
   8   2   5   -0.05    0.04
  -9  -2  -5    0.06    0.06
  -9  -2  -5    0.08    0.06
  -9  -2  -5   -0.01    0.06
  -9  -2  -5    0.01    0.05
   9   2   5    0.05    0.05
   9   2   5    0.03    0.06
   9   2   5    0.02    0.05
   9   2   5    0.06    0.15
   9   2   5   -0.04    0.04
   9   2   5    0.01    0.03
   9   2   5    0.05    0.05
   9   2   5   -0.03    0.05
   9   2   5    0.03    0.05
   8  -3  -5    0.91    0.11
   8  -3  -5    0.63    0.10
   8  -3  -5    0.66    0.10
  -8   3   5    0.75    0.09
  -8   3   5    0.82    0.18
  -8   3   5    1.05    0.12
  -8   3   5    0.60    0.10
  -8   3   5    0.83    0.10
  -8   3   5    0.89    0.11
   7  -3  -5    1.97    0.14
   7  -3  -5    1.78    0.13
   7  -3  -5    2.25    0.15
  -7   3   5    1.87    0.14
  -7   3   5    2.04    0.13
  -7   3   5    1.96    0.13
  -7   3   5    1.98    0.14
  -7   3   5    1.96    0.14
  -7   3   5    2.00    0.13
  -7   3   5    2.06    0.14
   6  -3  -5    3.77    0.17
   6  -3  -5    3.91    0.16
   6  -3  -5    3.77    0.17
   6  -3  -5    3.64    0.17
  -6   3   5    3.66    0.16
  -6   3   5    3.41    0.15
  -6   3   5    3.58    0.17
  -6   3   5    3.54    0.16
  -6   3   5    3.68    0.16
  -6   3   5    3.74    0.17
  -6   3   5    3.72    0.16
   5  -3  -5    0.95    0.09
   5  -3  -5    0.80    0.08
   5  -3  -5    0.89    0.09
   5  -3  -5    0.95    0.08
  -5   3   5    0.94    0.08
  -5   3   5    1.04    0.09
  -5   3   5    1.12    0.10
  -5   3   5    0.97    0.08
  -5   3   5    1.04    0.09
  -5   3   5    1.05    0.09
  -5   3   5    0.86    0.08
   4  -3  -5    0.33    0.06
   4  -3  -5    0.28    0.05
   4  -3  -5    0.29    0.04
   4  -3  -5    0.41    0.06
   4  -3  -5    0.30    0.05
  -4   3   5    0.49    0.06
  -4   3   5    0.35    0.05
  -4   3   5    0.36    0.05
  -4   3   5    0.47    0.06
  -4   3   5    0.38    0.08
  -4   3   5    0.26    0.05
  -4   3   5    0.51    0.19
  -4   3   5    0.37    0.05
  -4   3   5    0.36    0.05
  -4   3   5    0.39    0.08
   3  -3  -5    9.16    0.23
   3  -3  -5    8.99    0.25
   3  -3  -5    9.07    0.24
   3  -3  -5    9.08    0.24
   3  -3  -5    9.28    0.24
  -3   3   5    8.85    0.24
  -3   3   5    9.05    0.24
  -3   3   5    8.03    0.55
  -3   3   5    9.24    0.23
  -3   3   5    9.47    0.30
  -3   3   5    8.94    0.24
  -3   3   5    9.14    0.24
  -3   3   5    8.69    0.23
  -3   3   5    9.47    0.24
  -3   3   5    8.24    0.29
  -3   3   5    9.05    0.24
  -3   3   5    8.95    0.55
   2  -3  -5   15.07    0.35
   2  -3  -5   13.67    0.38
   2  -3  -5   14.82    0.33
   2  -3  -5   14.85    0.33
   2  -3  -5   15.13    0.34
  -2   3   5   15.09    0.34
  -2   3   5   14.72    0.33
  -2   3   5   14.86    0.32
  -2   3   5   14.92    0.34
  -2   3   5   14.65    0.39
  -2   3   5   14.68    0.34
  -2   3   5   14.75    0.40
  -2   3   5   14.61    0.34
  -2   3   5   14.52    0.33
  -2   3   5   14.49    0.66
  -2   3   5   14.69    0.32
  -2   3   5   14.69    0.66
   1  -3  -5    0.02    0.03
   1  -3  -5    0.00    0.02
   1  -3  -5    0.02    0.03
  -1   3   5    0.02    0.03
  -1   3   5   -0.01    0.02
  -1   3   5    0.02    0.02
  -1   3   5    0.04    0.07
  -1   3   5    0.04    0.02
  -1   3   5    0.01    0.07
  -1   3   5    0.02    0.02
  -1   3   5   -0.03    0.02
  -1   3   5    0.01    0.02
  -1   3   5    0.00    0.02
  -1   3   5    0.00    0.02
  -1   3   5    0.03    0.02
   0  -3  -5    3.06    0.10
   0  -3  -5    3.20    0.09
   0  -3  -5    3.02    0.11
   0  -3  -5    3.04    0.10
   0   3   5    3.08    0.11
   0   3   5    3.00    0.09
   0   3   5    3.24    0.13
   0   3   5    3.49    0.27
   0   3   5    3.57    0.13
   0   3   5    2.91    0.10
   0   3   5    3.11    0.10
   0   3   5    3.42    0.14
   0   3   5    3.31    0.09
   0   3   5    3.10    0.10
   0   3   5    3.05    0.10
   0   3   5    3.16    0.10
  -1  -3  -5   74.87    1.43
  -1  -3  -5   76.85    1.42
  -1  -3  -5   73.15    1.44
   1   3   5   73.40    1.42
   1   3   5   76.55    1.40
   1   3   5   74.71    1.76
   1   3   5   73.41    1.46
   1   3   5   72.50    1.43
   1   3   5   74.84    1.42
   1   3   5   71.57    1.46
   1   3   5   74.63    1.43
   1   3   5   73.68    1.40
   1   3   5   74.07    1.47
   1   3   5   73.62    1.43
   1   3   5   78.00    1.43
   1   3   5   69.10    1.73
   1   3   5   75.84    1.42
  -2  -3  -5    8.03    0.20
  -2  -3  -5    7.81    0.18
  -2  -3  -5    7.98    0.20
   2   3   5    7.71    0.19
   2   3   5    7.39    0.22
   2   3   5    7.07    0.39
   2   3   5    7.82    0.17
   2   3   5    7.85    0.19
   2   3   5    8.01    0.20
   2   3   5    8.06    0.18
   2   3   5    7.55    0.21
   2   3   5    8.04    0.17
   2   3   5    7.89    0.18
   2   3   5    7.04    0.21
   2   3   5    7.99    0.19
   2   3   5    8.17    0.19
  -3  -3  -5    4.86    0.14
  -3  -3  -5    4.63    0.14
  -3  -3  -5    4.65    0.12
  -3  -3  -5    4.51    0.15
   3   3   5    4.58    0.13
   3   3   5    4.59    0.11
   3   3   5    4.58    0.14
   3   3   5    4.88    0.13
   3   3   5    4.87    0.14
   3   3   5    4.68    0.11
   3   3   5    4.78    0.17
   3   3   5    5.07    0.34
   3   3   5    4.71    0.32
   3   3   5    4.57    0.16
   3   3   5    4.37    0.14
   3   3   5    4.60    0.13
   3   3   5    4.48    0.14
  -4  -3  -5    0.04    0.03
  -4  -3  -5    0.06    0.02
  -4  -3  -5   -0.02    0.02
  -4  -3  -5    0.02    0.03
  -4  -3  -5    0.03    0.03
   4   3   5    0.02    0.03
   4   3   5    0.03    0.02
   4   3   5    0.02    0.02
   4   3   5   -0.01    0.07
   4   3   5    0.01    0.02
   4   3   5    0.02    0.02
   4   3   5   -0.01    0.03
   4   3   5    0.03    0.03
   4   3   5   -0.03    0.07
   4   3   5    0.01    0.03
   4   3   5    0.03    0.02
   4   3   5    0.07    0.03
  -5  -3  -5    1.03    0.08
  -5  -3  -5    1.09    0.08
  -5  -3  -5    1.16    0.08
  -5  -3  -5    1.16    0.08
   5   3   5    0.72    0.20
   5   3   5    1.07    0.06
   5   3   5    1.02    0.09
   5   3   5    1.16    0.07
   5   3   5    0.98    0.08
   5   3   5    1.09    0.05
   5   3   5    1.22    0.08
   5   3   5    1.13    0.07
   5   3   5    1.10    0.08
   5   3   5    1.17    0.07
   5   3   5    1.08    0.07
  -6  -3  -5    2.55    0.13
  -6  -3  -5    2.69    0.12
  -6  -3  -5    2.50    0.13
  -6  -3  -5    2.73    0.13
   6   3   5    2.52    0.09
   6   3   5    2.61    0.15
   6   3   5    2.80    0.13
   6   3   5    2.68    0.11
   6   3   5    2.71    0.34
   6   3   5    2.55    0.11
   6   3   5    2.59    0.11
   6   3   5    2.77    0.12
   6   3   5    2.69    0.12
   6   3   5    2.84    0.33
   6   3   5    2.67    0.12
  -7  -3  -5    1.60    0.11
  -7  -3  -5    1.56    0.12
  -7  -3  -5    1.65    0.11
  -7  -3  -5    1.52    0.11
   7   3   5    1.33    0.27
   7   3   5    1.48    0.13
   7   3   5    1.56    0.10
   7   3   5    1.79    0.11
   7   3   5    1.70    0.11
   7   3   5    1.49    0.10
   7   3   5    1.44    0.30
   7   3   5    1.65    0.08
   7   3   5    1.45    0.09
   7   3   5    1.63    0.11
  -8  -3  -5    0.67    0.09
  -8  -3  -5    0.72    0.09
  -8  -3  -5    0.60    0.08
  -8  -3  -5    0.72    0.09
   8   3   5    0.73    0.08
   8   3   5    0.65    0.08
   8   3   5    0.69    0.06
   8   3   5    0.70    0.08
   8   3   5    0.75    0.09
   8   3   5    0.68    0.26
   8   3   5    0.70    0.09
   8   3   5    0.58    0.08
   8   3   5    0.68    0.10
  -9  -3  -5    1.10    0.11
  -9  -3  -5    1.27    0.13
  -9  -3  -5    1.18    0.12
  -9  -3  -5    1.28    0.13
   9   3   5    1.13    0.11
   9   3   5    1.40    0.12
   9   3   5    1.10    0.11
   9   3   5    1.25    0.11
   9   3   5    1.22    0.08
   9   3   5    1.43    0.13
   9   3   5    1.28    0.11
   9   3   5    1.29    0.14
   7  -4  -5   -0.10    0.05
   7  -4  -5    0.02    0.06
   7  -4  -5    0.00    0.05
   7  -4  -5   -0.03    0.05
  -7   4   5   -0.01    0.05
  -7   4   5    0.06    0.06
  -7   4   5   -0.02    0.05
  -7   4   5    0.00    0.05
  -7   4   5    0.14    0.06
  -7   4   5    0.08    0.05
  -7   4   5   -0.13    0.04
   6  -4  -5    5.31    0.22
   6  -4  -5    5.19    0.21
   6  -4  -5    5.03    0.21
   6  -4  -5    5.48    0.20
  -6   4   5    5.07    0.20
  -6   4   5    5.03    0.20
  -6   4   5    5.67    0.22
  -6   4   5    5.15    0.20
  -6   4   5    5.26    0.20
  -6   4   5    5.11    0.20
  -6   4   5    5.39    0.20
   5  -4  -5    3.21    0.14
   5  -4  -5    2.99    0.15
   5  -4  -5    2.93    0.15
   5  -4  -5    3.23    0.15
   5  -4  -5    2.95    0.14
  -5   4   5    3.05    0.14
  -5   4   5    3.30    0.14
  -5   4   5    2.79    0.14
  -5   4   5    3.10    0.15
  -5   4   5    3.20    0.15
  -5   4   5    3.33    0.15
  -5   4   5    3.05    0.14
   4  -4  -5    1.39    0.10
   4  -4  -5    1.42    0.10
   4  -4  -5    1.44    0.09
   4  -4  -5    1.57    0.10
  -4   4   5    1.47    0.10
  -4   4   5    1.37    0.10
  -4   4   5    1.56    0.10
  -4   4   5    1.41    0.09
  -4   4   5    1.46    0.09
  -4   4   5    1.45    0.10
  -4   4   5    1.43    0.10
   3  -4  -5    7.04    0.19
   3  -4  -5    7.01    0.20
   3  -4  -5    7.03    0.23
   3  -4  -5    6.97    0.21
   3  -4  -5    7.13    0.21
  -3   4   5    6.85    0.20
  -3   4   5    6.76    0.20
  -3   4   5    6.59    0.20
  -3   4   5    6.98    0.20
  -3   4   5    6.86    0.21
  -3   4   5    6.30    0.26
  -3   4   5    7.01    0.27
  -3   4   5    6.49    0.20
  -3   4   5    6.86    0.20
  -3   4   5    6.68    0.51
   2  -4  -5    6.20    0.17
   2  -4  -5    6.09    0.18
   2  -4  -5    6.22    0.18
   2  -4  -5    6.27    0.19
   2  -4  -5    6.22    0.19
   2  -4  -5    5.98    0.18
   2  -4  -5    6.45    0.17
  -2   4   5    5.30    0.44
  -2   4   5    5.75    0.23
  -2   4   5    5.75    0.44
  -2   4   5    6.02    0.18
  -2   4   5    5.86    0.17
  -2   4   5    6.30    0.18
  -2   4   5    6.15    0.23
  -2   4   5    6.28    0.17
  -2   4   5    6.00    0.17
  -2   4   5    6.17    0.18
  -2   4   5    6.26    0.18
  -2   4   5    6.24    0.18
   1  -4  -5   17.43    0.38
   1  -4  -5   17.46    0.38
   1  -4  -5   18.15    0.39
   1  -4  -5   18.01    0.40
   1  -4  -5   18.10    0.39
   1  -4  -5   17.74    0.40
   1  -4  -5   17.68    0.39
  -1   4   5   17.35    0.38
  -1   4   5   15.97    0.74
  -1   4   5   17.93    0.40
  -1   4   5   16.99    0.39
  -1   4   5   17.40    0.39
  -1   4   5   17.33    0.39
  -1   4   5   17.43    0.45
  -1   4   5   17.72    0.39
  -1   4   5   17.08    0.74
  -1   4   5   18.01    0.38
  -1   4   5   16.50    0.45
  -1   4   5   17.26    0.38
   0  -4  -5    9.09    0.21
   0  -4  -5    9.14    0.23
   0  -4  -5    9.08    0.21
   0  -4  -5    9.17    0.23
   0  -4  -5    8.73    0.23
   0   4   5    8.95    0.22
   0   4   5    8.90    0.27
   0   4   5    8.92    0.51
   0   4   5    8.70    0.21
   0   4   5    8.81    0.22
   0   4   5    8.87    0.21
   0   4   5    9.05    0.50
   0   4   5    8.56    0.27
   0   4   5    8.51    0.22
   0   4   5    8.92    0.25
   0   4   5    8.81    0.22
   0   4   5    8.91    0.22
   0   4   5    8.75    0.22
  -1  -4  -5    1.29    0.06
  -1  -4  -5    1.29    0.07
  -1  -4  -5    1.22    0.06
   1   4   5    0.95    0.19
   1   4   5    1.29    0.07
   1   4   5    1.30    0.07
   1   4   5    1.43    0.06
   1   4   5    1.07    0.07
   1   4   5    1.18    0.06
   1   4   5    1.11    0.09
   1   4   5    1.39    0.07
   1   4   5    1.31    0.07
   1   4   5    1.12    0.20
   1   4   5    1.15    0.09
   1   4   5    1.32    0.07
   1   4   5    1.31    0.07
  -2  -4  -5   17.73    0.40
  -2  -4  -5   17.97    0.40
  -2  -4  -5   17.74    0.38
   2   4   5   17.66    0.39
   2   4   5   19.08    0.74
   2   4   5   18.19    0.44
   2   4   5   18.55    0.73
   2   4   5   17.87    0.40
   2   4   5   17.78    0.40
   2   4   5   18.34    0.38
   2   4   5   17.31    0.38
   2   4   5   17.64    0.39
   2   4   5   18.16    0.42
   2   4   5   17.99    0.39
   2   4   5   17.42    0.39
   2   4   5   18.88    0.73
   2   4   5   17.41    0.39
  -3  -4  -5    0.00    0.02
  -3  -4  -5   -0.01    0.03
  -3  -4  -5   -0.01    0.03
  -3  -4  -5   -0.01    0.03
   3   4   5    0.03    0.03
   3   4   5    0.00    0.03
   3   4   5   -0.01    0.02
   3   4   5    0.02    0.03
   3   4   5    0.02    0.03
   3   4   5    0.01    0.03
   3   4   5    0.03    0.02
   3   4   5    0.02    0.03
   3   4   5    0.03    0.02
   3   4   5   -0.01    0.08
   3   4   5    0.13    0.03
   3   4   5    0.02    0.07
   3   4   5    0.03    0.03
  -4  -4  -5    0.44    0.06
  -4  -4  -5    0.30    0.05
  -4  -4  -5    0.29    0.05
  -4  -4  -5    0.33    0.04
  -4  -4  -5    0.34    0.05
   4   4   5    0.34    0.06
   4   4   5    0.27    0.04
   4   4   5    0.32    0.05
   4   4   5    0.36    0.04
   4   4   5    0.28    0.05
   4   4   5    0.26    0.04
   4   4   5    0.26    0.14
   4   4   5    0.30    0.04
   4   4   5    0.31    0.04
   4   4   5    0.15    0.12
   4   4   5    0.38    0.04
   4   4   5    0.31    0.05
  -5  -4  -5   12.20    0.29
  -5  -4  -5   12.19    0.32
  -5  -4  -5   11.65    0.31
  -5  -4  -5   11.61    0.30
  -5  -4  -5   11.87    0.31
   5   4   5   12.13    0.30
   5   4   5   12.39    0.31
   5   4   5   11.82    0.29
   5   4   5   12.25    0.30
   5   4   5   11.85    0.31
   5   4   5   12.68    0.69
   5   4   5   12.38    0.28
   5   4   5   11.69    0.30
   5   4   5   12.09    0.30
   5   4   5   11.98    0.36
   5   4   5   12.14    0.28
   5   4   5   12.40    0.68
  -6  -4  -5    1.04    0.09
  -6  -4  -5    0.62    0.08
  -6  -4  -5    0.80    0.08
  -6  -4  -5    0.79    0.08
   6   4   5    1.20    0.27
   6   4   5    0.94    0.08
   6   4   5    0.80    0.06
   6   4   5    1.26    0.28
   6   4   5    0.79    0.07
   6   4   5    0.82    0.08
   6   4   5    0.78    0.08
   6   4   5    0.93    0.11
   6   4   5    0.83    0.08
   6   4   5    0.95    0.09
   6   4   5    0.86    0.08
  -7  -4  -5    3.28    0.16
  -7  -4  -5    3.26    0.16
  -7  -4  -5    2.93    0.15
  -7  -4  -5    3.46    0.16
   7   4   5    3.06    0.41
   7   4   5    3.52    0.15
   7   4   5    3.32    0.13
   7   4   5    3.17    0.15
   7   4   5    3.12    0.14
   7   4   5    3.38    0.16
   7   4   5    2.99    0.14
   7   4   5    3.52    0.20
   7   4   5    3.36    0.15
   7   4   5    3.30    0.14
  -8  -4  -5    1.00    0.11
  -8  -4  -5    0.84    0.10
  -8  -4  -5    1.00    0.11
  -8  -4  -5    0.90    0.11
   8   4   5    0.91    0.09
   8   4   5    0.74    0.09
   8   4   5    0.96    0.08
   8   4   5    0.85    0.09
   8   4   5    0.81    0.09
   8   4   5    0.81    0.12
   8   4   5    0.93    0.09
   8   4   5    0.80    0.09
  -9  -4  -5    1.67    0.14
  -9  -4  -5    1.80    0.18
  -9  -4  -5    1.86    0.15
  -9  -4  -5    1.63    0.14
   9   4   5    1.79    0.14
   9   4   5    1.88    0.13
   9   4   5    1.90    0.13
   9   4   5    2.04    0.14
   9   4   5    1.83    0.13
   9   4   5    1.76    0.10
   9   4   5    1.78    0.14
   9   4   5    1.78    0.18
   7  -5  -5    0.35    0.08
   7  -5  -5    0.41    0.08
   7  -5  -5    0.48    0.09
  -7   5   5    0.44    0.09
  -7   5   5    0.48    0.09
  -7   5   5    0.31    0.08
  -7   5   5    0.39    0.08
   6  -5  -5    0.36    0.08
   6  -5  -5    0.23    0.07
   6  -5  -5    0.19    0.06
   6  -5  -5    0.34    0.07
  -6   5   5    0.30    0.07
  -6   5   5    0.25    0.07
  -6   5   5    0.23    0.07
  -6   5   5    0.23    0.06
  -6   5   5    0.22    0.07
  -6   5   5    0.33    0.07
   5  -5  -5    0.37    0.06
   5  -5  -5    0.26    0.07
   5  -5  -5    0.33    0.07
   5  -5  -5    0.39    0.07
  -5   5   5    0.26    0.06
  -5   5   5    0.28    0.07
  -5   5   5    0.34    0.07
  -5   5   5    0.30    0.06
  -5   5   5    0.35    0.07
  -5   5   5    0.32    0.06
  -5   5   5    0.48    0.07
   4  -5  -5    3.57    0.15
   4  -5  -5    3.70    0.15
   4  -5  -5    3.48    0.16
   4  -5  -5    3.38    0.16
   4  -5  -5    3.44    0.15
  -4   5   5    3.91    0.15
  -4   5   5    3.51    0.15
  -4   5   5    3.44    0.15
  -4   5   5    3.53    0.15
  -4   5   5    3.62    0.16
  -4   5   5    3.42    0.15
  -4   5   5    3.45    0.15
   3  -5  -5    6.96    0.22
   3  -5  -5    7.15    0.23
   3  -5  -5    7.37    0.23
   3  -5  -5    7.55    0.25
   3  -5  -5    7.42    0.22
   3  -5  -5    7.62    0.21
  -3   5   5    7.06    0.22
  -3   5   5    7.10    0.22
  -3   5   5    7.21    0.22
  -3   5   5    7.71    0.22
  -3   5   5    7.00    0.22
  -3   5   5    7.23    0.22
  -3   5   5    7.23    0.22
   2  -5  -5   14.84    0.35
   2  -5  -5   14.64    0.37
   2  -5  -5   14.98    0.35
   2  -5  -5   14.80    0.35
   2  -5  -5   14.80    0.36
   2  -5  -5   15.19    0.36
   2  -5  -5   14.72    0.37
  -2   5   5   14.60    0.35
  -2   5   5   14.81    0.36
  -2   5   5   14.73    0.35
  -2   5   5   14.91    0.44
  -2   5   5   14.56    0.36
  -2   5   5   15.52    0.79
  -2   5   5   14.42    0.35
  -2   5   5   14.56    0.43
  -2   5   5   14.50    0.35
  -2   5   5   14.81    0.36
   1  -5  -5    2.90    0.12
   1  -5  -5    3.28    0.11
   1  -5  -5    3.41    0.12
   1  -5  -5    3.20    0.13
   1  -5  -5    3.21    0.12
   1  -5  -5    3.22    0.12
  -1   5   5    3.08    0.11
  -1   5   5    3.07    0.17
  -1   5   5    2.84    0.16
  -1   5   5    2.95    0.12
  -1   5   5    2.98    0.11
  -1   5   5    2.98    0.12
  -1   5   5    3.25    0.12
  -1   5   5    3.02    0.12
  -1   5   5    3.13    0.35
  -1   5   5    2.84    0.34
  -1   5   5    3.10    0.12
  -1   5   5    3.10    0.12
   0  -5  -5    2.33    0.10
   0  -5  -5    2.22    0.09
   0  -5  -5    2.28    0.10
   0  -5  -5    2.22    0.11
   0  -5  -5    2.27    0.09
   0  -5  -5    2.28    0.10
   0  -5  -5    2.29    0.10
   0   5   5    2.18    0.10
   0   5   5    2.37    0.09
   0   5   5    2.20    0.14
   0   5   5    2.19    0.10
   0   5   5    2.37    0.30
   0   5   5    2.30    0.10
   0   5   5    2.29    0.14
   0   5   5    2.32    0.10
   0   5   5    2.15    0.10
   0   5   5    2.41    0.30
   0   5   5    2.38    0.09
   0   5   5    2.60    0.10
  -1  -5  -5    0.42    0.04
  -1  -5  -5    0.56    0.06
  -1  -5  -5    0.50    0.05
  -1  -5  -5    0.52    0.05
  -1  -5  -5    0.50    0.06
   1   5   5    0.43    0.05
   1   5   5    0.42    0.05
   1   5   5    0.45    0.16
   1   5   5    0.40    0.07
   1   5   5    0.42    0.05
   1   5   5    0.39    0.15
   1   5   5    0.41    0.04
   1   5   5    0.48    0.05
   1   5   5    0.52    0.06
   1   5   5    0.49    0.06
   1   5   5    0.41    0.04
   1   5   5    0.40    0.07
   1   5   5    0.43    0.05
  -2  -5  -5    6.74    0.18
  -2  -5  -5    6.93    0.20
  -2  -5  -5    6.65    0.20
  -2  -5  -5    6.73    0.18
  -2  -5  -5    6.83    0.19
   2   5   5    6.59    0.18
   2   5   5    6.82    0.20
   2   5   5    6.40    0.19
   2   5   5    6.44    0.45
   2   5   5    6.59    0.18
   2   5   5    6.95    0.19
   2   5   5    6.54    0.19
   2   5   5    6.82    0.19
   2   5   5    6.74    0.18
   2   5   5    6.61    0.24
   2   5   5    6.64    0.19
   2   5   5    6.32    0.45
   2   5   5    6.54    0.19
   2   5   5    6.87    0.47
  -3  -5  -5    0.48    0.06
  -3  -5  -5    0.50    0.06
  -3  -5  -5    0.46    0.06
  -3  -5  -5    0.47    0.05
  -3  -5  -5    0.58    0.06
   3   5   5    0.52    0.05
   3   5   5    0.43    0.05
   3   5   5    0.27    0.13
   3   5   5    0.45    0.05
   3   5   5    0.36    0.05
   3   5   5    0.49    0.05
   3   5   5    0.42    0.04
   3   5   5    0.34    0.05
   3   5   5    0.46    0.17
   3   5   5    0.51    0.05
   3   5   5    0.50    0.06
   3   5   5    0.42    0.07
   3   5   5    0.45    0.05
  -4  -5  -5    6.19    0.19
  -4  -5  -5    5.92    0.19
  -4  -5  -5    6.06    0.19
  -4  -5  -5    6.12    0.17
   4   5   5    5.91    0.18
   4   5   5    6.20    0.17
   4   5   5    5.39    0.23
   4   5   5    5.96    0.18
   4   5   5    6.20    0.18
   4   5   5    6.21    0.18
   4   5   5    5.86    0.18
   4   5   5    6.20    0.19
   4   5   5    5.97    0.17
   4   5   5    4.85    0.43
   4   5   5    5.22    0.46
   4   5   5    6.22    0.19
  -5  -5  -5    8.45    0.23
  -5  -5  -5    8.66    0.25
  -5  -5  -5    8.83    0.26
  -5  -5  -5    8.35    0.25
  -5  -5  -5    8.52    0.25
   5   5   5    8.83    0.25
   5   5   5    8.23    0.23
   5   5   5    8.35    0.23
   5   5   5    7.66    0.72
   5   5   5    8.43    0.24
   5   5   5    8.63    0.25
   5   5   5    8.52    0.24
   5   5   5    9.19    0.62
   5   5   5    8.46    0.22
   5   5   5    8.78    0.31
   5   5   5    8.32    0.24
  -6  -5  -5    4.43    0.18
  -6  -5  -5    3.91    0.17
  -6  -5  -5    4.10    0.17
  -6  -5  -5    4.30    0.17
   6   5   5    4.28    0.17
   6   5   5    4.28    0.17
   6   5   5    4.20    0.22
   6   5   5    4.30    0.17
   6   5   5    4.72    0.17
   6   5   5    4.16    0.17
   6   5   5    4.29    0.16
   6   5   5    4.45    0.15
   6   5   5    4.36    0.16
  -7  -5  -5    9.56    0.29
  -7  -5  -5    9.92    0.30
  -7  -5  -5    9.69    0.30
  -7  -5  -5    9.08    0.30
   7   5   5    9.38    0.27
   7   5   5    9.98    0.26
   7   5   5    9.62    0.28
   7   5   5    9.75    0.29
   7   5   5    9.94    0.28
   7   5   5    9.93    0.29
   7   5   5    9.67    0.36
   7   5   5    9.87    0.29
   7   5   5    9.68    0.29
  -8  -5  -5    0.84    0.10
  -8  -5  -5    0.85    0.10
  -8  -5  -5    0.71    0.10
  -8  -5  -5    0.79    0.10
   8   5   5    0.77    0.09
   8   5   5    0.59    0.08
   8   5   5    0.76    0.09
   8   5   5    0.81    0.08
   8   5   5    0.79    0.09
   8   5   5    0.85    0.09
   8   5   5    0.83    0.09
  -9  -5  -5    1.15    0.12
  -9  -5  -5    1.40    0.13
  -9  -5  -5    1.36    0.13
   9   5   5    1.40    0.12
   9   5   5    1.32    0.13
   9   5   5    1.44    0.12
   9   5   5    1.33    0.10
   9   5   5    1.43    0.13
   9   5   5    1.27    0.12
   9   5   5    1.35    0.12
   6  -6  -5    0.09    0.06
   6  -6  -5    0.08    0.06
   6  -6  -5    0.15    0.06
   6  -6  -5    0.11    0.07
  -6   6   5    0.02    0.05
  -6   6   5   -0.01    0.05
  -6   6   5    0.06    0.06
  -6   6   5    0.02    0.06
   5  -6  -5   10.81    0.31
   5  -6  -5   10.26    0.32
   5  -6  -5   10.28    0.30
   5  -6  -5   10.61    0.32
  -5   6   5    9.73    0.31
  -5   6   5    9.76    0.31
  -5   6   5   10.67    0.32
  -5   6   5    9.77    0.30
  -5   6   5   10.28    0.31
  -5   6   5   10.24    0.31
   4  -6  -5    0.17    0.05
   4  -6  -5    0.15    0.05
   4  -6  -5    0.13    0.05
   4  -6  -5    0.16    0.06
  -4   6   5    0.17    0.05
  -4   6   5    0.12    0.05
  -4   6   5    0.17    0.06
  -4   6   5    0.10    0.05
  -4   6   5    0.20    0.05
  -4   6   5    0.13    0.05
  -4   6   5    0.13    0.06
   3  -6  -5    1.22    0.09
   3  -6  -5    1.25    0.10
   3  -6  -5    1.19    0.11
   3  -6  -5    1.29    0.10
   3  -6  -5    1.15    0.09
  -3   6   5    1.12    0.09
  -3   6   5    1.11    0.10
  -3   6   5    1.09    0.09
  -3   6   5    1.10    0.10
  -3   6   5    1.10    0.09
  -3   6   5    1.14    0.10
  -3   6   5    1.13    0.10
   2  -6  -5    6.09    0.21
   2  -6  -5    5.93    0.19
   2  -6  -5    5.92    0.19
   2  -6  -5    5.91    0.20
   2  -6  -5    5.88    0.18
   2  -6  -5    6.44    0.20
   2  -6  -5    5.68    0.20
  -2   6   5    6.00    0.19
  -2   6   5    6.03    0.20
  -2   6   5    5.93    0.20
  -2   6   5    5.62    0.19
  -2   6   5    5.89    0.19
  -2   6   5    5.91    0.19
  -2   6   5    6.18    0.19
   1  -6  -5    4.54    0.15
   1  -6  -5    4.49    0.15
   1  -6  -5    4.29    0.17
   1  -6  -5    4.32    0.16
   1  -6  -5    4.21    0.16
   1  -6  -5    4.58    0.16
  -1   6   5    4.47    0.15
  -1   6   5    4.29    0.15
  -1   6   5    4.49    0.22
  -1   6   5    4.39    0.15
  -1   6   5    4.54    0.16
  -1   6   5    4.19    0.15
  -1   6   5    4.84    0.45
  -1   6   5    4.17    0.15
  -1   6   5    4.61    0.16
   0  -6  -5    6.08    0.20
   0  -6  -5    6.34    0.18
   0  -6  -5    6.37    0.18
   0  -6  -5    6.06    0.19
   0  -6  -5    6.05    0.19
   0  -6  -5    6.14    0.19
   0   6   5    6.07    0.19
   0   6   5    5.98    0.18
   0   6   5    6.12    0.19
   0   6   5    6.18    0.19
   0   6   5    6.00    0.18
   0   6   5    6.16    0.26
   0   6   5    6.12    0.25
   0   6   5    6.08    0.19
   0   6   5    5.88    0.18
   0   6   5    6.79    0.52
  -1  -6  -5    0.02    0.03
  -1  -6  -5    0.06    0.04
  -1  -6  -5    0.00    0.03
  -1  -6  -5    0.01    0.03
  -1  -6  -5    0.05    0.03
   1   6   5    0.03    0.03
   1   6   5    0.01    0.12
   1   6   5    0.05    0.03
   1   6   5   -0.01    0.04
   1   6   5    0.01    0.03
   1   6   5    0.04    0.10
   1   6   5    0.05    0.03
   1   6   5   -0.01    0.03
   1   6   5   -0.03    0.03
   1   6   5    0.01    0.03
   1   6   5    0.00    0.03
  -2  -6  -5   12.62    0.30
  -2  -6  -5   11.91    0.30
  -2  -6  -5   12.51    0.32
  -2  -6  -5   12.26    0.32
  -2  -6  -5   12.67    0.33
  -2  -6  -5   12.18    0.32
   2   6   5   12.55    0.32
   2   6   5   12.39    0.32
   2   6   5   14.54    0.75
   2   6   5   12.28    0.31
   2   6   5   12.13    0.31
   2   6   5   13.80    0.72
   2   6   5   13.16    0.31
   2   6   5   13.56    0.40
   2   6   5   11.61    0.31
   2   6   5   12.90    0.31
   2   6   5   12.47    0.31
   2   6   5   12.43    0.31
  -3  -6  -5    0.27    0.04
  -3  -6  -5    0.20    0.05
  -3  -6  -5    0.26    0.05
  -3  -6  -5    0.27    0.05
  -3  -6  -5    0.22    0.05
   3   6   5    0.24    0.05
   3   6   5    0.23    0.05
   3   6   5    0.24    0.05
   3   6   5    0.29    0.04
   3   6   5    0.23    0.05
   3   6   5    0.23    0.05
   3   6   5    0.26    0.04
   3   6   5    0.28    0.07
   3   6   5    0.29    0.05
   3   6   5    0.56    0.19
   3   6   5    0.20    0.04
  -4  -6  -5    1.76    0.09
  -4  -6  -5    1.68    0.10
  -4  -6  -5    1.57    0.10
  -4  -6  -5    1.36    0.10
   4   6   5    1.77    0.10
   4   6   5    1.30    0.13
   4   6   5    1.67    0.10
   4   6   5    1.59    0.10
   4   6   5    1.87    0.11
   4   6   5    1.51    0.10
   4   6   5    1.62    0.09
   4   6   5    1.46    0.09
   4   6   5    1.54    0.10
  -5  -6  -5    0.74    0.08
  -5  -6  -5    0.93    0.09
  -5  -6  -5    1.01    0.08
  -5  -6  -5    0.83    0.08
  -5  -6  -5    0.85    0.09
   5   6   5    0.90    0.08
   5   6   5    0.97    0.08
   5   6   5    1.01    0.09
   5   6   5    0.96    0.09
   5   6   5    0.85    0.09
   5   6   5    0.91    0.08
   5   6   5    0.95    0.09
   5   6   5    0.92    0.29
   5   6   5    0.88    0.13
   5   6   5    0.77    0.08
  -6  -6  -5    0.93    0.09
  -6  -6  -5    0.97    0.09
  -6  -6  -5    1.16    0.11
  -6  -6  -5    0.96    0.09
  -6  -6  -5    1.06    0.09
   6   6   5    1.04    0.09
   6   6   5    1.08    0.09
   6   6   5    0.87    0.09
   6   6   5    0.88    0.10
   6   6   5    0.92    0.09
   6   6   5    0.91    0.08
   6   6   5    1.16    0.10
   6   6   5    0.98    0.08
  -7  -6  -5    0.01    0.05
  -7  -6  -5   -0.03    0.04
  -7  -6  -5    0.11    0.05
  -7  -6  -5    0.03    0.05
   7   6   5    0.01    0.04
   7   6   5    0.04    0.05
   7   6   5    0.06    0.05
   7   6   5   -0.01    0.04
   7   6   5    0.08    0.05
   7   6   5    0.04    0.05
   7   6   5    0.01    0.04
   7   6   5    0.03    0.05
  -8  -6  -5    3.05    0.17
  -8  -6  -5    3.09    0.17
  -8  -6  -5    3.09    0.17
   8   6   5    2.92    0.17
   8   6   5    2.99    0.15
   8   6   5    3.09    0.16
   8   6   5    2.97    0.14
   8   6   5    2.90    0.16
   8   6   5    3.22    0.17
   8   6   5    3.05    0.16
   8   6   5    3.05    0.16
  -9  -6  -5    7.29    0.28
  -9  -6  -5    7.68    0.28
  -9  -6  -5    7.74    0.28
   9   6   5    7.86    0.29
   9   6   5    7.95    0.28
   9   6   5    7.86    0.28
   9   6   5    7.71    0.27
   9   6   5    7.84    0.27
   9   6   5    7.67    0.25
   9   6   5    7.60    0.27
   6  -7  -5    0.22    0.07
   6  -7  -5    0.28    0.08
   6  -7  -5    0.31    0.08
   6  -7  -5    0.38    0.08
  -6   7   5    0.39    0.08
  -6   7   5    0.39    0.09
  -6   7   5    0.44    0.09
  -6   7   5    0.46    0.09
   5  -7  -5   -0.06    0.04
   5  -7  -5    0.02    0.06
   5  -7  -5   -0.03    0.05
   5  -7  -5    0.04    0.05
  -5   7   5    0.00    0.05
  -5   7   5    0.03    0.06
  -5   7   5    0.00    0.05
  -5   7   5    0.02    0.05
   4  -7  -5    4.15    0.18
   4  -7  -5    4.35    0.18
   4  -7  -5    4.41    0.19
   4  -7  -5    4.17    0.17
  -4   7   5    4.07    0.18
  -4   7   5    3.64    0.27
  -4   7   5    3.82    0.18
  -4   7   5    4.16    0.18
  -4   7   5    3.31    0.19
  -4   7   5    4.23    0.18
   3  -7  -5   -0.04    0.04
   3  -7  -5   -0.09    0.04
   3  -7  -5   -0.01    0.04
   3  -7  -5   -0.04    0.04
  -3   7   5   -0.04    0.04
  -3   7   5    0.05    0.05
  -3   7   5    0.00    0.04
  -3   7   5    0.00    0.04
  -3   7   5   -0.02    0.04
  -3   7   5   -0.01    0.04
  -3   7   5   -0.03    0.04
   2  -7  -5    0.29    0.07
   2  -7  -5    0.30    0.06
   2  -7  -5    0.20    0.08
   2  -7  -5    0.41    0.06
   2  -7  -5    0.39    0.06
   2  -7  -5    0.30    0.06
  -2   7   5    0.36    0.06
  -2   7   5    0.26    0.06
  -2   7   5    0.25    0.06
  -2   7   5    0.28    0.06
  -2   7   5    0.33    0.06
  -2   7   5    0.28    0.06
  -2   7   5    0.24    0.06
   1  -7  -5    6.93    0.23
   1  -7  -5    7.11    0.21
   1  -7  -5    7.27    0.23
   1  -7  -5    7.17    0.23
   1  -7  -5    7.17    0.21
   1  -7  -5    6.92    0.22
  -1   7   5    6.85    0.22
  -1   7   5    6.82    0.22
  -1   7   5    7.38    0.22
  -1   7   5    7.15    0.23
  -1   7   5    6.83    0.22
  -1   7   5    7.33    0.22
  -1   7   5    7.26    0.22
   0  -7  -5    7.78    0.22
   0  -7  -5    7.27    0.23
   0  -7  -5    7.58    0.22
   0  -7  -5    7.22    0.23
   0  -7  -5    7.63    0.24
   0  -7  -5    8.00    0.23
   0   7   5    7.46    0.23
   0   7   5    7.73    0.23
   0   7   5    7.65    0.23
   0   7   5    7.40    0.23
   0   7   5    7.88    0.23
   0   7   5    7.47    0.22
   0   7   5    7.32    0.22
  -1  -7  -5   -0.01    0.04
  -1  -7  -5    0.03    0.04
  -1  -7  -5    0.02    0.03
  -1  -7  -5   -0.01    0.04
  -1  -7  -5   -0.01    0.03
   1   7   5    0.04    0.04
   1   7   5    0.00    0.03
   1   7   5    0.01    0.04
   1   7   5   -0.03    0.04
   1   7   5    0.00    0.03
   1   7   5    0.07    0.05
   1   7   5    0.05    0.04
   1   7   5   -0.01    0.03
   1   7   5    0.06    0.04
  -2  -7  -5   18.86    0.44
  -2  -7  -5   19.34    0.44
  -2  -7  -5   19.53    0.46
  -2  -7  -5   19.12    0.47
  -2  -7  -5   20.19    0.46
  -2  -7  -5   19.60    0.46
   2   7   5   19.34    0.46
   2   7   5   19.32    0.45
   2   7   5   18.80    0.44
   2   7   5   19.64    0.45
   2   7   5   18.84    0.45
   2   7   5   19.09    0.45
   2   7   5   17.80    0.44
   2   7   5   19.76    0.46
  -3  -7  -5   82.94    1.64
  -3  -7  -5   82.76    1.66
  -3  -7  -5   82.95    1.66
  -3  -7  -5   85.95    1.68
   3   7   5   84.76    1.65
   3   7   5   84.87    1.66
   3   7   5   81.87    1.65
   3   7   5   83.96    1.66
   3   7   5   81.51    1.65
   3   7   5   81.50    1.64
   3   7   5   83.20    1.64
   3   7   5   83.59    1.65
  -4  -7  -5    0.15    0.05
  -4  -7  -5    0.05    0.05
  -4  -7  -5    0.10    0.05
  -4  -7  -5    0.19    0.05
   4   7   5    0.11    0.04
   4   7   5    0.17    0.05
   4   7   5    0.09    0.04
   4   7   5    0.09    0.05
   4   7   5    0.14    0.04
   4   7   5    0.13    0.05
   4   7   5    0.08    0.04
   4   7   5    0.10    0.05
  -5  -7  -5   18.08    0.45
  -5  -7  -5   17.82    0.43
  -5  -7  -5   17.72    0.45
  -5  -7  -5   18.78    0.45
  -5  -7  -5   17.85    0.46
   5   7   5   17.66    0.43
   5   7   5   17.77    0.44
   5   7   5   18.10    0.46
   5   7   5   18.31    0.45
   5   7   5   18.41    0.44
   5   7   5   18.03    0.43
   5   7   5   18.11    0.44
   5   7   5   18.60    0.45
  -6  -7  -5    0.84    0.09
  -6  -7  -5    0.85    0.08
  -6  -7  -5    0.91    0.10
  -6  -7  -5    0.73    0.09
  -6  -7  -5    0.77    0.09
   6   7   5    0.80    0.09
   6   7   5    0.75    0.08
   6   7   5    0.86    0.09
   6   7   5    1.20    0.11
   6   7   5    0.92    0.10
   6   7   5    1.15    0.10
   6   7   5    1.02    0.10
   6   7   5    0.84    0.09
  -7  -7  -5    0.60    0.09
  -7  -7  -5    0.50    0.08
  -7  -7  -5    0.52    0.09
   7   7   5    0.55    0.08
   7   7   5    0.64    0.09
   7   7   5    0.57    0.08
   7   7   5    0.41    0.08
   7   7   5    0.51    0.08
   7   7   5    0.61    0.09
   7   7   5    0.48    0.08
   7   7   5    0.57    0.08
  -8  -7  -5    0.43    0.08
  -8  -7  -5    0.25    0.07
  -8  -7  -5    0.48    0.09
   8   7   5    0.35    0.07
   8   7   5    0.33    0.07
   8   7   5    0.28    0.07
   8   7   5    0.34    0.07
   8   7   5    0.32    0.08
   8   7   5    0.36    0.08
   8   7   5    0.37    0.08
   8   7   5    0.32    0.08
   5  -8  -5    2.05    0.15
   5  -8  -5    2.15    0.15
   5  -8  -5    2.43    0.17
   5  -8  -5    2.27    0.15
  -5   8   5    2.26    0.15
  -5   8   5    2.17    0.15
  -5   8   5    2.37    0.16
  -5   8   5    2.05    0.15
   4  -8  -5    3.62    0.18
   4  -8  -5    3.36    0.17
   4  -8  -5    3.68    0.19
  -4   8   5    3.58    0.18
  -4   8   5    3.54    0.18
  -4   8   5    3.64    0.18
  -4   8   5    3.75    0.18
   3  -8  -5    0.70    0.10
   3  -8  -5    0.81    0.09
   3  -8  -5    0.84    0.09
  -3   8   5    0.74    0.09
  -3   8   5    0.88    0.10
  -3   8   5    0.77    0.09
  -3   8   5    0.75    0.09
   2  -8  -5    0.06    0.04
   2  -8  -5   -0.05    0.04
   2  -8  -5    0.07    0.05
  -2   8   5    0.00    0.04
  -2   8   5    0.05    0.05
  -2   8   5    0.04    0.04
  -2   8   5    0.04    0.05
  -2   8   5    0.00    0.04
  -2   8   5    0.11    0.05
   1  -8  -5    0.92    0.10
   1  -8  -5    0.74    0.09
   1  -8  -5    0.72    0.09
   1  -8  -5    0.69    0.07
   1  -8  -5    0.79    0.08
  -1   8   5    1.17    0.15
  -1   8   5    0.54    0.07
  -1   8   5    0.68    0.08
  -1   8   5    0.87    0.09
  -1   8   5    0.81    0.09
  -1   8   5    0.72    0.08
  -1   8   5    0.77    0.08
   0  -8  -5    0.35    0.06
   0  -8  -5    0.25    0.06
   0  -8  -5    0.40    0.06
   0  -8  -5    0.33    0.06
   0  -8  -5    0.56    0.08
   0   8   5    0.37    0.06
   0   8   5    0.36    0.06
   0   8   5    0.38    0.06
   0   8   5    0.29    0.06
   0   8   5    0.37    0.06
   0   8   5    0.38    0.07
   0   8   5    0.35    0.06
  -1  -8  -5    9.83    0.27
  -1  -8  -5   10.11    0.29
  -1  -8  -5    9.76    0.29
  -1  -8  -5    9.31    0.28
  -1  -8  -5    9.60    0.27
   1   8   5    9.29    0.27
   1   8   5    9.05    0.27
   1   8   5    9.22    0.27
   1   8   5    9.59    0.29
   1   8   5    9.51    0.28
   1   8   5    9.95    0.28
   1   8   5    9.80    0.27
  -2  -8  -5    5.99    0.21
  -2  -8  -5    6.64    0.21
  -2  -8  -5    6.40    0.21
  -2  -8  -5    6.41    0.21
  -2  -8  -5    6.25    0.23
   2   8   5    6.42    0.21
   2   8   5    6.27    0.21
   2   8   5    6.86    0.23
   2   8   5    6.78    0.22
   2   8   5    6.38    0.21
   2   8   5    6.28    0.21
   2   8   5    6.27    0.21
   2   8   5    6.59    0.21
  -3  -8  -5    8.54    0.27
  -3  -8  -5    8.21    0.26
  -3  -8  -5    8.44    0.25
  -3  -8  -5    8.48    0.25
   3   8   5    8.27    0.26
   3   8   5    8.26    0.25
   3   8   5    8.52    0.25
   3   8   5    8.05    0.25
   3   8   5    8.07    0.24
   3   8   5    8.33    0.26
   3   8   5    8.09    0.25
   3   8   5    8.37    0.25
  -4  -8  -5    1.54    0.11
  -4  -8  -5    1.65    0.12
  -4  -8  -5    1.91    0.11
   4   8   5    1.79    0.11
   4   8   5    1.58    0.12
   4   8   5    1.55    0.11
   4   8   5    1.72    0.11
   4   8   5    1.88    0.12
   4   8   5    1.74    0.11
   4   8   5    1.66    0.11
  -5  -8  -5    3.48    0.17
  -5  -8  -5    3.60    0.17
  -5  -8  -5    3.52    0.17
  -5  -8  -5    3.55    0.15
   5   8   5    3.76    0.16
   5   8   5    3.64    0.16
   5   8   5    3.60    0.17
   5   8   5    3.49    0.16
   5   8   5    3.90    0.16
   5   8   5    3.51    0.16
   5   8   5    3.89    0.17
   5   8   5    3.63    0.16
  -6  -8  -5    0.31    0.06
  -6  -8  -5    0.25    0.07
  -6  -8  -5    0.18    0.06
  -6  -8  -5    0.13    0.06
   6   8   5    0.23    0.06
   6   8   5    0.22    0.06
   6   8   5    0.17    0.06
   6   8   5    0.29    0.06
   6   8   5    0.15    0.06
   6   8   5    0.23    0.06
   6   8   5    0.26    0.06
   6   8   5    0.28    0.07
  -7  -8  -5    2.83    0.16
  -7  -8  -5    2.83    0.17
  -7  -8  -5    3.07    0.17
   7   8   5    2.86    0.17
   7   8   5    2.90    0.17
   7   8   5    3.05    0.16
   7   8   5    2.99    0.15
   7   8   5    2.98    0.16
   7   8   5    2.99    0.16
   7   8   5    3.03    0.16
   7   8   5    3.27    0.16
  -8  -8  -5    0.39    0.09
  -8  -8  -5    0.17    0.07
  -8  -8  -5    0.16    0.07
   8   8   5    0.23    0.08
   8   8   5    0.13    0.07
   8   8   5    0.24    0.07
   8   8   5    0.18    0.07
   8   8   5    0.23    0.07
   8   8   5    0.13    0.07
   8   8   5    0.24    0.06
   8   8   5    0.16    0.09
   4  -9  -5    2.22    0.17
   4  -9  -5    2.20    0.15
   4  -9  -5    1.92    0.14
  -4   9   5    1.98    0.16
  -4   9   5    2.20    0.15
  -4   9   5    2.03    0.14
  -4   9   5    2.20    0.15
   3  -9  -5    0.07    0.05
   3  -9  -5    0.03    0.05
   3  -9  -5    0.01    0.06
  -3   9   5   -0.01    0.05
  -3   9   5    0.00    0.05
  -3   9   5   -0.04    0.05
  -3   9   5    0.02    0.05
   2  -9  -5    0.17    0.06
   2  -9  -5    0.22    0.06
   2  -9  -5    0.37    0.08
  -2   9   5    0.27    0.07
  -2   9   5    0.19    0.06
  -2   9   5    0.16    0.06
  -2   9   5    0.23    0.06
   1  -9  -5    3.68    0.16
   1  -9  -5    3.36    0.16
   1  -9  -5    3.48    0.18
  -1   9   5    3.49    0.16
  -1   9   5    3.17    0.16
  -1   9   5    3.56    0.17
   0  -9  -5    1.39    0.12
   0  -9  -5    1.32    0.10
   0  -9  -5    1.33    0.12
   0  -9  -5    1.20    0.11
   0   9   5    1.31    0.11
   0   9   5    1.30    0.11
   0   9   5    1.15    0.11
   0   9   5    0.89    0.11
   0   9   5    1.36    0.11
  -1  -9  -5    3.50    0.20
  -1  -9  -5    4.18    0.16
  -1  -9  -5    3.99    0.17
   1   9   5    4.10    0.17
   1   9   5    3.74    0.18
   1   9   5    3.94    0.17
   1   9   5    4.11    0.17
   1   9   5    3.92    0.17
   1   9   5    4.19    0.17
  -2  -9  -5    2.64    0.13
  -2  -9  -5    2.70    0.14
  -2  -9  -5    2.50    0.13
   2   9   5    2.52    0.14
   2   9   5    2.61    0.15
   2   9   5    2.57    0.15
   2   9   5    2.33    0.13
   2   9   5    2.47    0.14
   2   9   5    2.53    0.14
   2   9   5    2.46    0.14
  -3  -9  -5    3.73    0.17
  -3  -9  -5    3.93    0.17
  -3  -9  -5    3.84    0.16
   3   9   5    3.91    0.17
   3   9   5    4.01    0.17
   3   9   5    3.94    0.17
   3   9   5    3.78    0.17
   3   9   5    4.04    0.17
   3   9   5    4.04    0.17
   3   9   5    4.11    0.19
  -4  -9  -5    0.28    0.07
  -4  -9  -5    0.25    0.06
  -4  -9  -5    0.35    0.07
   4   9   5    0.20    0.06
   4   9   5    0.42    0.08
   4   9   5    0.33    0.06
   4   9   5    0.26    0.06
   4   9   5    0.30    0.06
   4   9   5    0.30    0.06
   4   9   5    0.30    0.06
  -5  -9  -5    1.28    0.12
  -5  -9  -5    1.11    0.11
  -5  -9  -5    1.23    0.12
  -5  -9  -5    1.31    0.11
   5   9   5    1.30    0.11
   5   9   5    1.21    0.11
   5   9   5    1.08    0.11
   5   9   5    1.03    0.10
   5   9   5    1.33    0.13
   5   9   5    1.20    0.11
   5   9   5    1.26    0.12
  -6  -9  -5    0.29    0.07
  -6  -9  -5    0.24    0.07
  -6  -9  -5    0.34    0.08
  -6  -9  -5    0.21    0.07
   6   9   5    0.42    0.08
   6   9   5    0.33    0.07
   6   9   5    0.32    0.07
   6   9   5    0.20    0.07
   6   9   5    0.31    0.07
   6   9   5    0.19    0.09
  -7  -9  -5    1.35    0.13
  -7  -9  -5    1.33    0.14
  -7  -9  -5    1.47    0.14
  -7  -9  -5    1.00    0.11
   7   9   5    1.13    0.12
   7   9   5    1.08    0.11
   7   9   5    1.34    0.13
   7   9   5    1.03    0.11
   7   9   5    1.18    0.13
   3 -10  -5    0.15    0.07
   3 -10  -5    0.27    0.08
   3 -10  -5    0.23    0.07
  -3  10   5    0.17    0.07
  -3  10   5    0.20    0.07
   2 -10  -5    1.87    0.13
   2 -10  -5    1.73    0.14
   2 -10  -5    1.69    0.14
  -2  10   5    1.67    0.14
  -2  10   5    1.66    0.13
  -2  10   5    1.67    0.13
   1 -10  -5    1.01    0.11
   1 -10  -5    1.30    0.13
   1 -10  -5    1.11    0.11
  -1  10   5    1.09    0.11
  -1  10   5    1.31    0.12
  -1  10   5    1.21    0.12
  -1  10   5    0.99    0.10
   0 -10  -5    0.07    0.05
   0 -10  -5    0.01    0.05
   0  10   5    0.09    0.05
   0  10   5    0.13    0.06
   0  10   5    0.08    0.05
   0  10   5    0.06    0.05
  -1 -10  -5    0.13    0.06
  -1 -10  -5    0.14    0.05
  -1 -10  -5    0.12    0.05
   1  10   5    0.09    0.06
   1  10   5    0.10    0.06
   1  10   5    0.12    0.06
   1  10   5    0.10    0.06
   1  10   5    0.11    0.05
  -2 -10  -5    0.01    0.05
  -2 -10  -5    0.00    0.05
  -2 -10  -5    0.00    0.05
   2  10   5    0.02    0.05
   2  10   5   -0.04    0.05
   2  10   5    0.00    0.05
   2  10   5    0.04    0.05
   2  10   5   -0.01    0.05
  -3 -10  -5   -0.05    0.04
  -3 -10  -5   -0.08    0.04
  -3 -10  -5   -0.02    0.04
   3  10   5    0.01    0.06
   3  10   5   -0.07    0.04
   3  10   5    0.02    0.05
   3  10   5   -0.01    0.05
   3  10   5   -0.07    0.04
  -4 -10  -5    1.09    0.11
  -4 -10  -5    1.02    0.11
  -4 -10  -5    1.25    0.12
  -4 -10  -5    1.15    0.12
   4  10   5    0.99    0.10
   4  10   5    1.17    0.11
   4  10   5    1.18    0.12
   4  10   5    1.12    0.12
   4  10   5    1.15    0.11
  -5 -10  -5    2.44    0.16
  -5 -10  -5    2.34    0.14
  -5 -10  -5    2.37    0.15
  -5 -10  -5    2.67    0.16
   5  10   5    2.27    0.16
   5  10   5    2.20    0.15
   5  10   5    2.42    0.15
   5  10   5    2.37    0.15
   5  10   5    2.30    0.15
  -6 -10  -5    0.31    0.08
  -6 -10  -5    0.22    0.07
  -6 -10  -5    0.22    0.07
  -6 -10  -5    0.32    0.08
   6  10   5    0.24    0.07
   6  10   5    0.19    0.07
   6  10   5    0.24    0.07
   6  10   5    0.28    0.08
   6  10   5    0.22    0.08
   1 -11  -5    1.44    0.13
   1 -11  -5    1.39    0.13
  -1  11   5    1.30    0.13
  -1  11   5    1.48    0.14
   0 -11  -5    0.60    0.11
   0 -11  -5    0.36    0.08
   0 -11  -5    0.59    0.08
   0  11   5    0.45    0.09
   0  11   5    0.52    0.09
   0  11   5    0.45    0.09
   0  11   5    0.47    0.08
  -1 -11  -5    0.23    0.07
  -1 -11  -5    0.38    0.07
  -1 -11  -5    0.28    0.08
   1  11   5    0.35    0.08
   1  11   5    0.58    0.10
   1  11   5    0.26    0.07
   1  11   5    0.28    0.08
  -2 -11  -5    0.54    0.09
  -2 -11  -5    0.69    0.10
  -2 -11  -5    0.74    0.09
   2  11   5    0.61    0.10
   2  11   5    0.88    0.11
   2  11   5    0.55    0.09
   2  11   5    0.76    0.10
   2  11   5    0.60    0.09
  -3 -11  -5    4.37    0.20
  -3 -11  -5    4.61    0.20
  -3 -11  -5    4.44    0.19
  -3 -11  -5    4.26    0.20
   3  11   5    4.63    0.21
   3  11   5    4.71    0.22
   3  11   5    4.54    0.21
   3  11   5    4.45    0.20
   3  11   5    4.68    0.20
  -4 -11  -5    0.20    0.07
  -4 -11  -5    0.24    0.07
  -4 -11  -5    0.24    0.08
  -4 -11  -5    0.30    0.08
   4  11   5    0.27    0.07
   4  11   5    0.23    0.07
   4  11   5    0.31    0.08
   4  11   5    0.22    0.07
   4  11   5    0.37    0.08
  -5 -11  -5    0.97    0.12
  -5 -11  -5    0.90    0.11
  -5 -11  -5    0.89    0.11
  -5 -11  -5    1.03    0.11
   5  11   5    1.17    0.13
   5  11   5    1.11    0.12
   5  11   5    0.92    0.12
   5  11   5    0.85    0.11
   5  11   5    1.06    0.13
   3   8  -6    3.25    0.15
  -3  -8   6    3.07    0.17
  -3  -8   6    3.24    0.14
  -3  -8   6    3.12    0.14
  -3  -8   6    3.26    0.14
  -2  -8   6    1.08    0.12
  -2  -8   6    1.02    0.09
  -2  -8   6    1.14    0.09
  -2  -8   6    1.32    0.09
  -1  -8   6    0.04    0.04
  -1  -8   6    0.04    0.03
  -1  -8   6   -0.02    0.06
  -1  -8   6    0.02    0.03
   0  -8   6    0.18    0.04
   0  -8   6    0.01    0.06
   0  -8   6    0.11    0.04
   0  -8   6    0.14    0.04
   1  -8   6    3.47    0.19
   1  -8   6    3.22    0.13
   1  -8   6    3.22    0.13
   1  -8   6    3.15    0.13
   5   7  -6    2.07    0.12
  -5  -7   6    1.92    0.12
  -5  -7   6    1.82    0.12
  -5  -7   6    1.74    0.12
   4   7  -6    0.15    0.05
  -4  -7   6    0.10    0.05
  -4  -7   6    0.07    0.04
  -4  -7   6    0.13    0.06
  -4  -7   6    0.14    0.05
   3   7  -6    5.37    0.17
  -3  -7   6    5.45    0.18
  -3  -7   6    5.58    0.22
  -3  -7   6    5.46    0.18
  -3  -7   6    5.61    0.18
   2   7  -6    0.03    0.03
  -2  -7   6   -0.02    0.03
  -2  -7   6    0.05    0.03
  -2  -7   6    0.01    0.06
  -2  -7   6    0.08    0.04
  -2  -7   6   -0.01    0.05
  -1  -7   6    0.04    0.03
  -1  -7   6    0.02    0.03
  -1  -7   6    0.00    0.03
  -1  -7   6    0.06    0.05
   0  -7   6    0.30    0.08
   0  -7   6    0.29    0.05
   0  -7   6    0.35    0.05
   0  -7   6    0.41    0.05
   1  -7   6    5.19    0.15
   1  -7   6    4.92    0.16
   1  -7   6    4.83    0.15
   1  -7   6    5.26    0.22
   2  -7   6    4.38    0.21
   2  -7   6    4.13    0.14
   2  -7   6    4.32    0.15
   2  -7   6    4.42    0.15
   3  -7   6    0.22    0.08
   3  -7   6    0.20    0.05
   3  -7   6    0.15    0.04
   3  -7   6    0.20    0.05
   6   6  -6    0.11    0.05
  -6  -6   6    0.25    0.06
  -6  -6   6    0.31    0.05
  -6  -6   6    0.23    0.06
  -6  -6   6    0.22    0.06
   5   6  -6    4.19    0.17
  -5  -6   6    4.13    0.17
  -5  -6   6    4.15    0.17
  -5  -6   6    4.32    0.17
  -5  -6   6    4.23    0.11
   4   6  -6    2.15    0.11
  -4  -6   6    2.54    0.12
  -4  -6   6    2.05    0.11
  -4  -6   6    2.50    0.14
  -4  -6   6    2.27    0.11
   3   6  -6    4.10    0.14
  -3  -6   6    4.41    0.21
  -3  -6   6    3.93    0.14
  -3  -6   6    4.12    0.18
  -3  -6   6    4.13    0.15
  -3  -6   6    4.07    0.14
   2   6  -6    8.68    0.22
  -2  -6   6    8.92    0.23
  -2  -6   6    8.85    0.32
  -2  -6   6    9.08    0.28
  -2  -6   6    8.78    0.23
  -2  -6   6    9.22    0.23
   1   6  -6    0.84    0.07
  -1  -6   6    0.80    0.09
  -1  -6   6    0.69    0.06
  -1  -6   6    0.86    0.12
  -1  -6   6    0.81    0.06
  -1  -6   6    0.86    0.06
   0  -6   6    4.96    0.21
   0  -6   6    5.15    0.15
   0  -6   6    5.42    0.15
   0  -6   6    5.47    0.15
   1  -6   6    0.17    0.03
   1  -6   6    0.04    0.05
   1  -6   6    0.15    0.03
   1  -6   6    0.15    0.03
   2  -6   6    9.90    0.24
   2  -6   6    9.80    0.31
   2  -6   6    9.60    0.24
   2  -6   6    9.87    0.24
   3  -6   6   -0.04    0.05
   3  -6   6    0.03    0.03
   3  -6   6    0.04    0.03
   3  -6   6   -0.01    0.03
   4  -6   6    0.13    0.06
   4  -6   6    0.18    0.04
   4  -6   6    0.24    0.05
   4  -6   6    0.15    0.04
   6   5  -6    0.51    0.08
  -6  -5   6    0.61    0.08
  -6  -5   6    0.51    0.15
  -6  -5   6    0.61    0.08
  -6  -5   6    0.57    0.06
  -6  -5   6    0.53    0.08
  -6  -5   6    0.63    0.17
   5   5  -6   -0.04    0.04
  -5  -5   6    0.03    0.04
  -5  -5   6    0.00    0.04
  -5  -5   6    0.01    0.05
  -5  -5   6    0.02    0.04
  -5  -5   6    0.04    0.03
   4   5  -6    1.25    0.08
  -4  -5   6    1.41    0.09
  -4  -5   6    1.31    0.09
  -4  -5   6    1.43    0.13
  -4  -5   6    1.21    0.10
  -4  -5   6    1.49    0.09
   3   5  -6   22.98    0.50
  -3  -5   6   23.39    0.50
  -3  -5   6   23.87    0.55
  -3  -5   6   23.12    0.50
  -3  -5   6   23.79    0.51
  -3  -5   6   22.94    0.60
   2   5  -6    3.19    0.11
  -2  -5   6    3.45    0.11
  -2  -5   6    3.23    0.11
  -2  -5   6    3.38    0.16
  -2  -5   6    3.28    0.11
  -2  -5   6    3.40    0.18
   1   5  -6    0.16    0.03
  -1  -5   6    0.22    0.03
  -1  -5   6    0.20    0.03
  -1  -5   6    0.20    0.07
  -1  -5   6    0.17    0.03
  -1  -5   6    0.22    0.06
   0  -5   6    0.02    0.05
   0  -5   6    0.02    0.02
   0  -5   6    0.03    0.06
   0  -5   6    0.02    0.02
   0  -5   6    0.00    0.02
   1  -5   6   17.32    0.36
   1  -5   6   17.30    0.36
   1  -5   6   17.10    0.44
   1  -5   6   17.57    0.36
   2  -5   6    0.27    0.07
   2  -5   6    0.30    0.04
   2  -5   6    0.32    0.04
   2  -5   6    0.27    0.04
   3  -5   6    6.91    0.18
   3  -5   6    7.01    0.19
   3  -5   6    6.98    0.19
   3  -5   6    7.21    0.25
  -4   5  -6    0.72    0.07
   4  -5   6    0.69    0.06
   4  -5   6    0.64    0.06
   4  -5   6    0.72    0.07
   4  -5   6    0.73    0.09
  -5   5  -6    3.45    0.15
   5  -5   6    3.84    0.19
   5  -5   6    3.60    0.14
   5  -5   6    3.64    0.14
   5  -5   6    3.79    0.14
   7   4  -6    4.99    0.20
   7   4  -6    4.33    0.19
  -7  -4   6    4.20    0.44
  -7  -4   6    4.25    0.44
  -7  -4   6    4.41    0.19
  -7  -4   6    4.46    0.16
  -7  -4   6    4.53    0.19
  -7  -4   6    4.40    0.19
   6   4  -6    1.27    0.10
   6   4  -6    1.44    0.13
  -6  -4   6    1.31    0.13
  -6  -4   6    1.33    0.08
  -6  -4   6    1.37    0.11
  -6  -4   6    1.20    0.10
  -6  -4   6    1.30    0.10
  -6  -4   6    1.09    0.24
  -6  -4   6    1.25    0.23
   5   4  -6    8.59    0.25
  -5  -4   6    7.91    0.40
  -5  -4   6    8.33    0.41
  -5  -4   6    9.15    0.25
  -5  -4   6    8.92    0.26
  -5  -4   6    8.55    0.25
  -5  -4   6    8.69    0.25
  -5  -4   6    8.63    0.31
  -5  -4   6    8.96    0.21
   4   4  -6   -0.03    0.03
  -4  -4   6   -0.05    0.03
  -4  -4   6   -0.05    0.03
  -4  -4   6   -0.01    0.02
  -4  -4   6    0.04    0.03
  -4  -4   6    0.03    0.04
  -4  -4   6   -0.02    0.05
   3   4  -6    0.50    0.05
  -3  -4   6    0.43    0.05
  -3  -4   6    0.59    0.09
  -3  -4   6    0.45    0.05
  -3  -4   6    0.44    0.05
  -3  -4   6    0.56    0.07
   2   4  -6    3.80    0.11
  -2  -4   6    3.72    0.16
  -2  -4   6    3.94    0.12
  -2  -4   6    4.06    0.19
  -2  -4   6    3.75    0.12
  -2  -4   6    3.77    0.12
   1   4  -6   12.09    0.26
   1   4  -6   11.57    0.25
  -1  -4   6   12.21    0.26
  -1  -4   6   11.74    0.36
  -1  -4   6   11.78    0.26
  -1  -4   6   11.48    0.25
  -1  -4   6   12.24    0.33
   0   4  -6    2.07    0.07
   0  -4   6    1.87    0.12
   0  -4   6    1.97    0.06
   0  -4   6    1.97    0.06
   0  -4   6    2.11    0.14
   0  -4   6    1.92    0.06
   0  -4   6    2.00    0.06
  -1   4  -6   -0.02    0.02
   1  -4   6    0.01    0.02
   1  -4   6    0.03    0.02
   1  -4   6   -0.07    0.04
   1  -4   6    0.00    0.02
   1  -4   6    0.02    0.02
   1  -4   6   -0.01    0.05
  -2   4  -6    0.23    0.03
  -2   4  -6    0.28    0.03
   2  -4   6    0.22    0.03
   2  -4   6    0.26    0.03
   2  -4   6    0.35    0.07
   2  -4   6    0.27    0.03
  -3   4  -6    5.04    0.15
   3  -4   6    4.96    0.14
   3  -4   6    5.06    0.14
   3  -4   6    4.94    0.19
   3  -4   6    5.12    0.14
  -4   4  -6    2.53    0.11
   4  -4   6    2.55    0.10
   4  -4   6    2.96    0.15
   4  -4   6    2.59    0.10
   4  -4   6    2.61    0.10
  -5   4  -6    0.46    0.06
   5  -4   6    0.47    0.06
   5  -4   6    0.47    0.08
   5  -4   6    0.51    0.06
   5  -4   6    0.52    0.06
  -6   4  -6    0.43    0.07
   6  -4   6    0.36    0.06
   6  -4   6    0.33    0.06
   6  -4   6    0.50    0.08
   6  -4   6    0.47    0.07
   7   3  -6    0.00    0.05
   7   3  -6   -0.04    0.04
  -7  -3   6   -0.03    0.04
  -7  -3   6    0.01    0.12
  -7  -3   6    0.03    0.06
  -7  -3   6    0.00    0.05
  -7  -3   6   -0.01    0.11
  -7  -3   6   -0.04    0.04
  -7  -3   6   -0.03    0.04
  -7  -3   6   -0.06    0.05
  -7  -3   6   -0.01    0.04
  -7  -3   6    0.01    0.03
   6   3  -6    0.51    0.07
   6   3  -6    0.48    0.07
  -6  -3   6    0.46    0.18
  -6  -3   6    0.46    0.10
  -6  -3   6    0.44    0.05
  -6  -3   6    0.47    0.07
  -6  -3   6    0.43    0.06
  -6  -3   6    0.38    0.16
  -6  -3   6    0.43    0.07
  -6  -3   6    0.39    0.06
   5   3  -6   -0.06    0.03
   5   3  -6    0.02    0.04
  -5  -3   6    0.07    0.04
  -5  -3   6    0.01    0.08
  -5  -3   6    0.01    0.08
  -5  -3   6    0.07    0.04
  -5  -3   6    0.06    0.03
  -5  -3   6   -0.04    0.05
  -5  -3   6    0.00    0.03
   4   3  -6    3.50    0.13
  -4  -3   6    3.45    0.13
  -4  -3   6    3.54    0.14
  -4  -3   6    3.52    0.13
  -4  -3   6    4.04    0.19
  -4  -3   6    3.40    0.13
  -4  -3   6    3.63    0.10
   3   3  -6   12.31    0.29
  -3  -3   6   12.23    0.29
  -3  -3   6   12.47    0.32
  -3  -3   6   12.05    0.28
  -3  -3   6   12.80    0.37
  -3  -3   6   12.02    0.29
   2   3  -6    9.50    0.22
   2   3  -6    9.01    0.21
  -2  -3   6    8.89    0.21
  -2  -3   6    8.98    0.21
  -2  -3   6    9.00    0.21
  -2  -3   6    8.99    0.26
  -2  -3   6    9.66    0.31
   1   3  -6   25.97    0.52
   1   3  -6   26.17    0.51
  -1  -3   6   26.22    0.51
  -1  -3   6   26.88    0.52
  -1  -3   6   26.16    0.59
  -1  -3   6   26.64    0.52
  -1  -3   6   25.72    0.63
  -1  -3   6   25.90    0.52
   0  -3   6    3.68    0.18
   0  -3   6    3.43    0.14
   1  -3   6    9.12    0.27
   1  -3   6    9.59    0.32
  -2   3  -6    2.82    0.08
   2  -3   6    3.00    0.08
   2  -3   6    2.84    0.14
   2  -3   6    3.09    0.08
   2  -3   6    3.06    0.18
   2  -3   6    3.00    0.08
   2  -3   6    3.11    0.08
  -3   3  -6    2.05    0.08
   3  -3   6    2.21    0.07
   3  -3   6    2.09    0.07
   3  -3   6    2.04    0.12
   3  -3   6    2.05    0.07
  -4   3  -6   19.85    0.44
   4  -3   6   19.67    0.43
   4  -3   6   20.52    0.43
   4  -3   6   21.00    0.49
   4  -3   6   20.29    0.43
  -5   3  -6    0.08    0.04
   5  -3   6    0.07    0.03
   5  -3   6    0.10    0.04
   5  -3   6    0.05    0.03
   5  -3   6    0.05    0.05
  -6   3  -6    0.61    0.07
   6  -3   6    0.68    0.08
   6  -3   6    0.50    0.06
   6  -3   6    0.61    0.07
   6  -3   6    0.51    0.07
  -7   3  -6    0.99    0.10
   7  -3   6    1.11    0.10
   7  -3   6    0.99    0.10
   7  -3   6    0.98    0.09
   8   2  -6    5.12    0.22
   8   2  -6    5.19    0.22
  -8  -2   6    4.65    0.21
  -8  -2   6    4.90    0.19
  -8  -2   6    4.46    0.25
  -8  -2   6    4.83    0.20
  -8  -2   6    4.88    0.15
  -8  -2   6    4.87    0.22
  -8  -2   6    4.99    0.22
  -8  -2   6    4.59    0.54
  -8  -2   6    4.86    0.25
  -8  -2   6    4.88    0.26
  -8  -2   6    5.08    0.22
  -8  -2   6    4.77    0.15
  -8  -2   6    4.82    0.19
   7   2  -6    0.28    0.07
   7   2  -6    0.31    0.07
  -7  -2   6    0.24    0.05
  -7  -2   6    0.25    0.08
  -7  -2   6    0.35    0.07
  -7  -2   6    0.30    0.08
  -7  -2   6    0.37    0.07
  -7  -2   6    0.28    0.06
  -7  -2   6    0.25    0.09
  -7  -2   6    0.37    0.20
  -7  -2   6    0.28    0.06
  -7  -2   6    0.32    0.03
  -7  -2   6    0.25    0.06
  -7  -2   6    0.28    0.06
   6   2  -6    0.35    0.07
   6   2  -6    0.18    0.06
  -6  -2   6    0.48    0.19
  -6  -2   6    0.26    0.05
  -6  -2   6    0.20    0.05
  -6  -2   6    0.30    0.06
  -6  -2   6    0.40    0.09
  -6  -2   6    0.24    0.05
  -6  -2   6    0.32    0.05
  -6  -2   6    0.38    0.07
  -6  -2   6    0.42    0.18
  -6  -2   6    0.23    0.06
  -6  -2   6    0.31    0.07
   5   2  -6    6.01    0.19
   5   2  -6    5.83    0.19
  -5  -2   6    6.01    0.25
  -5  -2   6    5.68    0.19
  -5  -2   6    5.79    0.17
  -5  -2   6    5.84    0.16
  -5  -2   6    5.52    0.18
  -5  -2   6    5.83    0.17
  -5  -2   6    5.88    0.19
  -5  -2   6    5.39    0.40
  -5  -2   6    5.85    0.42
   4   2  -6   19.43    0.42
   4   2  -6   18.51    0.42
  -4  -2   6   19.32    0.42
  -4  -2   6   18.75    0.42
  -4  -2   6   18.68    0.39
  -4  -2   6   18.79    0.41
  -4  -2   6   16.53    0.61
  -4  -2   6   15.95    0.60
  -4  -2   6   18.38    0.50
  -4  -2   6   18.85    0.37
   3   2  -6    0.13    0.03
   3   2  -6    0.10    0.03
  -3  -2   6    0.14    0.02
  -3  -2   6    0.12    0.03
  -3  -2   6    0.11    0.02
  -3  -2   6    0.11    0.05
  -3  -2   6    0.04    0.04
  -3  -2   6    0.13    0.03
  -3  -2   6    0.10    0.03
   2   2  -6   12.88    0.28
   2   2  -6   13.22    0.29
  -2  -2   6   12.87    0.37
  -2  -2   6   13.13    0.33
  -2  -2   6   12.89    0.29
  -2  -2   6   13.56    0.29
  -2  -2   6   13.20    0.28
   1   2  -6    6.97    0.15
   1   2  -6    6.90    0.16
  -1  -2   6    6.94    0.15
  -1  -2   6    7.03    0.15
  -1  -2   6    6.90    0.16
  -1  -2   6    6.92    0.21
  -1  -2   6    7.19    0.16
  -1  -2   6    7.20    0.16
  -1  -2   6    6.85    0.25
   0  -2   6    7.69    0.22
   0  -2   6    7.57    0.26
  -1   2  -6   15.99    0.33
   1  -2   6   15.40    0.43
   1  -2   6   15.13    0.38
   2  -2   6    4.51    0.10
   2  -2   6    4.17    0.20
  -3   2  -6    9.41    0.22
   3  -2   6   10.01    0.22
   3  -2   6    9.82    0.21
   3  -2   6    9.46    0.21
   3  -2   6    9.91    0.21
   3  -2   6    9.45    0.27
  -4   2  -6    0.43    0.05
   4  -2   6    0.32    0.04
   4  -2   6    0.27    0.04
   4  -2   6    0.34    0.04
   4  -2   6    0.26    0.06
  -5   2  -6    0.87    0.07
   5  -2   6    0.81    0.07
   5  -2   6    0.85    0.09
   5  -2   6    0.79    0.07
   5  -2   6    0.83    0.07
  -6   2  -6    0.22    0.05
   6  -2   6    0.34    0.05
   6  -2   6    0.32    0.06
   6  -2   6    0.31    0.05
   6  -2   6    0.21    0.05
  -7   2  -6    0.05    0.05
   7  -2   6    0.14    0.05
   7  -2   6    0.12    0.05
   7  -2   6    0.11    0.05
   8   1  -6    3.46    0.19
   8   1  -6    3.43    0.18
   8   1  -6    3.58    0.19
  -8  -1   6    3.90    0.19
  -8  -1   6    3.72    0.26
  -8  -1   6    3.66    0.19
  -8  -1   6    3.47    0.14
  -8  -1   6    3.87    0.17
  -8  -1   6    3.90    0.19
  -8  -1   6    3.71    0.17
  -8  -1   6    3.25    0.23
  -8  -1   6    3.71    0.17
   7   1  -6    0.28    0.07
   7   1  -6    0.24    0.06
   7   1  -6    0.22    0.06
  -7  -1   6    0.29    0.06
  -7  -1   6    0.35    0.07
  -7  -1   6    0.28    0.06
  -7  -1   6    0.21    0.06
  -7  -1   6    0.26    0.04
  -7  -1   6    0.20    0.08
  -7  -1   6    0.26    0.04
  -7  -1   6    0.36    0.08
  -7  -1   6    0.15    0.07
  -7  -1   6    0.36    0.06
  -7  -1   6    0.22    0.19
   6   1  -6    9.26    0.27
   6   1  -6    8.76    0.27
   6   1  -6    8.91    0.26
  -6  -1   6    8.61    0.20
  -6  -1   6    9.05    0.26
  -6  -1   6    9.04    0.25
  -6  -1   6    9.21    0.26
  -6  -1   6    8.50    0.33
  -6  -1   6    8.49    0.24
  -6  -1   6    7.65    0.59
  -6  -1   6    9.10    0.27
  -6  -1   6    8.85    0.24
  -6  -1   6    8.34    0.29
  -6  -1   6    8.89    0.27
  -6  -1   6    8.78    0.20
  -6  -1   6    7.42    0.57
  -6  -1   6    8.18    0.29
   5   1  -6    6.82    0.22
   5   1  -6    6.99    0.22
   5   1  -6    7.04    0.22
  -5  -1   6    7.09    0.49
  -5  -1   6    6.77    0.21
  -5  -1   6    6.95    0.49
  -5  -1   6    7.21    0.23
  -5  -1   6    7.10    0.19
  -5  -1   6    6.58    0.19
  -5  -1   6    6.68    0.22
  -5  -1   6    6.76    0.19
  -5  -1   6    7.21    0.28
  -5  -1   6    6.76    0.21
  -5  -1   6    6.68    0.21
   4   1  -6   13.07    0.32
   4   1  -6   13.21    0.32
  -4  -1   6   11.98    0.56
  -4  -1   6   13.39    0.29
  -4  -1   6   12.77    0.31
  -4  -1   6   13.66    0.29
  -4  -1   6   13.10    0.32
  -4  -1   6   13.22    0.29
  -4  -1   6   11.90    0.55
  -4  -1   6   11.98    0.38
  -4  -1   6   12.84    0.31
   3   1  -6   14.41    0.33
   3   1  -6   14.60    0.33
  -3  -1   6   14.17    0.33
  -3  -1   6   14.91    0.41
  -3  -1   6   14.50    0.30
  -3  -1   6   14.65    0.30
  -3  -1   6   14.57    0.33
  -3  -1   6   14.62    0.33
   2   1  -6    4.45    0.13
   2   1  -6    4.33    0.12
   2   1  -6    4.32    0.12
  -2  -1   6    4.33    0.12
  -2  -1   6    4.37    0.15
  -2  -1   6    4.40    0.19
  -2  -1   6    4.45    0.12
  -2  -1   6    4.43    0.12
   1   1  -6    0.73    0.04
   1   1  -6    0.79    0.04
  -1  -1   6    0.78    0.04
  -1  -1   6    0.82    0.04
  -1  -1   6    0.77    0.04
  -1  -1   6    0.69    0.06
  -1  -1   6    0.80    0.04
  -1  -1   6    0.77    0.04
  -1  -1   6    0.86    0.09
   0  -1   6    4.69    0.19
   0  -1   6    4.22    0.15
   1  -1   6   11.97    0.35
  -2   1  -6    1.51    0.07
   2  -1   6    1.54    0.05
   2  -1   6    1.56    0.09
  -3   1  -6    0.00    0.02
  -3   1  -6    0.01    0.02
   3  -1   6    0.01    0.02
   3  -1   6    0.00    0.05
   3  -1   6    0.01    0.02
   3  -1   6    0.02    0.03
   3  -1   6    0.00    0.02
   3  -1   6    0.00    0.02
  -4   1  -6   11.98    0.28
  -4   1  -6   12.62    0.29
   4  -1   6   11.88    0.27
   4  -1   6   11.95    0.27
   4  -1   6   12.49    0.27
   4  -1   6   11.96    0.31
  -5   1  -6    3.54    0.13
  -5   1  -6    3.66    0.13
   5  -1   6    3.50    0.15
   5  -1   6    3.73    0.13
   5  -1   6    3.58    0.12
   5  -1   6    3.74    0.13
  -6   1  -6    0.06    0.04
   6  -1   6    0.14    0.04
   6  -1   6    0.08    0.04
   6  -1   6    0.03    0.04
   6  -1   6    0.02    0.03
   6  -1   6    0.06    0.02
  -7   1  -6    0.02    0.04
   7  -1   6    0.05    0.04
   7  -1   6    0.00    0.04
   7  -1   6    0.05    0.04
   7  -1   6    0.01    0.03
  -8   1  -6    1.78    0.13
   8  -1   6    1.67    0.12
   8  -1   6    1.54    0.11
   8  -1   6    1.63    0.08
   8  -1   6    1.46    0.11
   8   0  -6    0.68    0.10
   8   0  -6    0.85    0.11
   8   0  -6    0.80    0.11
  -8   0   6    0.71    0.08
  -8   0   6    0.73    0.10
  -8   0   6    0.77    0.10
  -8   0   6    0.93    0.12
  -8   0   6    0.86    0.11
  -8   0   6    0.84    0.10
  -8   0   6    0.69    0.18
  -8   0   6    0.71    0.09
   7   0  -6    0.96    0.11
   7   0  -6    0.76    0.10
   7   0  -6    0.76    0.10
  -7   0   6    0.99    0.13
  -7   0   6    0.77    0.09
  -7   0   6    0.88    0.09
  -7   0   6    0.97    0.08
  -7   0   6    1.09    0.11
  -7   0   6    1.24    0.32
  -7   0   6    0.92    0.11
  -7   0   6    0.81    0.09
  -7   0   6    1.21    0.15
  -7   0   6    0.84    0.10
   6   0  -6    0.01    0.04
   6   0  -6   -0.02    0.04
   6   0  -6    0.01    0.04
  -6   0   6   -0.04    0.04
  -6   0   6   -0.02    0.11
  -6   0   6    0.06    0.05
  -6   0   6    0.04    0.06
  -6   0   6    0.05    0.05
  -6   0   6    0.02    0.04
  -6   0   6    0.05    0.03
  -6   0   6    0.01    0.04
  -6   0   6    0.02    0.03
  -6   0   6    0.04    0.04
  -6   0   6   -0.01    0.04
   5   0  -6    4.49    0.16
   5   0  -6    3.98    0.16
   5   0  -6    3.91    0.16
  -5   0   6    4.01    0.15
  -5   0   6    3.74    0.11
  -5   0   6    3.61    0.17
  -5   0   6    3.45    0.38
  -5   0   6    3.61    0.18
  -5   0   6    4.06    0.15
  -5   0   6    4.07    0.11
  -5   0   6    4.28    0.14
  -5   0   6    3.58    0.38
  -5   0   6    4.01    0.14
  -5   0   6    3.77    0.15
  -5   0   6    4.00    0.14
   4   0  -6    0.42    0.06
   4   0  -6    0.45    0.06
   4   0  -6    0.40    0.05
  -4   0   6    0.35    0.05
  -4   0   6    0.41    0.05
  -4   0   6    0.29    0.14
  -4   0   6    0.35    0.06
  -4   0   6    0.41    0.05
  -4   0   6    0.26    0.07
  -4   0   6    0.39    0.05
  -4   0   6    0.42    0.06
  -4   0   6    0.42    0.05
  -4   0   6    0.34    0.05
  -4   0   6    0.35    0.14
  -4   0   6    0.44    0.05
   3   0  -6    4.52    0.14
   3   0  -6    4.61    0.14
   3   0  -6    4.37    0.14
  -3   0   6    4.43    0.14
  -3   0   6    4.60    0.12
  -3   0   6    4.37    0.14
  -3   0   6    4.34    0.12
  -3   0   6    3.52    0.27
  -3   0   6    4.57    0.14
  -3   0   6    4.35    0.14
  -3   0   6    3.87    0.28
  -3   0   6    4.62    0.12
  -3   0   6    4.11    0.19
   2   0  -6    9.17    0.22
   2   0  -6    9.21    0.22
   2   0  -6    8.98    0.21
   2   0  -6    8.75    0.22
  -2   0   6    9.20    0.29
  -2   0   6    8.95    0.21
  -2   0   6    8.98    0.19
  -2   0   6    8.78    0.19
  -2   0   6    8.92    0.22
  -2   0   6    8.82    0.21
   1   0  -6    0.53    0.04
   1   0  -6    0.47    0.04
  -1   0   6    0.41    0.07
  -1   0   6    0.44    0.04
  -1   0   6    0.50    0.03
  -1   0   6    0.53    0.04
  -1   0   6    0.49    0.04
  -1   0   6    0.51    0.03
   0   0  -6   13.00    0.26
   0   0  -6   12.77    0.26
   0   0   6   13.20    0.36
   0   0   6   12.77    0.26
   0   0   6   13.26    0.26
   0   0   6   13.23    0.26
   0   0   6   13.01    0.27
   0   0   6   13.14    0.26
   0   0   6   12.03    0.31
   0   0   6   13.16    0.26
   1   0   6   19.43    0.49
   1   0   6   19.20    0.44
   1   0   6   19.69    0.38
   1   0   6   20.12    0.38
  -2   0  -6   44.07    0.86
  -2   0  -6   45.42    0.90
   2   0   6   46.12    0.87
   2   0   6   43.30    0.92
   2   0   6   44.55    0.98
   2   0   6   45.38    0.87
   2   0   6   46.84    0.87
   2   0   6   45.27    0.86
   2   0   6   46.19    0.86
   2   0   6   46.38    0.87
  -3   0  -6    0.19    0.03
  -3   0  -6    0.26    0.04
   3   0   6    0.18    0.06
   3   0   6    0.19    0.03
   3   0   6    0.23    0.03
   3   0   6    0.14    0.04
   3   0   6    0.18    0.03
   3   0   6    0.24    0.03
   3   0   6    0.17    0.03
  -4   0  -6    0.29    0.04
  -4   0  -6    0.29    0.04
   4   0   6    0.25    0.05
   4   0   6    0.30    0.04
   4   0   6    0.26    0.04
   4   0   6    0.23    0.03
  -5   0  -6   19.20    0.44
  -5   0  -6   20.26    0.45
   5   0   6   19.50    0.43
   5   0   6   20.14    0.46
   5   0   6   19.80    0.43
   5   0   6   20.19    0.39
   5   0   6   19.34    0.43
  -6   0  -6    5.06    0.17
  -6   0  -6    4.39    0.17
   6   0   6    5.19    0.13
   6   0   6    4.88    0.16
   6   0   6    5.06    0.17
   6   0   6    5.09    0.17
   6   0   6    4.99    0.16
  -7   0  -6    1.02    0.09
  -7   0  -6    0.98    0.09
   7   0   6    1.02    0.07
   7   0   6    1.06    0.09
   7   0   6    1.05    0.19
   7   0   6    1.16    0.19
   7   0   6    1.09    0.09
   7   0   6    0.90    0.08
  -8   0  -6   -0.01    0.05
  -8   0  -6    0.09    0.05
   8   0   6    0.03    0.04
   8   0   6    0.05    0.10
   8   0   6    0.08    0.12
   8   0   6    0.03    0.05
   8   0   6    0.00    0.05
   8   0   6    0.02    0.04
   8  -1  -6    5.86    0.24
   8  -1  -6    6.21    0.25
   8  -1  -6    6.14    0.25
  -8   1   6    5.76    0.24
  -8   1   6    6.62    0.26
  -8   1   6    6.19    0.23
  -8   1   6    6.13    0.24
  -8   1   6    5.85    0.21
  -8   1   6    6.07    0.25
  -8   1   6    5.97    0.23
  -8   1   6    6.15    0.23
   7  -1  -6    0.30    0.07
   7  -1  -6    0.31    0.08
   7  -1  -6    0.31    0.07
  -7   1   6    0.29    0.07
  -7   1   6    0.34    0.07
  -7   1   6    0.17    0.08
  -7   1   6    0.38    0.07
  -7   1   6    0.31    0.07
  -7   1   6    0.29    0.06
  -7   1   6    0.17    0.06
  -7   1   6    0.19    0.06
   6  -1  -6   25.23    0.59
   6  -1  -6   25.86    0.60
   6  -1  -6   24.57    0.59
  -6   1   6   25.39    0.55
  -6   1   6   25.63    0.59
  -6   1   6   25.90    0.57
  -6   1   6   25.41    0.57
  -6   1   6   25.41    0.57
  -6   1   6   24.67    1.13
  -6   1   6   24.50    0.66
  -6   1   6   26.15    0.59
  -6   1   6   25.42    0.59
  -6   1   6   24.92    0.66
   5  -1  -6    2.39    0.12
   5  -1  -6    1.99    0.12
   5  -1  -6    2.09    0.12
  -5   1   6    2.12    0.12
  -5   1   6    2.60    0.16
  -5   1   6    2.46    0.15
  -5   1   6    2.22    0.09
  -5   1   6    2.10    0.11
  -5   1   6    2.10    0.11
  -5   1   6    2.12    0.12
  -5   1   6    2.95    0.37
  -5   1   6    2.21    0.11
  -5   1   6    2.68    0.36
  -5   1   6    2.37    0.10
  -5   1   6    2.09    0.12
   4  -1  -6    0.97    0.08
   4  -1  -6    1.00    0.08
   4  -1  -6    1.00    0.08
  -4   1   6    0.86    0.09
  -4   1   6    1.05    0.07
  -4   1   6    1.11    0.07
  -4   1   6    0.89    0.09
  -4   1   6    0.68    0.19
  -4   1   6    1.06    0.08
  -4   1   6    1.13    0.08
  -4   1   6    1.04    0.08
  -4   1   6    0.98    0.07
  -4   1   6    0.84    0.05
  -4   1   6    0.95    0.05
  -4   1   6    0.64    0.19
   3  -1  -6   10.74    0.26
   3  -1  -6   10.39    0.26
   3  -1  -6   10.38    0.26
  -3   1   6   10.24    0.33
  -3   1   6    9.73    0.50
  -3   1   6    9.79    0.50
  -3   1   6   10.09    0.26
  -3   1   6   10.55    0.26
  -3   1   6   10.03    0.26
  -3   1   6   10.13    0.27
  -3   1   6   10.57    0.24
  -3   1   6    9.95    0.25
  -3   1   6   10.24    0.24
  -3   1   6   10.25    0.24
   2  -1  -6    4.55    0.14
   2  -1  -6    4.97    0.14
   2  -1  -6    4.78    0.14
  -2   1   6    4.79    0.12
  -2   1   6    4.81    0.13
  -2   1   6    4.58    0.14
  -2   1   6    4.87    0.14
  -2   1   6    4.75    0.14
  -2   1   6    5.64    0.21
  -2   1   6    4.79    0.12
   1  -1  -6    2.17    0.08
   1  -1  -6    2.10    0.08
   1  -1  -6    1.88    0.07
  -1   1   6    2.23    0.13
  -1   1   6    2.01    0.07
  -1   1   6    2.03    0.08
  -1   1   6    1.99    0.08
  -1   1   6    1.92    0.07
  -1   1   6    2.01    0.06
  -1   1   6    2.00    0.06
   0  -1  -6    2.68    0.08
   0   1   6    2.89    0.08
   0   1   6    2.81    0.08
   0   1   6    2.59    0.14
   0   1   6    2.78    0.08
   0   1   6    2.86    0.08
   0   1   6    2.79    0.08
   1   1   6   10.29    0.22
   1   1   6   10.33    0.22
   1   1   6   10.26    0.30
   1   1   6   10.25    0.22
   1   1   6   10.66    0.22
   1   1   6    9.96    0.22
   1   1   6   10.48    0.22
  -2  -1  -6    5.04    0.13
  -2  -1  -6    4.95    0.15
   2   1   6    4.74    0.12
   2   1   6    5.00    0.12
   2   1   6    5.03    0.13
   2   1   6    4.85    0.19
   2   1   6    5.16    0.12
   2   1   6    5.15    0.12
   2   1   6    5.11    0.12
  -3  -1  -6   14.81    0.32
  -3  -1  -6   14.63    0.34
   3   1   6   14.39    0.31
   3   1   6   14.59    0.40
   3   1   6   14.42    0.31
   3   1   6   14.91    0.32
   3   1   6   14.66    0.31
  -4  -1  -6    6.20    0.17
  -4  -1  -6    5.95    0.17
  -4  -1  -6    6.43    0.19
   4   1   6    6.18    0.17
   4   1   6    6.20    0.17
   4   1   6    6.36    0.17
   4   1   6    6.35    0.14
  -5  -1  -6    0.18    0.05
  -5  -1  -6    0.13    0.04
  -5  -1  -6    0.13    0.04
   5   1   6    0.17    0.04
   5   1   6    0.15    0.04
   5   1   6    0.08    0.06
   5   1   6    0.20    0.03
   5   1   6    0.18    0.04
  -6  -1  -6    8.86    0.26
  -6  -1  -6    9.30    0.25
  -6  -1  -6    9.07    0.26
   6   1   6    9.00    0.46
   6   1   6    8.83    0.44
   6   1   6    9.33    0.22
   6   1   6    9.36    0.25
   6   1   6    8.92    0.25
   6   1   6    8.99    0.25
   6   1   6    9.27    0.22
  -7  -1  -6   20.64    0.48
  -7  -1  -6   19.76    0.49
  -7  -1  -6   20.73    0.49
   7   1   6   19.72    0.47
   7   1   6   20.79    0.49
   7   1   6   19.91    0.82
   7   1   6   19.81    0.47
   7   1   6   20.04    0.44
   7   1   6   19.21    0.79
   7   1   6   20.55    0.47
  -8  -1  -6    1.70    0.12
  -8  -1  -6    1.68    0.13
  -8  -1  -6    1.85    0.13
   8   1   6    1.58    0.27
   8   1   6    1.56    0.12
   8   1   6    1.69    0.12
   8   1   6    1.79    0.10
   8   1   6    1.77    0.12
   8   1   6    1.81    0.30
   8  -2  -6    2.02    0.16
   8  -2  -6    2.21    0.16
   8  -2  -6    2.01    0.16
  -8   2   6    2.45    0.16
  -8   2   6    2.17    0.15
  -8   2   6    2.32    0.16
  -8   2   6    2.20    0.15
  -8   2   6    2.02    0.15
  -8   2   6    1.94    0.13
  -8   2   6    1.73    0.16
  -8   2   6    2.21    0.16
   7  -2  -6    0.09    0.06
   7  -2  -6   -0.05    0.05
   7  -2  -6   -0.01    0.05
  -7   2   6    0.01    0.05
  -7   2   6    0.00    0.05
  -7   2   6    0.04    0.05
  -7   2   6    0.07    0.05
  -7   2   6   -0.01    0.04
  -7   2   6    0.01    0.05
  -7   2   6    0.09    0.06
  -7   2   6    0.05    0.05
   6  -2  -6    3.56    0.17
   6  -2  -6    3.51    0.17
   6  -2  -6    3.41    0.16
  -6   2   6    3.57    0.17
  -6   2   6    3.66    0.16
  -6   2   6    3.45    0.16
  -6   2   6    3.43    0.15
  -6   2   6    3.56    0.14
  -6   2   6    3.54    0.16
  -6   2   6    3.98    0.17
  -6   2   6    3.39    0.15
   5  -2  -6   33.09    0.73
   5  -2  -6   34.12    0.73
   5  -2  -6   32.96    0.73
  -5   2   6   33.71    0.81
  -5   2   6   32.53    0.71
  -5   2   6   34.02    0.74
  -5   2   6   33.70    0.71
  -5   2   6   32.98    1.30
  -5   2   6   32.71    0.71
  -5   2   6   32.28    0.81
  -5   2   6   32.57    0.73
  -5   2   6   33.74    0.72
  -5   2   6   32.81    0.69
  -5   2   6   33.47    0.72
   4  -2  -6    6.39    0.21
   4  -2  -6    6.48    0.21
   4  -2  -6    6.24    0.20
  -4   2   6    6.25    0.21
  -4   2   6    6.38    0.20
  -4   2   6    6.69    0.20
  -4   2   6    7.19    0.26
  -4   2   6    6.29    0.20
  -4   2   6    7.62    0.53
  -4   2   6    6.42    0.17
  -4   2   6    6.18    0.19
  -4   2   6    6.68    0.18
  -4   2   6    6.16    0.19
  -4   2   6    6.59    0.25
  -4   2   6    6.42    0.21
  -4   2   6    7.81    0.54
   3  -2  -6    2.61    0.11
   3  -2  -6    2.64    0.11
   3  -2  -6    2.72    0.12
  -3   2   6    2.58    0.11
  -3   2   6    2.88    0.14
  -3   2   6    2.50    0.10
  -3   2   6    2.62    0.11
  -3   2   6    2.29    0.10
  -3   2   6    2.48    0.10
  -3   2   6    3.30    0.32
  -3   2   6    2.66    0.09
  -3   2   6    2.54    0.11
  -3   2   6    2.64    0.08
  -3   2   6    3.16    0.31
  -3   2   6    2.91    0.14
  -3   2   6    2.65    0.10
   2  -2  -6   19.27    0.41
   2  -2  -6   18.94    0.41
   2  -2  -6   19.04    0.41
  -2   2   6   18.70    0.41
  -2   2   6   18.78    0.41
  -2   2   6   18.80    0.43
  -2   2   6   18.96    0.40
  -2   2   6   18.04    0.43
  -2   2   6   17.55    0.70
  -2   2   6   18.94    0.41
  -2   2   6   18.69    0.39
  -2   2   6   18.07    0.70
  -2   2   6   19.27    0.40
  -2   2   6   17.67    0.48
   1  -2  -6    0.87    0.06
   1  -2  -6    0.94    0.06
   1  -2  -6    0.91    0.06
  -1   2   6    0.93    0.05
  -1   2   6    0.91    0.05
  -1   2   6    0.86    0.14
  -1   2   6    1.00    0.06
  -1   2   6    0.99    0.05
  -1   2   6    0.83    0.06
  -1   2   6    0.91    0.05
  -1   2   6    0.88    0.09
   0  -2  -6    6.65    0.17
   0  -2  -6    6.81    0.17
   0   2   6    6.59    0.16
   0   2   6    6.78    0.15
   0   2   6    7.03    0.23
   0   2   6    6.68    0.17
   0   2   6    6.99    0.28
   0   2   6    6.74    0.28
   0   2   6    6.81    0.15
   0   2   6    6.91    0.15
   0   2   6    6.69    0.17
   0   2   6    6.87    0.14
  -1  -2  -6    3.11    0.10
  -1  -2  -6    2.96    0.10
   1   2   6    3.02    0.09
   1   2   6    3.22    0.09
   1   2   6    2.95    0.14
   1   2   6    2.94    0.08
   1   2   6    3.15    0.08
   1   2   6    3.25    0.10
   1   2   6    3.11    0.09
  -2  -2  -6    9.88    0.22
  -2  -2  -6    9.39    0.23
   2   2   6    9.47    0.28
   2   2   6    9.96    0.22
   2   2   6    9.83    0.20
   2   2   6    9.48    0.20
   2   2   6    9.67    0.22
   2   2   6    9.50    0.22
   2   2   6    9.61    0.22
  -3  -2  -6    1.27    0.07
  -3  -2  -6    1.52    0.08
  -3  -2  -6    1.42    0.07
   3   2   6    1.45    0.10
   3   2   6    1.63    0.07
   3   2   6    1.58    0.05
   3   2   6    1.66    0.07
   3   2   6    1.52    0.07
   3   2   6    1.51    0.05
   3   2   6    1.62    0.05
   3   2   6    1.65    0.07
  -4  -2  -6    0.92    0.08
  -4  -2  -6    0.91    0.07
  -4  -2  -6    0.85    0.06
  -4  -2  -6    0.96    0.07
   4   2   6    0.90    0.05
   4   2   6    0.87    0.05
   4   2   6    0.86    0.04
   4   2   6    0.87    0.06
   4   2   6    1.01    0.06
   4   2   6    0.81    0.13
   4   2   6    0.88    0.13
   4   2   6    0.95    0.06
  -5  -2  -6   17.58    0.42
  -5  -2  -6   17.42    0.40
  -5  -2  -6   17.01    0.41
   5   2   6   17.36    0.67
   5   2   6   16.77    0.39
   5   2   6   16.96    0.64
   5   2   6   17.83    0.37
   5   2   6   17.71    0.37
   5   2   6   18.23    0.37
   5   2   6   16.87    0.39
   5   2   6   17.55    0.39
  -6  -2  -6    0.81    0.08
  -6  -2  -6    0.92    0.08
  -6  -2  -6    0.87    0.08
   6   2   6    0.82    0.07
   6   2   6    0.87    0.06
   6   2   6    0.93    0.19
   6   2   6    0.86    0.20
   6   2   6    0.83    0.08
   6   2   6    0.74    0.06
   6   2   6    0.83    0.07
   6   2   6    0.77    0.06
  -7  -2  -6    0.57    0.07
  -7  -2  -6    0.68    0.08
  -7  -2  -6    0.73    0.08
   7   2   6    0.53    0.07
   7   2   6    0.62    0.07
   7   2   6    0.64    0.08
   7   2   6    0.79    0.08
   7   2   6    0.42    0.18
   7   2   6    0.54    0.18
   7   2   6    0.72    0.06
   7   2   6    0.53    0.07
   7   2   6    0.71    0.07
  -8  -2  -6    0.49    0.08
  -8  -2  -6    0.49    0.08
  -8  -2  -6    0.40    0.08
   8   2   6    0.23    0.17
   8   2   6    0.55    0.07
   8   2   6    0.51    0.06
   8   2   6    0.55    0.08
   8   2   6    0.43    0.07
   8   2   6    0.42    0.18
   8   2   6    0.54    0.08
   8   2   6    0.41    0.07
  -9  -2  -6    0.59    0.10
  -9  -2  -6    0.75    0.10
  -9  -2  -6    0.47    0.09
   9   2   6    0.72    0.09
   9   2   6    0.65    0.09
   9   2   6    0.52    0.08
   9   2   6    0.58    0.09
   9   2   6    0.50    0.23
   9   2   6    0.50    0.24
   9   2   6    0.59    0.07
   9   2   6    0.62    0.07
   7  -3  -6    5.01    0.22
   7  -3  -6    4.60    0.21
   7  -3  -6    5.00    0.22
  -7   3   6    4.84    0.19
  -7   3   6    5.13    0.21
  -7   3   6    4.83    0.21
  -7   3   6    5.15    0.21
  -7   3   6    4.88    0.21
  -7   3   6    5.08    0.22
  -7   3   6    4.72    0.20
   6  -3  -6    9.24    0.29
   6  -3  -6    9.21    0.29
   6  -3  -6    9.43    0.30
  -6   3   6    9.43    0.28
  -6   3   6    9.74    0.29
  -6   3   6    8.89    0.27
  -6   3   6    9.18    0.28
  -6   3   6    9.30    0.29
  -6   3   6    9.51    0.28
  -6   3   6    9.41    0.29
   5  -3  -6    0.07    0.05
   5  -3  -6    0.06    0.05
   5  -3  -6    0.24    0.06
  -5   3   6    0.17    0.05
  -5   3   6    0.16    0.05
  -5   3   6    0.17    0.05
  -5   3   6    0.15    0.06
  -5   3   6    0.08    0.04
  -5   3   6    0.13    0.14
  -5   3   6    0.15    0.05
  -5   3   6    0.18    0.07
  -5   3   6    0.18    0.05
   4  -3  -6   71.64    1.42
   4  -3  -6   72.29    1.43
   4  -3  -6   70.28    1.42
  -4   3   6   72.02    1.41
  -4   3   6   70.28    1.51
  -4   3   6   70.86    1.42
  -4   3   6   71.48    1.41
  -4   3   6   71.46    1.50
  -4   3   6   71.65    1.39
  -4   3   6   64.00    2.20
  -4   3   6   70.63    2.07
  -4   3   6   70.34    1.41
  -4   3   6   72.71    1.41
  -4   3   6   69.44    1.40
   3  -3  -6   33.25    0.71
   3  -3  -6   32.88    0.71
   3  -3  -6   33.08    0.71
   3  -3  -6   33.92    0.69
  -3   3   6   33.74    1.18
  -3   3   6   33.52    0.68
  -3   3   6   33.69    0.70
  -3   3   6   33.34    0.71
  -3   3   6   33.61    0.71
  -3   3   6   33.47    0.70
  -3   3   6   33.39    0.68
  -3   3   6   33.96    0.70
  -3   3   6   33.60    0.78
  -3   3   6   32.51    1.18
  -3   3   6   33.69    0.70
  -3   3   6   34.20    0.77
   2  -3  -6   29.24    0.61
   2  -3  -6   28.04    0.58
   2  -3  -6   28.19    0.61
  -2   3   6   27.83    0.59
  -2   3   6   27.76    0.60
  -2   3   6   28.50    0.60
  -2   3   6   30.95    1.04
  -2   3   6   28.47    0.59
  -2   3   6   28.40    0.58
  -2   3   6   28.37    0.61
  -2   3   6   28.94    0.60
  -2   3   6   28.58    0.57
  -2   3   6   29.04    0.66
  -2   3   6   29.61    1.00
  -2   3   6   28.66    0.65
   1  -3  -6    3.94    0.11
   1  -3  -6    4.03    0.13
   1  -3  -6    3.72    0.13
  -1   3   6    3.80    0.10
  -1   3   6    3.87    0.15
  -1   3   6    4.31    0.18
  -1   3   6    3.74    0.12
  -1   3   6    3.94    0.12
  -1   3   6    3.76    0.12
  -1   3   6    3.74    0.12
  -1   3   6    4.17    0.15
  -1   3   6    3.70    0.12
  -1   3   6    4.47    0.33
  -1   3   6    3.72    0.13
  -1   3   6    3.83    0.10
  -1   3   6    3.96    0.30
   0  -3  -6   12.02    0.28
   0  -3  -6   12.11    0.29
   0  -3  -6   12.23    0.26
   0  -3  -6   12.28    0.28
   0   3   6   11.10    0.50
   0   3   6   11.68    0.33
   0   3   6   12.32    0.28
   0   3   6   12.15    0.51
   0   3   6   12.19    0.27
   0   3   6   12.23    0.29
   0   3   6   12.51    0.28
   0   3   6   12.46    0.27
   0   3   6   12.13    0.28
   0   3   6   11.90    0.29
   0   3   6   12.76    0.27
  -1  -3  -6    1.12    0.06
  -1  -3  -6    1.13    0.06
  -1  -3  -6    1.01    0.06
   1   3   6    1.18    0.06
   1   3   6    1.05    0.05
   1   3   6    1.03    0.06
   1   3   6    1.08    0.06
   1   3   6    1.15    0.16
   1   3   6    1.16    0.06
   1   3   6    0.95    0.06
   1   3   6    1.09    0.05
   1   3   6    1.22    0.16
   1   3   6    1.00    0.06
   1   3   6    1.14    0.09
   1   3   6    1.11    0.05
  -2  -3  -6    1.58    0.07
  -2  -3  -6    1.46    0.08
   2   3   6    1.31    0.10
   2   3   6    1.28    0.17
   2   3   6    1.31    0.07
   2   3   6    1.48    0.06
   2   3   6    1.39    0.06
   2   3   6    1.39    0.06
   2   3   6    1.45    0.07
   2   3   6    1.43    0.07
   2   3   6    1.36    0.17
   2   3   6    1.39    0.07
  -3  -3  -6   14.19    0.32
  -3  -3  -6   12.71    0.33
  -3  -3  -6   13.31    0.32
   3   3   6   13.62    0.30
   3   3   6   14.16    0.31
   3   3   6   13.27    0.54
   3   3   6   13.47    0.31
   3   3   6   13.32    0.31
   3   3   6   13.60    0.31
   3   3   6   13.30    0.29
   3   3   6   14.36    0.29
   3   3   6   13.47    0.55
   3   3   6   14.15    0.32
   3   3   6   13.55    0.36
   3   3   6   14.06    0.30
  -4  -3  -6    1.49    0.09
  -4  -3  -6    1.38    0.08
  -4  -3  -6    1.52    0.09
  -4  -3  -6    1.44    0.08
   4   3   6    1.46    0.07
   4   3   6    1.38    0.08
   4   3   6    1.52    0.07
   4   3   6    1.42    0.08
   4   3   6    1.55    0.08
   4   3   6    1.89    0.23
   4   3   6    1.26    0.08
   4   3   6    1.39    0.08
   4   3   6    1.44    0.07
   4   3   6    1.56    0.11
  -5  -3  -6    2.36    0.11
  -5  -3  -6    2.59    0.12
  -5  -3  -6    2.65    0.12
  -5  -3  -6    2.51    0.12
   5   3   6    2.43    0.10
   5   3   6    2.46    0.10
   5   3   6    2.66    0.10
   5   3   6    2.50    0.11
   5   3   6    2.86    0.30
   5   3   6    2.56    0.28
   5   3   6    2.41    0.11
   5   3   6    2.52    0.11
   5   3   6    2.39    0.11
  -6  -3  -6    0.10    0.05
  -6  -3  -6    0.21    0.05
  -6  -3  -6    0.22    0.05
  -6  -3  -6    0.25    0.05
   6   3   6    0.17    0.04
   6   3   6    0.16    0.05
   6   3   6    0.13    0.04
   6   3   6    0.22    0.05
   6   3   6    0.34    0.16
   6   3   6    0.17    0.04
   6   3   6    0.18    0.05
   6   3   6    0.30    0.14
   6   3   6    0.19    0.04
  -7  -3  -6    0.52    0.08
  -7  -3  -6    0.54    0.08
  -7  -3  -6    0.48    0.07
  -7  -3  -6    0.55    0.09
   7   3   6    0.41    0.19
   7   3   6    0.53    0.06
   7   3   6    0.49    0.08
   7   3   6    0.56    0.07
   7   3   6    0.44    0.06
   7   3   6    0.46    0.06
   7   3   6    0.45    0.07
   7   3   6    0.55    0.19
   7   3   6    0.46    0.07
  -8  -3  -6    7.63    0.27
  -8  -3  -6    8.17    0.27
  -8  -3  -6    8.39    0.27
   8   3   6    8.21    0.26
   8   3   6    8.22    0.68
   8   3   6    8.17    0.24
   8   3   6    8.16    0.24
   8   3   6    8.12    0.29
   8   3   6    8.29    0.26
   8   3   6    8.36    0.24
   8   3   6    7.49    0.62
   8   3   6    8.01    0.26
  -9  -3  -6    1.22    0.13
  -9  -3  -6    1.17    0.12
  -9  -3  -6    1.07    0.11
   9   3   6    1.13    0.11
   9   3   6    1.07    0.10
   9   3   6    1.39    0.37
   9   3   6    1.12    0.12
   9   3   6    1.14    0.11
   9   3   6    1.07    0.10
   9   3   6    1.24    0.13
   7  -4  -6    0.24    0.08
   7  -4  -6    0.10    0.07
   7  -4  -6    0.12    0.07
  -7   4   6    0.05    0.06
  -7   4   6    0.19    0.07
  -7   4   6    0.24    0.07
  -7   4   6    0.20    0.06
  -7   4   6    0.26    0.08
  -7   4   6    0.11    0.06
  -7   4   6    0.20    0.07
   6  -4  -6   11.35    0.35
   6  -4  -6   10.52    0.33
   6  -4  -6   11.37    0.34
  -6   4   6   11.32    0.33
  -6   4   6   11.48    0.33
  -6   4   6   11.04    0.33
  -6   4   6   11.14    0.34
  -6   4   6   11.13    0.33
  -6   4   6   10.89    0.31
  -6   4   6   11.06    0.33
   5  -4  -6    3.72    0.17
   5  -4  -6    4.11    0.18
   5  -4  -6    4.26    0.18
  -5   4   6    4.20    0.16
  -5   4   6    4.22    0.17
  -5   4   6    4.15    0.17
  -5   4   6    4.14    0.18
  -5   4   6    4.04    0.17
  -5   4   6    4.24    0.17
  -5   4   6    3.89    0.17
   4  -4  -6    0.03    0.04
   4  -4  -6   -0.02    0.03
   4  -4  -6    0.00    0.04
  -4   4   6    0.05    0.04
  -4   4   6   -0.09    0.03
  -4   4   6    0.01    0.04
  -4   4   6    0.07    0.04
  -4   4   6    0.03    0.04
  -4   4   6    0.00    0.11
  -4   4   6    0.01    0.06
  -4   4   6   -0.03    0.05
  -4   4   6    0.05    0.05
  -4   4   6    0.01    0.04
   3  -4  -6    2.13    0.10
   3  -4  -6    2.01    0.11
   3  -4  -6    1.90    0.11
  -3   4   6    2.03    0.31
  -3   4   6    1.64    0.29
  -3   4   6    2.05    0.11
  -3   4   6    1.97    0.10
  -3   4   6    2.03    0.15
  -3   4   6    1.76    0.10
  -3   4   6    2.13    0.11
  -3   4   6    1.96    0.10
  -3   4   6    2.17    0.11
  -3   4   6    1.96    0.11
  -3   4   6    2.06    0.15
   2  -4  -6   31.31    0.66
   2  -4  -6   30.77    0.66
   2  -4  -6   31.05    0.67
   2  -4  -6   30.69    0.63
  -2   4   6   30.12    1.13
  -2   4   6   30.60    0.65
  -2   4   6   30.32    0.72
  -2   4   6   30.31    0.64
  -2   4   6   31.17    0.65
  -2   4   6   31.35    1.12
  -2   4   6   30.84    0.65
  -2   4   6   29.95    0.63
  -2   4   6   31.16    0.65
  -2   4   6   30.38    0.72
  -2   4   6   31.39    0.63
  -2   4   6   29.93    0.65
   1  -4  -6   23.01    0.50
   1  -4  -6   22.12    0.50
   1  -4  -6   22.42    0.50
   1  -4  -6   22.71    0.48
  -1   4   6   23.07    0.88
  -1   4   6   22.27    0.49
  -1   4   6   22.08    0.47
  -1   4   6   22.75    0.89
  -1   4   6   22.50    0.48
  -1   4   6   22.35    0.49
  -1   4   6   23.04    0.47
  -1   4   6   22.96    0.55
  -1   4   6   22.87    0.55
  -1   4   6   22.34    0.49
  -1   4   6   21.86    0.48
  -1   4   6   22.91    0.55
  -1   4   6   22.68    0.48
   0  -4  -6    0.80    0.05
   0  -4  -6    0.88    0.07
   0  -4  -6    0.81    0.06
   0  -4  -6    0.86    0.07
   0   4   6    0.87    0.06
   0   4   6    0.67    0.08
   0   4   6    0.79    0.06
   0   4   6    0.64    0.08
   0   4   6    0.69    0.18
   0   4   6    0.80    0.08
   0   4   6    0.62    0.16
   0   4   6    0.76    0.05
   0   4   6    0.64    0.06
   0   4   6    0.86    0.05
   0   4   6    0.79    0.06
   0   4   6    0.88    0.06
   0   4   6    0.73    0.06
  -1  -4  -6    2.75    0.11
  -1  -4  -6    2.74    0.09
  -1  -4  -6    2.74    0.11
   1   4   6    2.75    0.10
   1   4   6    2.88    0.11
   1   4   6    2.67    0.10
   1   4   6    2.79    0.10
   1   4   6    2.82    0.10
   1   4   6    2.84    0.08
   1   4   6    2.73    0.08
   1   4   6    2.97    0.28
   1   4   6    2.93    0.13
   1   4   6    2.68    0.10
   1   4   6    2.85    0.13
   1   4   6    2.85    0.28
   1   4   6    2.81    0.11
   1   4   6    2.81    0.13
  -2  -4  -6    0.00    0.03
  -2  -4  -6   -0.01    0.03
  -2  -4  -6   -0.01    0.02
   2   4   6   -0.02    0.02
   2   4   6    0.02    0.02
   2   4   6    0.04    0.08
   2   4   6    0.00    0.02
   2   4   6    0.02    0.02
   2   4   6    0.02    0.03
   2   4   6    0.01    0.02
   2   4   6    0.02    0.02
   2   4   6   -0.01    0.02
   2   4   6   -0.01    0.03
   2   4   6    0.03    0.03
   2   4   6    0.00    0.02
   2   4   6    0.01    0.07
   2   4   6    0.00    0.03
  -3  -4  -6    0.57    0.06
  -3  -4  -6    0.58    0.06
  -3  -4  -6    0.58    0.06
   3   4   6    0.53    0.04
   3   4   6    0.62    0.06
   3   4   6    0.59    0.06
   3   4   6    0.58    0.05
   3   4   6    0.56    0.06
   3   4   6    0.54    0.05
   3   4   6    0.51    0.16
   3   4   6    0.55    0.07
   3   4   6    0.52    0.05
   3   4   6    0.60    0.07
   3   4   6    0.47    0.15
   3   4   6    0.61    0.05
   3   4   6    0.51    0.15
   3   4   6    0.57    0.04
  -4  -4  -6    2.55    0.12
  -4  -4  -6    3.03    0.12
  -4  -4  -6    2.69    0.12
  -4  -4  -6    2.89    0.12
   4   4   6    2.86    0.12
   4   4   6    2.67    0.11
   4   4   6    2.76    0.11
   4   4   6    2.86    0.11
   4   4   6    2.20    0.28
   4   4   6    2.12    0.28
   4   4   6    2.84    0.10
   4   4   6    2.75    0.10
   4   4   6    2.72    0.08
   4   4   6    2.78    0.13
   4   4   6    2.69    0.08
   4   4   6    2.66    0.13
   4   4   6    3.09    0.11
  -5  -4  -6    4.78    0.18
  -5  -4  -6    4.65    0.16
  -5  -4  -6    4.73    0.17
  -5  -4  -6    4.82    0.17
   5   4   6    4.57    0.15
   5   4   6    4.84    0.17
   5   4   6    4.44    0.16
   5   4   6    4.51    0.16
   5   4   6    4.73    0.15
   5   4   6    4.55    0.16
   5   4   6    4.84    0.41
   5   4   6    4.92    0.13
   5   4   6    4.72    0.13
   5   4   6    4.72    0.42
   5   4   6    4.70    0.15
   5   4   6    4.72    0.19
  -6  -4  -6   17.29    0.42
  -6  -4  -6   17.68    0.42
  -6  -4  -6   17.46    0.44
  -6  -4  -6   16.76    0.43
   6   4   6   17.34    0.37
   6   4   6   17.60    0.46
   6   4   6   17.52    0.37
   6   4   6   17.26    0.42
   6   4   6   16.96    0.41
   6   4   6   16.94    0.42
   6   4   6   17.02    0.84
   6   4   6   17.67    0.40
   6   4   6   17.07    0.40
   6   4   6   18.04    0.40
   6   4   6   16.30    0.83
  -7  -4  -6    0.18    0.06
  -7  -4  -6    0.15    0.05
  -7  -4  -6    0.10    0.05
  -7  -4  -6    0.14    0.06
   7   4   6    0.12    0.05
   7   4   6    0.18    0.05
   7   4   6    0.18    0.06
   7   4   6    0.20    0.06
   7   4   6    0.14    0.14
   7   4   6    0.17    0.03
   7   4   6    0.16    0.03
   7   4   6    0.10    0.06
   7   4   6    0.17    0.05
   7   4   6    0.20    0.15
   7   4   6    0.18    0.05
  -8  -4  -6    7.10    0.26
  -8  -4  -6    6.81    0.26
  -8  -4  -6    7.37    0.26
  -8  -4  -6    7.45    0.25
   8   4   6    7.31    0.23
   8   4   6    7.15    0.25
   8   4   6    6.67    0.61
   8   4   6    7.52    0.20
   8   4   6    7.27    0.29
   8   4   6    7.24    0.23
   8   4   6    7.30    0.25
   8   4   6    7.14    0.19
   8   4   6    7.07    0.23
   8   4   6    7.37    0.25
  -9  -4  -6    0.00    0.06
  -9  -4  -6   -0.08    0.05
  -9  -4  -6   -0.03    0.06
  -9  -4  -6    0.07    0.06
   9   4   6    0.02    0.15
   9   4   6    0.02    0.05
   9   4   6    0.04    0.05
   9   4   6   -0.01    0.04
   9   4   6    0.02    0.05
   9   4   6   -0.01    0.05
   9   4   6   -0.01    0.05
   9   4   6    0.01    0.03
   9   4   6    0.01    0.05
   7  -5  -6    0.46    0.10
   7  -5  -6    0.49    0.09
  -7   5   6    0.47    0.09
  -7   5   6    0.33    0.08
  -7   5   6    0.40    0.09
  -7   5   6    0.42    0.08
  -7   5   6    0.42    0.09
   6  -5  -6    0.50    0.09
   6  -5  -6    0.60    0.09
  -6   5   6    0.62    0.09
  -6   5   6    0.51    0.09
  -6   5   6    0.60    0.08
  -6   5   6    0.53    0.08
  -6   5   6    0.65    0.09
  -6   5   6    0.56    0.09
  -6   5   6    0.45    0.08
   5  -5  -6    2.61    0.16
   5  -5  -6    2.56    0.14
   5  -5  -6    2.80    0.15
  -5   5   6    2.98    0.15
  -5   5   6    2.84    0.15
  -5   5   6    2.88    0.14
  -5   5   6    2.60    0.14
  -5   5   6    2.88    0.15
  -5   5   6    2.88    0.15
  -5   5   6    2.77    0.15
   4  -5  -6    5.18    0.20
   4  -5  -6    4.80    0.19
   4  -5  -6    5.08    0.18
   4  -5  -6    4.97    0.20
  -4   5   6    4.91    0.19
  -4   5   6    4.66    0.18
  -4   5   6    5.12    0.19
  -4   5   6    4.99    0.19
  -4   5   6    5.22    0.19
  -4   5   6    4.89    0.18
  -4   5   6    5.11    0.18
   3  -5  -6    0.73    0.08
   3  -5  -6    0.55    0.07
   3  -5  -6    0.70    0.07
   3  -5  -6    0.59    0.08
  -3   5   6    0.79    0.08
  -3   5   6    0.59    0.07
  -3   5   6    0.98    0.13
  -3   5   6    0.58    0.07
  -3   5   6    0.47    0.06
  -3   5   6    0.55    0.07
  -3   5   6    0.65    0.07
  -3   5   6    0.68    0.08
  -3   5   6    0.87    0.25
   2  -5  -6    1.29    0.10
   2  -5  -6    1.45    0.10
   2  -5  -6    1.27    0.08
   2  -5  -6    1.36    0.09
  -2   5   6    1.30    0.12
  -2   5   6    1.33    0.08
  -2   5   6    1.17    0.08
  -2   5   6    1.43    0.09
  -2   5   6    1.27    0.09
  -2   5   6    1.15    0.26
  -2   5   6    1.32    0.09
  -2   5   6    0.87    0.11
  -2   5   6    1.15    0.09
  -2   5   6    1.29    0.09
   1  -5  -6    1.20    0.07
   1  -5  -6    1.17    0.08
   1  -5  -6    1.04    0.08
   1  -5  -6    1.12    0.09
  -1   5   6    1.19    0.08
  -1   5   6    1.27    0.25
  -1   5   6    1.08    0.08
  -1   5   6    1.18    0.24
  -1   5   6    1.05    0.07
  -1   5   6    1.01    0.08
  -1   5   6    1.07    0.11
  -1   5   6    1.16    0.08
  -1   5   6    1.01    0.08
  -1   5   6    1.04    0.07
  -1   5   6    1.04    0.11
  -1   5   6    1.11    0.08
   0  -5  -6    0.22    0.04
   0  -5  -6    0.21    0.05
   0  -5  -6    0.22    0.05
   0  -5  -6    0.24    0.04
   0   5   6    0.17    0.05
   0   5   6    0.20    0.04
   0   5   6    0.21    0.03
   0   5   6    0.22    0.04
   0   5   6    0.16    0.03
   0   5   6    0.21    0.04
   0   5   6    0.19    0.05
   0   5   6    0.15    0.05
   0   5   6    0.28    0.05
   0   5   6    0.31    0.15
   0   5   6    0.24    0.04
   0   5   6    0.20    0.04
   0   5   6    0.20    0.13
  -1  -5  -6    0.46    0.06
  -1  -5  -6    0.67    0.07
  -1  -5  -6    0.65    0.05
   1   5   6    0.57    0.06
   1   5   6    0.47    0.07
   1   5   6    0.50    0.05
   1   5   6    0.48    0.16
   1   5   6    0.49    0.05
   1   5   6    0.61    0.09
   1   5   6    0.41    0.16
   1   5   6    0.45    0.05
   1   5   6    0.50    0.07
   1   5   6    0.55    0.05
   1   5   6    0.53    0.05
   1   5   6    0.51    0.05
   1   5   6    0.62    0.06
   1   5   6    0.58    0.06
  -2  -5  -6   11.11    0.26
  -2  -5  -6   11.46    0.29
  -2  -5  -6   10.94    0.28
   2   5   6   10.93    0.30
   2   5   6   10.88    0.25
   2   5   6   11.08    0.27
   2   5   6   11.02    0.33
   2   5   6   11.24    0.61
   2   5   6   11.71    0.34
   2   5   6   11.03    0.28
   2   5   6   10.90    0.28
   2   5   6   11.05    0.27
   2   5   6   10.74    0.27
   2   5   6   10.89    0.28
   2   5   6   10.60    0.27
   2   5   6   11.30    0.26
   2   5   6   11.51    0.61
  -3  -5  -6    0.87    0.08
  -3  -5  -6    0.91    0.08
  -3  -5  -6    0.92    0.08
  -3  -5  -6    0.95    0.06
   3   5   6    0.87    0.07
   3   5   6    0.91    0.08
   3   5   6    0.88    0.06
   3   5   6    0.84    0.07
   3   5   6    0.78    0.06
   3   5   6    0.98    0.07
   3   5   6    0.82    0.09
   3   5   6    0.90    0.06
   3   5   6    1.09    0.08
   3   5   6    0.78    0.07
   3   5   6    0.89    0.21
   3   5   6    0.89    0.21
   3   5   6    0.94    0.07
   3   5   6    0.79    0.20
  -4  -5  -6    1.63    0.10
  -4  -5  -6    1.73    0.11
  -4  -5  -6    1.71    0.10
  -4  -5  -6    1.73    0.10
   4   5   6    1.63    0.09
   4   5   6    1.66    0.09
   4   5   6    1.47    0.12
   4   5   6    1.68    0.09
   4   5   6    1.67    0.10
   4   5   6    1.56    0.07
   4   5   6    1.67    0.08
   4   5   6    1.63    0.09
   4   5   6    1.17    0.25
   4   5   6    1.68    0.10
   4   5   6    1.41    0.09
   4   5   6    1.15    0.25
   4   5   6    1.70    0.10
  -5  -5  -6   -0.01    0.04
  -5  -5  -6    0.14    0.05
  -5  -5  -6    0.08    0.05
  -5  -5  -6    0.06    0.04
   5   5   6    0.04    0.05
   5   5   6    0.00    0.02
   5   5   6    0.14    0.13
   5   5   6    0.03    0.04
   5   5   6    0.04    0.04
   5   5   6    0.03    0.03
   5   5   6    0.07    0.04
   5   5   6    0.10    0.04
   5   5   6    0.04    0.12
   5   5   6    0.05    0.04
   5   5   6    0.04    0.03
   5   5   6    0.03    0.04
  -6  -5  -6    2.68    0.14
  -6  -5  -6    2.90    0.14
  -6  -5  -6    2.45    0.14
  -6  -5  -6    2.69    0.14
   6   5   6    3.00    0.13
   6   5   6    2.74    0.12
   6   5   6    2.79    0.13
   6   5   6    2.81    0.12
   6   5   6    2.73    0.13
   6   5   6    2.55    0.37
   6   5   6    2.89    0.17
   6   5   6    2.82    0.13
   6   5   6    2.88    0.14
   6   5   6    2.74    0.11
  -7  -5  -6    3.49    0.17
  -7  -5  -6    3.42    0.16
  -7  -5  -6    3.23    0.17
  -7  -5  -6    3.05    0.16
   7   5   6    3.53    0.20
   7   5   6    3.26    0.14
   7   5   6    3.27    0.43
   7   5   6    3.35    0.16
   7   5   6    3.25    0.12
   7   5   6    3.34    0.16
   7   5   6    3.25    0.16
   7   5   6    3.55    0.15
   7   5   6    3.24    0.15
  -8  -5  -6    2.14    0.14
  -8  -5  -6    1.90    0.14
  -8  -5  -6    2.22    0.14
  -8  -5  -6    1.91    0.15
   8   5   6    2.10    0.13
   8   5   6    1.95    0.14
   8   5   6    1.98    0.17
   8   5   6    1.87    0.12
   8   5   6    2.26    0.14
   8   5   6    2.03    0.48
   8   5   6    2.12    0.13
   8   5   6    2.26    0.14
   8   5   6    2.01    0.10
  -9  -5  -6    1.80    0.15
  -9  -5  -6    1.49    0.14
  -9  -5  -6    1.83    0.15
   9   5   6    1.47    0.12
   9   5   6    1.45    0.13
   9   5   6    1.52    0.10
   9   5   6    1.69    0.14
   9   5   6    1.67    0.13
   9   5   6    1.32    0.11
   9   5   6    1.67    0.17
   9   5   6    1.49    0.14
   6  -6  -6    2.16    0.16
   6  -6  -6    2.47    0.17
  -6   6   6    2.48    0.16
  -6   6   6    2.30    0.15
  -6   6   6    2.31    0.15
  -6   6   6    2.52    0.25
  -6   6   6    2.10    0.15
   5  -6  -6    0.12    0.06
   5  -6  -6    0.10    0.06
   5  -6  -6    0.15    0.06
  -5   6   6    0.11    0.06
  -5   6   6    0.13    0.06
  -5   6   6    0.07    0.06
  -5   6   6    0.08    0.06
  -5   6   6    0.08    0.06
  -5   6   6    0.11    0.05
  -5   6   6    0.06    0.05
   4  -6  -6    5.80    0.20
   4  -6  -6    5.51    0.21
   4  -6  -6    5.64    0.22
  -4   6   6    5.96    0.21
  -4   6   6    5.80    0.22
  -4   6   6    5.64    0.20
  -4   6   6    5.90    0.21
  -4   6   6    5.88    0.21
  -4   6   6    5.80    0.21
  -4   6   6    5.77    0.21
   3  -6  -6    2.30    0.14
   3  -6  -6    2.42    0.14
   3  -6  -6    2.49    0.12
   3  -6  -6    2.52    0.13
  -3   6   6    2.50    0.13
  -3   6   6    2.29    0.12
  -3   6   6    2.63    0.13
  -3   6   6    2.39    0.13
  -3   6   6    2.52    0.13
  -3   6   6    2.75    0.13
  -3   6   6    2.48    0.13
   2  -6  -6    0.55    0.08
   2  -6  -6    0.64    0.07
   2  -6  -6    0.61    0.08
   2  -6  -6    0.45    0.07
  -2   6   6    0.46    0.07
  -2   6   6    0.52    0.07
  -2   6   6    0.49    0.07
  -2   6   6    0.51    0.07
  -2   6   6    0.63    0.07
  -2   6   6    0.45    0.06
  -2   6   6    0.51    0.06
   1  -6  -6    0.03    0.04
   1  -6  -6    0.01    0.04
   1  -6  -6    0.01    0.03
   1  -6  -6    0.02    0.04
  -1   6   6    0.00    0.04
  -1   6   6    0.01    0.03
  -1   6   6    0.00    0.03
  -1   6   6    0.02    0.11
  -1   6   6    0.04    0.04
  -1   6   6    0.02    0.03
  -1   6   6    0.04    0.05
  -1   6   6   -0.02    0.03
  -1   6   6    0.04    0.04
  -1   6   6    0.00    0.03
   0  -6  -6    6.23    0.18
   0  -6  -6    6.19    0.21
   0  -6  -6    6.08    0.20
   0  -6  -6    6.20    0.20
   0   6   6    6.33    0.19
   0   6   6    6.14    0.20
   0   6   6    5.52    0.25
   0   6   6    5.93    0.18
   0   6   6    6.11    0.19
   0   6   6    6.31    0.19
   0   6   6    6.19    0.25
   0   6   6    6.35    0.19
   0   6   6    5.78    0.49
   0   6   6    5.60    0.21
   0   6   6    5.91    0.19
  -1  -6  -6    0.90    0.08
  -1  -6  -6    0.73    0.07
  -1  -6  -6    0.78    0.07
   1   6   6    0.82    0.07
   1   6   6    0.68    0.21
   1   6   6    0.82    0.08
   1   6   6    0.73    0.08
   1   6   6    0.64    0.07
   1   6   6    0.82    0.07
   1   6   6    0.73    0.06
   1   6   6    0.96    0.08
   1   6   6    0.55    0.20
   1   6   6    0.57    0.09
   1   6   6    0.74    0.06
   1   6   6    0.76    0.10
   1   6   6    0.78    0.07
   1   6   6    0.87    0.07
  -2  -6  -6   21.98    0.48
  -2  -6  -6   22.52    0.51
  -2  -6  -6   22.54    0.50
   2   6   6   21.69    0.49
   2   6   6   21.89    0.48
   2   6   6   21.34    0.49
   2   6   6   21.82    0.49
   2   6   6   21.61    0.47
   2   6   6   21.06    0.49
   2   6   6   20.52    0.92
   2   6   6   21.66    0.50
   2   6   6   22.13    0.97
   2   6   6   22.18    0.57
   2   6   6   22.31    0.50
   2   6   6   21.40    0.49
   2   6   6   22.25    0.48
  -3  -6  -6    2.95    0.13
  -3  -6  -6    3.21    0.14
  -3  -6  -6    3.03    0.12
   3   6   6    3.36    0.13
   3   6   6    2.96    0.13
   3   6   6    3.65    0.40
   3   6   6    3.22    0.12
   3   6   6    2.90    0.13
   3   6   6    2.95    0.12
   3   6   6    2.90    0.12
   3   6   6    2.98    0.13
   3   6   6    3.10    0.17
   3   6   6    2.74    0.13
   3   6   6    2.98    0.12
   3   6   6    3.46    0.37
   3   6   6    3.14    0.14
  -4  -6  -6   17.78    0.43
  -4  -6  -6   17.83    0.44
  -4  -6  -6   17.48    0.41
  -4  -6  -6   17.94    0.43
  -4  -6  -6   17.87    0.44
   4   6   6   17.72    0.43
   4   6   6   17.39    0.89
   4   6   6   17.65    0.42
   4   6   6   17.60    0.41
   4   6   6   17.90    0.43
   4   6   6   18.29    0.50
   4   6   6   17.61    0.42
   4   6   6   17.86    0.42
   4   6   6   17.30    0.40
   4   6   6   17.89    0.42
  -5  -6  -6   12.48    0.35
  -5  -6  -6   13.03    0.35
  -5  -6  -6   12.47    0.34
  -5  -6  -6   12.82    0.36
   5   6   6   12.83    0.41
   5   6   6   13.01    0.34
   5   6   6   12.89    0.34
   5   6   6   12.64    0.31
   5   6   6   13.26    0.33
   5   6   6   12.94    0.79
   5   6   6   12.92    0.34
   5   6   6   12.94    0.33
   5   6   6   13.06    0.35
   5   6   6   12.47    0.33
  -6  -6  -6    0.02    0.04
  -6  -6  -6    0.02    0.04
  -6  -6  -6    0.07    0.05
  -6  -6  -6    0.05    0.05
   6   6   6    0.02    0.05
   6   6   6   -0.05    0.04
   6   6   6    0.04    0.06
   6   6   6    0.00    0.03
   6   6   6    0.01    0.04
   6   6   6   -0.01    0.04
   6   6   6    0.01    0.04
   6   6   6    0.03    0.04
   6   6   6   -0.01    0.04
   6   6   6    0.06    0.15
  -7  -6  -6    2.77    0.16
  -7  -6  -6    2.72    0.16
  -7  -6  -6    3.15    0.16
  -7  -6  -6    2.88    0.16
   7   6   6    2.86    0.20
   7   6   6    2.71    0.15
   7   6   6    2.88    0.15
   7   6   6    2.80    0.13
   7   6   6    2.92    0.15
   7   6   6    3.00    0.15
   7   6   6    3.16    0.16
   7   6   6    2.94    0.14
  -8  -6  -6    0.91    0.11
  -8  -6  -6    0.88    0.11
  -8  -6  -6    0.74    0.11
  -8  -6  -6    0.88    0.12
   8   6   6    0.86    0.11
   8   6   6    0.81    0.08
   8   6   6    0.94    0.11
   8   6   6    0.80    0.09
   8   6   6    0.71    0.09
   8   6   6    0.73    0.09
   8   6   6    0.71    0.09
   5  -7  -6    1.78    0.15
   5  -7  -6    1.97    0.16
   5  -7  -6    1.83    0.13
  -5   7   6    1.80    0.14
  -5   7   6    1.60    0.13
  -5   7   6    1.67    0.14
  -5   7   6    1.86    0.14
   4  -7  -6    2.60    0.14
   4  -7  -6    2.60    0.15
   4  -7  -6    2.75    0.16
  -4   7   6    2.69    0.14
  -4   7   6    2.70    0.15
  -4   7   6    2.36    0.14
  -4   7   6    2.45    0.15
  -4   7   6    2.54    0.15
  -4   7   6    2.51    0.15
  -4   7   6    2.62    0.16
   3  -7  -6    1.24    0.12
   3  -7  -6    1.42    0.11
   3  -7  -6    1.24    0.11
   3  -7  -6    1.36    0.10
  -3   7   6    1.28    0.11
  -3   7   6    1.07    0.10
  -3   7   6    0.92    0.09
  -3   7   6    1.27    0.11
  -3   7   6    1.23    0.11
  -3   7   6    1.27    0.11
  -3   7   6    1.27    0.10
   2  -7  -6    4.59    0.19
   2  -7  -6    4.54    0.18
   2  -7  -6    4.56    0.19
   2  -7  -6    4.46    0.17
  -2   7   6    4.57    0.18
  -2   7   6    4.44    0.18
  -2   7   6    4.61    0.18
  -2   7   6    4.70    0.18
  -2   7   6    4.54    0.18
  -2   7   6    4.52    0.17
  -2   7   6    4.47    0.17
   1  -7  -6    2.88    0.15
   1  -7  -6    2.67    0.12
   1  -7  -6    2.80    0.14
   1  -7  -6    2.83    0.14
  -1   7   6    2.84    0.13
  -1   7   6    3.09    0.13
  -1   7   6    2.99    0.14
  -1   7   6    2.69    0.13
  -1   7   6    2.92    0.14
  -1   7   6    2.77    0.13
  -1   7   6    2.96    0.14
   0  -7  -6    5.08    0.19
   0  -7  -6    4.90    0.19
   0  -7  -6    4.79    0.16
   0  -7  -6    4.63    0.18
   0   7   6    4.67    0.16
   0   7   6    4.74    0.17
   0   7   6    4.98    0.18
   0   7   6    4.54    0.17
   0   7   6    4.46    0.17
   0   7   6    4.55    0.17
   0   7   6    4.58    0.17
  -1  -7  -6    0.44    0.06
  -1  -7  -6    0.43    0.06
  -1  -7  -6    0.45    0.07
   1   7   6    0.42    0.07
   1   7   6    0.57    0.07
   1   7   6    0.38    0.06
   1   7   6    0.44    0.06
   1   7   6    0.34    0.06
   1   7   6    0.51    0.09
   1   7   6    0.52    0.21
   1   7   6    0.46    0.07
   1   7   6    0.43    0.06
   1   7   6    0.36    0.06
   1   7   6    0.38    0.06
  -2  -7  -6    2.11    0.12
  -2  -7  -6    2.30    0.11
  -2  -7  -6    1.97    0.12
  -2  -7  -6    2.27    0.13
   2   7   6    2.14    0.11
   2   7   6    2.29    0.35
   2   7   6    1.98    0.10
   2   7   6    2.50    0.12
   2   7   6    2.20    0.12
   2   7   6    2.15    0.11
   2   7   6    2.19    0.17
   2   7   6    2.28    0.12
   2   7   6    2.17    0.11
   2   7   6    2.07    0.11
  -3  -7  -6    8.61    0.25
  -3  -7  -6    8.32    0.26
  -3  -7  -6    8.12    0.25
  -3  -7  -6    8.54    0.24
   3   7   6    7.76    0.59
   3   7   6    8.08    0.24
   3   7   6    8.26    0.32
   3   7   6    8.80    0.26
   3   7   6    8.39    0.25
   3   7   6    8.20    0.24
   3   7   6    8.27    0.24
   3   7   6    8.11    0.23
   3   7   6    8.23    0.24
   3   7   6    8.40    0.25
   3   7   6    7.85    0.61
  -4  -7  -6    0.25    0.05
  -4  -7  -6    0.10    0.05
  -4  -7  -6    0.03    0.04
  -4  -7  -6    0.08    0.05
  -4  -7  -6    0.09    0.05
   4   7   6    0.09    0.04
   4   7   6    0.10    0.04
   4   7   6    0.02    0.04
   4   7   6    0.08    0.04
   4   7   6    0.09    0.04
   4   7   6    0.07    0.04
   4   7   6    0.06    0.06
   4   7   6    0.09    0.04
   4   7   6    0.15    0.05
   4   7   6    0.06    0.14
  -5  -7  -6    1.73    0.12
  -5  -7  -6    2.10    0.13
  -5  -7  -6    2.06    0.13
  -5  -7  -6    2.00    0.13
   5   7   6    1.82    0.12
   5   7   6    2.06    0.13
   5   7   6    1.84    0.11
   5   7   6    2.18    0.13
   5   7   6    1.90    0.11
   5   7   6    2.13    0.13
   5   7   6    2.14    0.12
  -6  -7  -6    0.04    0.05
  -6  -7  -6    0.00    0.05
  -6  -7  -6   -0.02    0.04
  -6  -7  -6   -0.03    0.04
   6   7   6    0.04    0.05
   6   7   6   -0.03    0.04
   6   7   6    0.06    0.05
   6   7   6   -0.05    0.04
   6   7   6    0.02    0.04
   6   7   6    0.00    0.04
   6   7   6   -0.01    0.05
   6   7   6   -0.01    0.03
  -7  -7  -6    0.39    0.08
  -7  -7  -6    0.45    0.08
  -7  -7  -6    0.51    0.08
   7   7   6    0.43    0.07
   7   7   6    0.35    0.07
   7   7   6    0.54    0.07
   7   7   6    0.49    0.07
   7   7   6    0.41    0.08
   7   7   6    0.58    0.09
   7   7   6    0.41    0.08
  -8  -7  -6    0.08    0.06
  -8  -7  -6   -0.10    0.05
  -8  -7  -6   -0.01    0.06
   8   7   6    0.06    0.06
   8   7   6   -0.03    0.04
   8   7   6   -0.04    0.05
   8   7   6    0.00    0.05
   8   7   6    0.00    0.05
   8   7   6   -0.05    0.05
   8   7   6    0.06    0.06
   5  -8  -6    1.47    0.14
   5  -8  -6    1.27    0.14
   5  -8  -6    1.57    0.14
   5  -8  -6    1.22    0.14
  -5   8   6    1.12    0.13
  -5   8   6    1.34    0.13
  -5   8   6    1.37    0.13
  -5   8   6    1.47    0.14
   4  -8  -6    1.88    0.15
   4  -8  -6    1.89    0.15
   4  -8  -6    1.97    0.13
  -4   8   6    1.81    0.14
  -4   8   6    1.99    0.15
  -4   8   6    1.88    0.13
  -4   8   6    1.85    0.14
   3  -8  -6    2.72    0.16
   3  -8  -6    2.59    0.14
   3  -8  -6    2.88    0.17
  -3   8   6    2.56    0.15
  -3   8   6    2.67    0.15
  -3   8   6    2.65    0.15
  -3   8   6    3.06    0.16
  -3   8   6    2.69    0.15
  -3   8   6    3.10    0.17
   2  -8  -6    0.19    0.07
   2  -8  -6    0.14    0.06
   2  -8  -6    0.13    0.05
  -2   8   6    0.28    0.07
  -2   8   6    0.16    0.05
  -2   8   6    0.23    0.06
  -2   8   6    0.06    0.05
  -2   8   6    0.14    0.06
  -2   8   6    0.15    0.06
  -2   8   6    0.22    0.06
   1  -8  -6    1.42    0.11
   1  -8  -6    1.33    0.10
   1  -8  -6    1.38    0.12
  -1   8   6    1.31    0.10
  -1   8   6    1.29    0.10
  -1   8   6    1.42    0.11
  -1   8   6    1.29    0.10
  -1   8   6    1.37    0.11
  -1   8   6    1.30    0.11
  -1   8   6    1.25    0.10
   0  -8  -6    5.00    0.20
   0  -8  -6    4.83    0.18
   0  -8  -6    5.22    0.19
   0   8   6    4.80    0.19
   0   8   6    4.82    0.18
   0   8   6    5.16    0.19
   0   8   6    4.87    0.19
   0   8   6    4.94    0.18
   0   8   6    5.02    0.19
   0   8   6    5.25    0.18
  -1  -8  -6    3.36    0.14
  -1  -8  -6    3.05    0.16
  -1  -8  -6    2.88    0.15
   1   8   6    2.98    0.14
   1   8   6    3.11    0.15
   1   8   6    3.24    0.14
   1   8   6    3.00    0.15
   1   8   6    3.16    0.14
   1   8   6    2.93    0.15
   1   8   6    3.18    0.15
   1   8   6    3.08    0.15
  -2  -8  -6    5.70    0.22
  -2  -8  -6    5.84    0.19
  -2  -8  -6    5.49    0.20
  -2  -8  -6    5.61    0.21
   2   8   6    5.61    0.20
   2   8   6    5.73    0.21
   2   8   6    6.06    0.20
   2   8   6    5.57    0.20
   2   8   6    5.77    0.21
   2   8   6    5.70    0.20
   2   8   6    5.58    0.20
   2   8   6    5.90    0.19
  -3  -8  -6    1.02    0.10
  -3  -8  -6    0.87    0.08
  -3  -8  -6    0.85    0.09
  -3  -8  -6    0.95    0.10
   3   8   6    0.97    0.09
   3   8   6    0.70    0.08
   3   8   6    0.74    0.09
   3   8   6    0.92    0.09
   3   8   6    0.67    0.08
   3   8   6    0.85    0.09
   3   8   6    1.08    0.10
   3   8   6    0.86    0.08
  -4  -8  -6    0.36    0.07
  -4  -8  -6    0.39    0.06
  -4  -8  -6    0.59    0.08
  -4  -8  -6    0.31    0.07
  -4  -8  -6    0.43    0.07
   4   8   6    0.55    0.08
   4   8   6    0.34    0.06
   4   8   6    0.47    0.08
   4   8   6    0.39    0.06
   4   8   6    0.27    0.06
   4   8   6    0.37    0.07
   4   8   6    0.42    0.07
   4   8   6    0.36    0.06
  -5  -8  -6    1.27    0.12
  -5  -8  -6    1.50    0.12
  -5  -8  -6    1.39    0.15
  -5  -8  -6    1.50    0.15
  -5  -8  -6    1.15    0.11
   5   8   6    1.35    0.11
   5   8   6    1.34    0.11
   5   8   6    1.38    0.12
   5   8   6    1.31    0.10
   5   8   6    1.33    0.11
   5   8   6    1.31    0.11
   5   8   6    1.24    0.11
   5   8   6    1.41    0.11
  -6  -8  -6    1.12    0.11
  -6  -8  -6    1.05    0.11
  -6  -8  -6    1.13    0.12
   6   8   6    1.34    0.13
   6   8   6    1.35    0.12
   6   8   6    1.14    0.11
   6   8   6    1.15    0.11
   6   8   6    1.31    0.10
   6   8   6    1.07    0.11
   6   8   6    1.27    0.11
   6   8   6    1.01    0.10
  -7  -8  -6    0.25    0.07
  -7  -8  -6    0.45    0.09
  -7  -8  -6    0.57    0.10
   7   8   6    0.46    0.08
   7   8   6    0.46    0.09
   7   8   6    0.46    0.07
   7   8   6    0.40    0.08
   7   8   6    0.35    0.07
   7   8   6    0.41    0.09
   7   8   6    0.61    0.09
   7   8   6    0.36    0.07
   4  -9  -6    1.77    0.15
   4  -9  -6    1.98    0.16
   4  -9  -6    2.32    0.15
  -4   9   6    1.96    0.15
  -4   9   6    1.87    0.15
  -4   9   6    1.98    0.15
  -4   9   6    2.10    0.15
   3  -9  -6    0.37    0.07
   3  -9  -6    0.48    0.09
   3  -9  -6    0.40    0.08
  -3   9   6    0.52    0.09
  -3   9   6    0.39    0.08
  -3   9   6    0.52    0.09
  -3   9   6    0.58    0.08
   2  -9  -6    0.00    0.05
   2  -9  -6    0.01    0.04
   2  -9  -6    0.01    0.06
  -2   9   6   -0.01    0.05
  -2   9   6   -0.07    0.05
  -2   9   6    0.03    0.05
  -2   9   6    0.05    0.05
   1  -9  -6    0.59    0.08
   1  -9  -6    0.47    0.08
   1  -9  -6    0.54    0.08
  -1   9   6    0.63    0.08
  -1   9   6    0.55    0.08
  -1   9   6    0.51    0.08
  -1   9   6    0.38    0.07
  -1   9   6    0.49    0.08
  -1   9   6    0.43    0.07
   0  -9  -6    4.67    0.20
   0  -9  -6    4.28    0.19
   0  -9  -6    4.68    0.18
   0   9   6    4.57    0.18
   0   9   6    4.48    0.18
   0   9   6    4.74    0.19
   0   9   6    4.39    0.19
   0   9   6    4.68    0.19
   0   9   6    4.48    0.19
   0   9   6    4.60    0.18
  -1  -9  -6    1.56    0.12
  -1  -9  -6    1.54    0.10
   1   9   6    1.37    0.11
   1   9   6    1.58    0.12
   1   9   6    1.65    0.12
   1   9   6    1.38    0.12
   1   9   6    1.60    0.11
   1   9   6    1.74    0.12
   1   9   6    1.57    0.12
   1   9   6    1.59    0.12
  -2  -9  -6    3.54    0.15
  -2  -9  -6    3.14    0.16
  -2  -9  -6    3.40    0.17
   2   9   6    3.04    0.16
   2   9   6    3.55    0.17
   2   9   6    3.16    0.16
   2   9   6    3.55    0.17
   2   9   6    3.23    0.15
   2   9   6    3.49    0.16
   2   9   6    3.21    0.16
   2   9   6    3.37    0.16
  -3  -9  -6   15.48    0.42
  -3  -9  -6   15.49    0.41
  -3  -9  -6   15.35    0.39
   3   9   6   15.51    0.41
   3   9   6   15.15    0.39
   3   9   6   14.84    0.40
   3   9   6   15.34    0.41
   3   9   6   15.25    0.41
   3   9   6   15.78    0.42
   3   9   6   15.44    0.40
   3   9   6   15.47    0.40
  -4  -9  -6    0.68    0.09
  -4  -9  -6    0.65    0.08
  -4  -9  -6    0.76    0.10
  -4  -9  -6    0.72    0.09
   4   9   6    0.67    0.08
   4   9   6    0.70    0.09
   4   9   6    0.69    0.10
   4   9   6    0.67    0.09
   4   9   6    0.68    0.09
   4   9   6    0.68    0.08
   4   9   6    0.74    0.09
   4   9   6    0.82    0.09
  -5  -9  -6    0.11    0.06
  -5  -9  -6    0.16    0.06
  -5  -9  -6    0.10    0.06
  -5  -9  -6    0.02    0.05
   5   9   6    0.13    0.06
   5   9   6    0.18    0.06
   5   9   6   -0.02    0.05
   5   9   6    0.15    0.06
   5   9   6    0.08    0.05
   5   9   6    0.19    0.07
   5   9   6    0.10    0.06
   5   9   6    0.14    0.06
  -6  -9  -6    0.09    0.06
  -6  -9  -6    0.11    0.06
  -6  -9  -6    0.12    0.07
   6   9   6    0.13    0.06
   6   9   6    0.04    0.05
   6   9   6    0.09    0.06
   6   9   6    0.06    0.05
   6   9   6    0.03    0.05
   6   9   6    0.06    0.06
   6   9   6    0.07    0.06
   6   9   6    0.02    0.05
  -7  -9  -6    0.85    0.11
  -7  -9  -6    0.90    0.11
  -7  -9  -6    0.87    0.12
   7   9   6    0.87    0.11
   7   9   6    0.92    0.11
   7   9   6    0.95    0.11
   7   9   6    0.77    0.11
   7   9   6    1.02    0.11
   7   9   6    0.94    0.12
   7   9   6    0.95    0.10
   7   9   6    0.93    0.11
   2 -10  -6    0.74    0.10
   2 -10  -6    0.64    0.10
   2 -10  -6    0.90    0.12
  -2  10   6    0.74    0.10
  -2  10   6    0.68    0.10
  -2  10   6    0.95    0.11
  -2  10   6    0.89    0.11
   1 -10  -6    0.34    0.08
   1 -10  -6    0.25    0.06
   1 -10  -6    0.26    0.07
  -1  10   6    0.24    0.07
  -1  10   6    0.25    0.07
  -1  10   6    0.45    0.08
  -1  10   6    0.20    0.07
   0 -10  -6    0.40    0.08
   0 -10  -6    0.50    0.08
   0  10   6    0.36    0.08
   0  10   6    0.38    0.07
   0  10   6    0.34    0.08
   0  10   6    0.47    0.08
  -1 -10  -6    2.89    0.16
  -1 -10  -6    2.93    0.15
  -1 -10  -6    2.84    0.15
   1  10   6    3.07    0.16
   1  10   6    2.63    0.16
   1  10   6    2.58    0.15
   1  10   6    2.79    0.17
   1  10   6    3.00    0.16
  -2 -10  -6    0.37    0.07
  -2 -10  -6    0.49    0.08
  -2 -10  -6    0.39    0.07
   2  10   6    0.52    0.09
   2  10   6    0.38    0.07
   2  10   6    0.34    0.07
   2  10   6    0.42    0.08
   2  10   6    0.45    0.08
  -3 -10  -6    0.00    0.05
  -3 -10  -6   -0.06    0.04
  -3 -10  -6   -0.01    0.05
   3  10   6   -0.02    0.05
   3  10   6   -0.02    0.06
   3  10   6   -0.07    0.06
   3  10   6    0.04    0.05
   3  10   6   -0.02    0.05
   3  10   6    0.05    0.05
  -4 -10  -6    0.83    0.09
  -4 -10  -6    0.84    0.10
  -4 -10  -6    0.91    0.11
   4  10   6    0.79    0.10
   4  10   6    0.89    0.10
   4  10   6    1.02    0.11
   4  10   6    1.25    0.13
   4  10   6    0.93    0.10
  -5 -10  -6    0.06    0.05
  -5 -10  -6    0.10    0.06
  -5 -10  -6   -0.01    0.06
  -5 -10  -6    0.01    0.06
   5  10   6    0.03    0.06
   5  10   6    0.07    0.06
   5  10   6   -0.01    0.05
   5  10   6   -0.03    0.05
   5  10   6    0.08    0.06
  -6 -10  -6    4.20    0.21
  -6 -10  -6    4.48    0.22
  -6 -10  -6    4.31    0.21
   6  10   6    4.44    0.20
   6  10   6    4.37    0.22
   6  10   6    4.66    0.21
   6  10   6    4.53    0.21
   6  10   6    4.78    0.21
   0 -11  -6    0.99    0.11
   0 -11  -6    1.06    0.12
   0  11   6    1.19    0.12
   0  11   6    1.11    0.12
   0  11   6    1.30    0.13
   0  11   6    1.12    0.12
   0  11   6    0.99    0.12
  -1 -11  -6    0.47    0.08
  -1 -11  -6    0.50    0.09
  -1 -11  -6    0.39    0.07
   1  11   6    0.40    0.08
   1  11   6    0.31    0.08
   1  11   6    0.55    0.09
   1  11   6    0.56    0.09
   1  11   6    0.46    0.09
  -2 -11  -6    1.45    0.12
  -2 -11  -6    1.45    0.14
  -2 -11  -6    1.22    0.12
   2  11   6    1.42    0.13
   2  11   6    1.38    0.13
   2  11   6    1.15    0.12
   2  11   6    1.27    0.14
   2  11   6    1.17    0.13
  -3 -11  -6    0.13    0.06
  -3 -11  -6    0.11    0.06
  -3 -11  -6    0.10    0.06
   3  11   6    0.06    0.06
   3  11   6    0.04    0.06
   3  11   6    0.00    0.06
   3  11   6    0.11    0.07
   3  11   6    0.13    0.07
  -4 -11  -6    5.00    0.22
  -4 -11  -6    5.19    0.23
  -4 -11  -6    5.06    0.22
   4  11   6    5.38    0.23
   4  11   6    4.97    0.23
   4  11   6    5.05    0.22
   4  11   6    5.28    0.22
   4  11   6    5.10    0.23
  -3  -7   7    0.13    0.04
  -3  -7   7    0.09    0.04
  -3  -7   7    0.04    0.06
  -3  -7   7    0.09    0.04
  -2  -7   7    0.06    0.06
  -2  -7   7    0.00    0.03
  -2  -7   7   -0.06    0.06
  -2  -7   7   -0.03    0.03
  -2  -7   7   -0.05    0.03
  -1  -7   7    0.97    0.07
  -1  -7   7    0.92    0.11
  -1  -7   7    0.96    0.07
  -1  -7   7    1.00    0.08
   0  -7   7    0.61    0.06
   0  -7   7    0.62    0.10
   0  -7   7    0.63    0.05
   1  -7   7    1.05    0.08
   1  -7   7    0.96    0.11
   1  -7   7    1.19    0.07
   5   6  -7    0.38    0.07
  -5  -6   7    0.31    0.06
  -5  -6   7    0.31    0.06
  -5  -6   7    0.30    0.06
   4   6  -7    5.08    0.17
  -4  -6   7    5.17    0.18
  -4  -6   7    5.49    0.22
  -4  -6   7    5.05    0.18
  -4  -6   7    5.32    0.18
  -3  -6   7   -0.09    0.04
  -3  -6   7    0.03    0.03
  -3  -6   7    0.02    0.06
  -3  -6   7    0.01    0.03
  -3  -6   7    0.00    0.03
  -2  -6   7    1.87    0.13
  -2  -6   7    2.02    0.16
  -2  -6   7    1.82    0.09
  -2  -6   7    1.87    0.09
  -1  -6   7    3.78    0.12
  -1  -6   7    3.77    0.12
  -1  -6   7    3.97    0.22
  -1  -6   7    3.79    0.19
  -1  -6   7    3.49    0.12
   0  -6   7    0.03    0.05
   0  -6   7    0.01    0.03
   0  -6   7    0.01    0.02
   1  -6   7    0.88    0.06
   1  -6   7    0.83    0.05
   1  -6   7    0.91    0.11
   2  -6   7    1.53    0.08
   2  -6   7    1.51    0.14
   2  -6   7    1.44    0.07
   3  -6   7    0.35    0.09
   3  -6   7    0.32    0.05
   3  -6   7    0.37    0.04
   5   5  -7    0.55    0.07
  -5  -5   7    0.50    0.07
  -5  -5   7    0.41    0.07
  -5  -5   7    0.44    0.07
  -5  -5   7    0.50    0.10
   4   5  -7    0.45    0.06
  -4  -5   7    0.38    0.07
  -4  -5   7    0.29    0.08
  -4  -5   7    0.39    0.06
  -4  -5   7    0.35    0.06
  -4  -5   7    0.38    0.06
   3   5  -7    0.45    0.05
  -3  -5   7    0.52    0.08
  -3  -5   7    0.59    0.06
  -3  -5   7    0.58    0.10
  -3  -5   7    0.48    0.06
  -3  -5   7    0.51    0.06
  -2  -5   7    7.64    0.30
  -2  -5   7    8.27    0.20
  -2  -5   7    8.26    0.27
  -2  -5   7    8.28    0.21
  -2  -5   7    8.36    0.21
  -1  -5   7    6.45    0.23
  -1  -5   7    6.06    0.16
  -1  -5   7    6.21    0.16
  -1  -5   7    6.28    0.27
   0  -5   7    0.03    0.02
   0  -5   7    0.04    0.06
   0  -5   7    0.02    0.02
   0  -5   7   -0.05    0.05
   1  -5   7    2.64    0.09
   1  -5   7    2.45    0.15
   2  -5   7    0.93    0.06
   2  -5   7    0.95    0.11
   2  -5   7    0.98    0.05
   3  -5   7    0.24    0.04
   3  -5   7    0.22    0.03
   3  -5   7    0.22    0.04
   3  -5   7    0.26    0.07
  -4   5  -7    0.09    0.04
   4  -5   7    0.12    0.04
   4  -5   7    0.09    0.06
   4  -5   7    0.06    0.03
   4  -5   7    0.14    0.03
   6   4  -7    0.18    0.05
  -6  -4   7    0.12    0.07
  -6  -4   7    0.08    0.05
  -6  -4   7    0.02    0.04
  -6  -4   7    0.11    0.04
  -6  -4   7    0.13    0.05
   5   4  -7    1.10    0.09
  -5  -4   7    0.90    0.12
  -5  -4   7    1.21    0.10
  -5  -4   7    1.22    0.09
  -5  -4   7    1.04    0.09
   4   4  -7    4.73    0.16
  -4  -4   7    4.67    0.16
  -4  -4   7    4.50    0.16
  -4  -4   7    4.83    0.23
  -4  -4   7    4.61    0.18
  -4  -4   7    4.75    0.16
   3   4  -7    7.24    0.19
  -3  -4   7    7.21    0.24
  -3  -4   7    7.24    0.20
  -3  -4   7    6.79    0.28
  -3  -4   7    7.23    0.20
  -3  -4   7    7.50    0.20
   2   4  -7   14.61    0.31
  -2  -4   7   14.82    0.44
  -2  -4   7   14.68    0.33
  -2  -4   7   15.07    0.39
  -2  -4   7   14.63    0.33
  -2  -4   7   14.63    0.32
  -1  -4   7   22.98    0.61
  -1  -4   7   23.19    0.47
  -1  -4   7   23.03    0.47
  -1  -4   7   23.33    0.46
  -1  -4   7   22.77    0.55
   0   4  -7    7.32    0.17
   0  -4   7    7.08    0.16
   0  -4   7    7.37    0.29
   0  -4   7    6.87    0.24
   1  -4   7    0.12    0.06
   1  -4   7    0.11    0.07
  -2   4  -7    0.12    0.03
   2  -4   7    0.14    0.02
   2  -4   7    0.09    0.05
  -3   4  -7    0.99    0.06
   3  -4   7    1.11    0.06
   3  -4   7    1.12    0.11
   3  -4   7    1.10    0.05
   3  -4   7    1.07    0.06
  -4   4  -7    0.01    0.03
   4  -4   7    0.06    0.03
   4  -4   7    0.08    0.03
   4  -4   7    0.07    0.03
   4  -4   7    0.12    0.06
  -5   4  -7    0.45    0.06
   5  -4   7    0.34    0.05
   5  -4   7    0.49    0.06
   5  -4   7    0.42    0.06
   5  -4   7    0.50    0.08
   7   3  -7    0.96    0.11
  -7  -3   7    0.97    0.11
  -7  -3   7    1.03    0.15
  -7  -3   7    1.02    0.11
  -7  -3   7    0.71    0.22
  -7  -3   7    1.08    0.11
  -7  -3   7    0.95    0.08
  -7  -3   7    0.61    0.21
   6   3  -7    1.44    0.11
  -6  -3   7    1.79    0.09
  -6  -3   7    1.60    0.12
  -6  -3   7    1.45    0.23
  -6  -3   7    1.39    0.23
  -6  -3   7    1.68    0.12
  -6  -3   7    1.55    0.16
  -6  -3   7    1.57    0.11
   5   3  -7    0.37    0.06
  -5  -3   7    0.35    0.09
  -5  -3   7    0.42    0.06
  -5  -3   7    0.39    0.06
  -5  -3   7    0.42    0.06
  -5  -3   7    0.36    0.04
   4   3  -7    1.35    0.08
  -4  -3   7    1.49    0.10
  -4  -3   7    1.22    0.13
  -4  -3   7    1.07    0.08
  -4  -3   7    1.24    0.08
  -4  -3   7    1.22    0.09
   3   3  -7   12.27    0.29
  -3  -3   7   12.34    0.29
  -3  -3   7   12.68    0.40
  -3  -3   7   13.05    0.30
  -3  -3   7   12.67    0.34
  -3  -3   7   12.51    0.29
   2   3  -7   35.37    0.70
  -2  -3   7   35.52    0.71
  -2  -3   7   35.14    0.77
  -2  -3   7   35.96    0.71
  -2  -3   7   35.50    0.84
  -2  -3   7   35.03    0.70
   1   3  -7    8.94    0.20
  -1  -3   7    8.73    0.26
  -1  -3   7    8.81    0.19
  -1  -3   7    8.73    0.31
  -1  -3   7    8.71    0.19
  -1  -3   7    8.89    0.20
  -1  -3   7    8.78    0.19
   0  -3   7   19.80    0.54
   0  -3   7   19.40    0.48
   1  -3   7   19.95    0.49
   1  -3   7   19.88    0.55
   2  -3   7    4.60    0.18
   2  -3   7    4.65    0.23
  -3   3  -7   10.37    0.23
   3  -3   7   10.10    0.23
   3  -3   7   10.41    0.22
   3  -3   7   10.27    0.31
   3  -3   7   10.31    0.23
  -4   3  -7    1.43    0.08
   4  -3   7    1.49    0.07
   4  -3   7    1.40    0.07
   4  -3   7    1.44    0.12
   4  -3   7    1.49    0.07
  -5   3  -7    2.89    0.12
   5  -3   7    2.80    0.11
   5  -3   7    3.17    0.16
   5  -3   7    2.98    0.11
   5  -3   7    2.86    0.12
  -6   3  -7    3.63    0.15
   6  -3   7    3.57    0.14
   6  -3   7    3.67    0.14
   6  -3   7    3.58    0.17
   6  -3   7    3.68    0.15
   7   2  -7    3.28    0.16
   7   2  -7    2.91    0.16
  -7  -2   7    2.91    0.38
  -7  -2   7    2.72    0.15
  -7  -2   7    2.93    0.16
  -7  -2   7    2.74    0.16
  -7  -2   7    2.81    0.16
  -7  -2   7    2.86    0.13
  -7  -2   7    3.22    0.22
  -7  -2   7    3.05    0.40
   6   2  -7    0.97    0.10
   6   2  -7    0.95    0.10
  -6  -2   7    1.00    0.10
  -6  -2   7    0.99    0.08
  -6  -2   7    0.86    0.22
  -6  -2   7    0.87    0.23
  -6  -2   7    0.89    0.13
  -6  -2   7    1.02    0.10
  -6  -2   7    0.87    0.09
   5   2  -7    2.12    0.11
  -5  -2   7    2.07    0.11
  -5  -2   7    2.29    0.12
  -5  -2   7    2.16    0.24
  -5  -2   7    2.18    0.17
  -5  -2   7    2.23    0.23
  -5  -2   7    2.27    0.09
  -5  -2   7    2.30    0.12
   4   2  -7    5.23    0.17
  -4  -2   7    5.15    0.17
  -4  -2   7    5.36    0.13
  -4  -2   7    5.52    0.17
  -4  -2   7    5.17    0.17
  -4  -2   7    4.75    0.23
   3   2  -7   12.51    0.29
  -3  -2   7   12.47    0.30
  -3  -2   7   12.51    0.29
  -3  -2   7   12.31    0.29
  -3  -2   7   12.51    0.39
  -3  -2   7   12.88    0.33
   2   2  -7    2.00    0.08
  -2  -2   7    1.97    0.08
  -2  -2   7    2.07    0.11
  -2  -2   7    2.12    0.15
  -2  -2   7    1.98    0.08
  -2  -2   7    2.01    0.08
   1   2  -7    8.29    0.19
  -1  -2   7    8.41    0.19
  -1  -2   7    8.45    0.18
  -1  -2   7    8.34    0.18
  -1  -2   7    8.27    0.25
  -1  -2   7    8.44    0.18
  -1  -2   7    8.40    0.30
   0  -2   7   14.28    0.37
   0  -2   7   14.22    0.42
   1  -2   7    4.83    0.18
   1  -2   7    4.83    0.22
   2  -2   7    2.85    0.14
   2  -2   7    3.10    0.18
  -3   2  -7    0.83    0.05
   3  -2   7    0.83    0.05
   3  -2   7    0.77    0.09
   3  -2   7    0.94    0.04
   3  -2   7    0.92    0.05
   3  -2   7    0.84    0.04
  -4   2  -7    4.67    0.14
   4  -2   7    4.86    0.13
   4  -2   7    4.84    0.14
   4  -2   7    4.96    0.14
   4  -2   7    5.10    0.19
  -5   2  -7    4.17    0.15
   5  -2   7    4.00    0.14
   5  -2   7    4.03    0.14
   5  -2   7    4.16    0.13
   5  -2   7    4.28    0.18
  -6   2  -7    1.60    0.10
   6  -2   7    1.67    0.10
   6  -2   7    1.54    0.09
   6  -2   7    1.68    0.12
   6  -2   7    1.63    0.10
  -7   2  -7    0.34    0.07
   7  -2   7    0.33    0.06
   7  -2   7    0.24    0.05
   7  -2   7    0.42    0.06
   7   1  -7   -0.03    0.04
   7   1  -7    0.12    0.06
  -7  -1   7   -0.01    0.05
  -7  -1   7    0.08    0.06
  -7  -1   7    0.06    0.05
  -7  -1   7    0.08    0.08
  -7  -1   7    0.10    0.06
  -7  -1   7    0.07    0.06
  -7  -1   7    0.05    0.05
  -7  -1   7    0.05    0.14
  -7  -1   7   -0.01    0.04
  -7  -1   7   -0.01    0.12
   6   1  -7    0.08    0.05
   6   1  -7    0.09    0.05
  -6  -1   7    0.13    0.05
  -6  -1   7    0.09    0.04
  -6  -1   7    0.09    0.04
  -6  -1   7    0.08    0.05
  -6  -1   7    0.08    0.05
  -6  -1   7    0.24    0.16
  -6  -1   7    0.17    0.15
  -6  -1   7    0.19    0.05
  -6  -1   7    0.15    0.08
  -6  -1   7    0.19    0.05
  -6  -1   7    0.18    0.05
   5   1  -7    2.09    0.11
   5   1  -7    2.06    0.11
  -5  -1   7    1.94    0.11
  -5  -1   7    1.99    0.27
  -5  -1   7    1.65    0.11
  -5  -1   7    1.98    0.08
  -5  -1   7    1.96    0.26
  -5  -1   7    2.07    0.09
  -5  -1   7    2.03    0.11
  -5  -1   7    1.87    0.11
  -5  -1   7    2.17    0.17
   4   1  -7    0.11    0.04
   4   1  -7    0.08    0.04
  -4  -1   7    0.09    0.03
  -4  -1   7    0.12    0.07
  -4  -1   7    0.07    0.04
  -4  -1   7    0.07    0.04
  -4  -1   7    0.09    0.04
  -4  -1   7    0.25    0.10
  -4  -1   7    0.20    0.09
   3   1  -7    0.17    0.04
  -3  -1   7    0.23    0.08
  -3  -1   7    0.15    0.04
  -3  -1   7    0.17    0.04
  -3  -1   7    0.17    0.04
   2   1  -7   20.92    0.44
  -2  -1   7   21.64    0.56
  -2  -1   7   21.44    0.44
  -2  -1   7   21.70    0.45
  -2  -1   7   20.51    0.44
   1   1  -7    4.85    0.11
  -1  -1   7    4.40    0.17
  -1  -1   7    4.79    0.12
  -1  -1   7    4.85    0.12
  -1  -1   7    4.60    0.12
  -1  -1   7    4.64    0.21
  -1  -1   7    4.66    0.12
   0  -1   7    4.54    0.21
   0  -1   7    4.86    0.17
   1  -1   7    0.32    0.07
   1  -1   7    0.22    0.05
  -2   1  -7   15.62    0.34
   2  -1   7   15.32    0.38
   2  -1   7   15.05    0.44
  -3   1  -7    0.17    0.04
  -3   1  -7    0.19    0.03
   3  -1   7    0.13    0.02
   3  -1   7    0.25    0.08
   3  -1   7    0.15    0.02
   3  -1   7    0.19    0.02
   3  -1   7    0.17    0.03
   3  -1   7    0.15    0.05
  -4   1  -7    8.99    0.23
   4  -1   7    9.31    0.22
   4  -1   7    9.50    0.27
   4  -1   7    9.41    0.22
   4  -1   7    9.21    0.22
  -5   1  -7    3.14    0.12
   5  -1   7    3.50    0.15
   5  -1   7    3.22    0.12
   5  -1   7    3.13    0.12
   5  -1   7    3.32    0.12
  -6   1  -7    0.61    0.07
   6  -1   7    0.71    0.07
   6  -1   7    0.61    0.06
   6  -1   7    0.73    0.08
   6  -1   7    0.65    0.07
  -7   1  -7    0.37    0.07
   7  -1   7    0.30    0.06
   7  -1   7    0.27    0.06
   7  -1   7    0.25    0.05
   7   0  -7    5.52    0.22
   7   0  -7    5.62    0.23
  -7   0   7    5.44    0.25
  -7   0   7    5.64    0.23
  -7   0   7    5.62    0.20
  -7   0   7    5.72    0.20
  -7   0   7    5.39    0.20
  -7   0   7    5.61    0.22
  -7   0   7    6.06    0.57
  -7   0   7    5.81    0.22
  -7   0   7    5.59    0.25
  -7   0   7    5.64    0.15
  -7   0   7    5.61    0.15
   6   0  -7    2.55    0.14
   6   0  -7    2.55    0.14
  -6   0   7    2.52    0.19
  -6   0   7    2.46    0.12
  -6   0   7    2.60    0.14
  -6   0   7    2.42    0.12
  -6   0   7    2.50    0.12
  -6   0   7    2.63    0.14
  -6   0   7    2.72    0.15
  -6   0   7    2.63    0.15
  -6   0   7    2.31    0.15
  -6   0   7    2.19    0.34
  -6   0   7    2.45    0.36
   5   0  -7   13.96    0.36
   5   0  -7   13.40    0.36
  -5   0   7   13.70    0.33
  -5   0   7   13.59    0.33
  -5   0   7   15.32    0.73
  -5   0   7   15.01    0.36
  -5   0   7   13.69    0.36
  -5   0   7   14.20    0.36
  -5   0   7   13.49    0.36
  -5   0   7   14.18    0.45
  -5   0   7   15.14    0.73
  -5   0   7   13.72    0.33
  -5   0   7   13.21    0.36
   4   0  -7   10.80    0.28
   4   0  -7   10.65    0.28
  -4   0   7   10.85    0.29
  -4   0   7   10.62    0.28
  -4   0   7   10.66    0.52
  -4   0   7   10.93    0.53
  -4   0   7   10.63    0.25
  -4   0   7   10.42    0.28
  -4   0   7   11.05    0.25
  -4   0   7   10.71    0.36
   3   0  -7    4.11    0.14
   3   0  -7    4.23    0.14
  -3   0   7    4.18    0.14
  -3   0   7    4.32    0.11
  -3   0   7    4.36    0.14
  -3   0   7    4.07    0.14
  -3   0   7    4.11    0.21
  -3   0   7    4.15    0.14
   2   0  -7   16.50    0.36
   2   0  -7   16.46    0.36
  -2   0   7   16.66    0.36
  -2   0   7   16.08    0.36
  -2   0   7   16.12    0.46
  -2   0   7   16.21    0.36
  -2   0   7   16.71    0.36
   1   0  -7    0.13    0.02
  -1   0   7    0.14    0.03
  -1   0   7    0.14    0.03
  -1   0   7    0.14    0.02
  -1   0   7    0.19    0.03
  -1   0   7    0.12    0.02
  -1   0   7    0.15    0.06
   0   0   7    0.05    0.02
   0   0   7    0.05    0.02
   0   0   7    0.08    0.05
   0   0   7    0.08    0.02
   0   0   7    0.05    0.01
   0   0   7    0.06    0.02
   0   0   7    0.07    0.04
   1   0   7    9.47    0.20
   1   0   7    9.67    0.26
   1   0   7    9.62    0.31
   1   0   7    9.50    0.20
   1   0   7    9.34    0.20
  -2   0  -7    0.60    0.03
  -2   0  -7    0.55    0.06
   2   0   7    0.54    0.03
   2   0   7    0.57    0.03
   2   0   7    0.53    0.03
   2   0   7    0.53    0.03
   2   0   7    0.60    0.09
   2   0   7    0.58    0.03
   2   0   7    0.62    0.07
  -3   0  -7    1.51    0.07
  -3   0  -7    1.71    0.09
   3   0   7    1.60    0.07
   3   0   7    1.65    0.06
   3   0   7    1.73    0.10
   3   0   7    1.68    0.06
   3   0   7    1.66    0.06
   3   0   7    1.71    0.14
  -4   0  -7    9.50    0.24
  -4   0  -7    9.93    0.25
   4   0   7    9.45    0.23
   4   0   7    9.62    0.23
   4   0   7    9.78    0.27
   4   0   7    9.81    0.23
  -5   0  -7   10.95    0.28
  -5   0  -7   10.01    0.27
   5   0   7   10.40    0.26
   5   0   7   10.89    0.29
   5   0   7   10.46    0.26
   5   0   7   10.30    0.26
  -6   0  -7    0.09    0.04
  -6   0  -7    0.09    0.04
   6   0   7    0.07    0.04
   6   0   7    0.09    0.04
   6   0   7    0.14    0.05
   6   0   7    0.06    0.04
  -7   0  -7    0.05    0.04
   7   0   7    0.01    0.04
   7   0   7   -0.02    0.04
   7   0   7    0.11    0.04
  -8   0  -7    1.40    0.12
   8   0   7    1.52    0.11
   8   0   7    1.51    0.07
   8   0   7    1.44    0.11
   8   0   7    1.48    0.11
   7  -1  -7    0.13    0.06
   7  -1  -7    0.05    0.06
   7  -1  -7    0.01    0.06
  -7   1   7    0.05    0.06
  -7   1   7    0.01    0.06
  -7   1   7    0.00    0.06
  -7   1   7    0.01    0.05
  -7   1   7    0.06    0.05
  -7   1   7    0.03    0.15
  -7   1   7    0.04    0.05
  -7   1   7    0.05    0.05
  -7   1   7    0.13    0.05
  -7   1   7    0.05    0.04
  -7   1   7    0.08    0.05
   6  -1  -7    0.10    0.05
   6  -1  -7    0.05    0.05
   6  -1  -7    0.14    0.05
  -6   1   7    0.12    0.06
  -6   1   7    0.15    0.05
  -6   1   7    0.14    0.03
  -6   1   7    0.13    0.05
  -6   1   7    0.13    0.05
  -6   1   7    0.04    0.12
  -6   1   7    0.19    0.05
  -6   1   7    0.06    0.06
  -6   1   7    0.17    0.06
  -6   1   7    0.08    0.03
  -6   1   7    0.06    0.05
   5  -1  -7    0.01    0.04
   5  -1  -7    0.03    0.04
   5  -1  -7   -0.01    0.04
  -5   1   7   -0.01    0.03
  -5   1   7    0.01    0.03
  -5   1   7    0.08    0.05
  -5   1   7   -0.02    0.09
  -5   1   7   -0.07    0.03
  -5   1   7    0.00    0.04
  -5   1   7   -0.01    0.04
  -5   1   7    0.02    0.02
  -5   1   7    0.06    0.12
  -5   1   7    0.02    0.04
  -5   1   7    0.00    0.02
  -5   1   7    0.02    0.04
   4  -1  -7    3.14    0.14
   4  -1  -7    3.37    0.14
   4  -1  -7    3.10    0.15
  -4   1   7    3.20    0.14
  -4   1   7    3.29    0.33
  -4   1   7    3.34    0.14
  -4   1   7    3.12    0.12
  -4   1   7    3.27    0.12
  -4   1   7    3.26    0.19
  -4   1   7    3.05    0.13
  -4   1   7    3.12    0.13
  -4   1   7    3.36    0.12
  -4   1   7    3.41    0.33
  -4   1   7    3.42    0.14
   3  -1  -7    2.94    0.12
   3  -1  -7    2.94    0.12
  -3   1   7    3.00    0.10
  -3   1   7    2.46    0.16
  -3   1   7    2.98    0.12
  -3   1   7    2.97    0.09
  -3   1   7    3.00    0.12
  -3   1   7    2.23    0.24
  -3   1   7    3.14    0.12
  -3   1   7    2.93    0.10
   2  -1  -7   21.22    0.45
   2  -1  -7   20.86    0.45
  -2   1   7   20.59    0.45
  -2   1   7   20.72    0.44
  -2   1   7   20.36    0.45
  -2   1   7   20.71    0.42
  -2   1   7   20.73    0.54
   1  -1  -7   14.15    0.32
   1  -1  -7   14.64    0.32
  -1   1   7   14.16    0.41
  -1   1   7   14.60    0.32
  -1   1   7   14.20    0.31
  -1   1   7   14.52    0.32
  -1   1   7   14.72    0.31
   0  -1  -7    0.35    0.03
   0   1   7    0.33    0.03
   0   1   7    0.29    0.07
   0   1   7    0.34    0.03
   0   1   7    0.34    0.03
   0   1   7    0.36    0.03
  -1  -1  -7    0.81    0.04
   1   1   7    0.78    0.04
   1   1   7    0.85    0.04
   1   1   7    0.78    0.04
   1   1   7    0.83    0.04
   1   1   7    0.76    0.09
   1   1   7    0.83    0.04
  -2  -1  -7    7.74    0.18
  -2  -1  -7    8.08    0.22
   2   1   7    8.11    0.27
   2   1   7    7.91    0.18
   2   1   7    7.74    0.18
   2   1   7    7.89    0.18
   2   1   7    7.82    0.18
  -3  -1  -7    7.12    0.20
  -3  -1  -7    7.41    0.18
   3   1   7    7.27    0.26
   3   1   7    7.17    0.18
   3   1   7    7.28    0.18
   3   1   7    7.41    0.18
  -4  -1  -7    5.45    0.18
  -4  -1  -7    5.07    0.16
   4   1   7    5.69    0.15
   4   1   7    5.53    0.15
   4   1   7    5.57    0.15
   4   1   7    5.16    0.23
  -5  -1  -7    3.78    0.14
  -5  -1  -7    3.83    0.15
   5   1   7    3.63    0.13
   5   1   7    3.44    0.13
   5   1   7    3.55    0.13
  -6  -1  -7    0.04    0.04
  -6  -1  -7   -0.03    0.04
   6   1   7    0.00    0.03
   6   1   7    0.04    0.02
   6   1   7    0.00    0.03
   6   1   7    0.03    0.03
  -7  -1  -7    0.84    0.09
  -7  -1  -7    0.80    0.09
   7   1   7    0.91    0.06
   7   1   7    0.80    0.08
   7   1   7    0.78    0.08
   7   1   7    0.82    0.08
  -8  -1  -7    0.47    0.08
  -8  -1  -7    0.41    0.07
   8   1   7    0.39    0.13
   8   1   7    0.42    0.14
   8   1   7    0.55    0.06
   8   1   7    0.35    0.07
   8   1   7    0.44    0.07
   8   1   7    0.32    0.07
   7  -2  -7    1.16    0.12
   7  -2  -7    1.17    0.12
   7  -2  -7    1.08    0.12
  -7   2   7    1.22    0.11
  -7   2   7    1.10    0.11
  -7   2   7    1.12    0.11
  -7   2   7    1.08    0.09
  -7   2   7    1.17    0.12
  -7   2   7    1.03    0.11
  -7   2   7    0.89    0.11
  -7   2   7    1.14    0.12
  -7   2   7    0.87    0.14
   6  -2  -7    2.45    0.15
   6  -2  -7    2.51    0.14
   6  -2  -7    2.43    0.14
  -6   2   7    2.40    0.14
  -6   2   7    2.57    0.14
  -6   2   7    2.36    0.15
  -6   2   7    2.23    0.14
  -6   2   7    3.03    0.43
  -6   2   7    2.60    0.11
  -6   2   7    2.54    0.13
  -6   2   7    2.35    0.13
  -6   2   7    2.47    0.14
  -6   2   7    2.76    0.19
  -6   2   7    2.67    0.18
   5  -2  -7    0.62    0.08
   5  -2  -7    0.48    0.07
   5  -2  -7    0.51    0.07
  -5   2   7    0.65    0.07
  -5   2   7    0.62    0.06
  -5   2   7    0.63    0.07
  -5   2   7    0.62    0.05
  -5   2   7    0.39    0.19
  -5   2   7    0.40    0.19
  -5   2   7    0.57    0.07
  -5   2   7    0.75    0.08
  -5   2   7    0.64    0.08
  -5   2   7    0.65    0.08
  -5   2   7    0.54    0.09
  -5   2   7    0.54    0.09
  -5   2   7    0.66    0.08
   4  -2  -7    0.67    0.08
   4  -2  -7    0.67    0.07
   4  -2  -7    0.75    0.08
  -4   2   7    0.71    0.07
  -4   2   7    0.77    0.08
  -4   2   7    0.66    0.07
  -4   2   7    0.78    0.10
  -4   2   7    1.12    0.24
  -4   2   7    0.92    0.24
  -4   2   7    0.72    0.08
  -4   2   7    0.71    0.07
  -4   2   7    0.71    0.05
  -4   2   7    0.70    0.07
  -4   2   7    0.74    0.08
  -4   2   7    0.77    0.09
  -4   2   7    0.72    0.05
   3  -2  -7   32.31    0.69
   3  -2  -7   33.46    0.69
   3  -2  -7   33.25    0.69
  -3   2   7   33.24    0.66
  -3   2   7   31.82    0.70
  -3   2   7   32.22    0.69
  -3   2   7   31.52    0.70
  -3   2   7   34.06    0.67
  -3   2   7   32.83    0.67
  -3   2   7   32.73    0.70
  -3   2   7   33.51    0.69
  -3   2   7   29.98    1.06
  -3   2   7   32.87    0.69
  -3   2   7   31.79    1.08
   2  -2  -7    3.78    0.13
   2  -2  -7    3.84    0.13
   2  -2  -7    3.86    0.13
  -2   2   7    3.78    0.13
  -2   2   7    3.71    0.13
  -2   2   7    3.74    0.11
  -2   2   7    3.49    0.28
  -2   2   7    3.79    0.11
  -2   2   7    3.59    0.28
  -2   2   7    3.60    0.18
  -2   2   7    3.99    0.11
  -2   2   7    3.74    0.13
   1  -2  -7    4.24    0.14
   1  -2  -7    4.17    0.13
  -1   2   7    4.43    0.11
  -1   2   7    4.03    0.19
  -1   2   7    4.34    0.13
  -1   2   7    4.39    0.24
  -1   2   7    4.45    0.12
  -1   2   7    4.35    0.24
  -1   2   7    4.46    0.13
  -1   2   7    4.30    0.10
  -1   2   7    4.52    0.11
  -1   2   7    4.31    0.13
   0  -2  -7    1.77    0.07
   0   2   7    1.56    0.07
   0   2   7    1.71    0.05
   0   2   7    1.61    0.07
   0   2   7    1.72    0.05
   0   2   7    1.70    0.07
  -1  -2  -7    1.88    0.08
   1   2   7    1.82    0.07
   1   2   7    1.91    0.07
   1   2   7    1.87    0.07
   1   2   7    1.94    0.13
  -2  -2  -7   36.44    0.74
   2   2   7   36.57    0.83
   2   2   7   37.60    0.73
   2   2   7   36.68    0.73
   2   2   7   36.69    0.73
  -3  -2  -7   11.71    0.29
  -3  -2  -7   11.16    0.27
   3   2   7   11.23    0.26
   3   2   7   11.49    0.26
   3   2   7   10.92    0.26
   3   2   7   11.17    0.34
  -4  -2  -7    0.00    0.04
  -4  -2  -7    0.04    0.03
  -4  -2  -7    0.05    0.03
   4   2   7    0.06    0.02
   4   2   7    0.00    0.03
   4   2   7    0.03    0.02
   4   2   7    0.02    0.03
   4   2   7    0.01    0.03
   4   2   7    0.06    0.05
  -5  -2  -7    7.15    0.21
  -5  -2  -7    7.00    0.21
  -5  -2  -7    7.18    0.22
   5   2   7    7.04    0.20
   5   2   7    7.20    0.17
   5   2   7    7.04    0.20
   5   2   7    7.14    0.20
  -6  -2  -7    5.74    0.20
  -6  -2  -7    6.10    0.21
   6   2   7    6.14    0.19
   6   2   7    5.42    0.34
   6   2   7    6.12    0.16
   6   2   7    5.39    0.32
   6   2   7    5.87    0.19
   6   2   7    6.18    0.19
  -7  -2  -7    1.25    0.11
  -7  -2  -7    1.34    0.12
   7   2   7    1.29    0.08
   7   2   7    1.26    0.10
   7   2   7    1.13    0.10
   7   2   7    1.20    0.10
   7   2   7    0.89    0.20
   7   2   7    1.07    0.20
  -8  -2  -7    1.02    0.11
  -8  -2  -7    0.93    0.10
   8   2   7    0.97    0.21
   8   2   7    0.88    0.09
   8   2   7    1.22    0.25
   8   2   7    1.11    0.08
   8   2   7    1.17    0.11
   8   2   7    0.96    0.10
   7  -3  -7    0.02    0.06
   7  -3  -7   -0.01    0.06
   7  -3  -7    0.19    0.07
  -7   3   7    0.12    0.06
  -7   3   7    0.13    0.06
  -7   3   7    0.15    0.06
  -7   3   7   -0.01    0.06
  -7   3   7    0.08    0.06
  -7   3   7    0.07    0.06
  -7   3   7    0.05    0.05
   6  -3  -7    0.10    0.06
   6  -3  -7    0.14    0.06
   6  -3  -7    0.06    0.06
  -6   3   7    0.07    0.06
  -6   3   7    0.07    0.05
  -6   3   7    0.15    0.06
  -6   3   7    0.06    0.07
  -6   3   7    0.15    0.06
  -6   3   7    0.05    0.05
  -6   3   7    0.07    0.04
  -6   3   7    0.11    0.05
   5  -3  -7    0.04    0.05
   5  -3  -7   -0.03    0.04
   5  -3  -7    0.01    0.05
  -5   3   7    0.02    0.04
  -5   3   7    0.05    0.05
  -5   3   7    0.02    0.04
  -5   3   7    0.01    0.03
  -5   3   7    0.06    0.05
  -5   3   7    0.00    0.04
  -5   3   7    0.02    0.06
  -5   3   7    0.07    0.13
  -5   3   7    0.07    0.06
  -5   3   7    0.03    0.04
   4  -3  -7    1.48    0.10
   4  -3  -7    1.41    0.10
   4  -3  -7    1.53    0.10
  -4   3   7    1.46    0.07
  -4   3   7    1.06    0.12
  -4   3   7    1.56    0.10
  -4   3   7    1.54    0.11
  -4   3   7    1.37    0.10
  -4   3   7    1.28    0.12
  -4   3   7    1.02    0.26
  -4   3   7    1.48    0.10
  -4   3   7    1.63    0.10
  -4   3   7    1.51    0.10
  -4   3   7    1.23    0.07
   3  -3  -7    8.26    0.24
   3  -3  -7    8.50    0.24
   3  -3  -7    8.31    0.25
  -3   3   7    8.56    0.23
  -3   3   7    8.74    0.20
  -3   3   7    8.98    0.56
  -3   3   7    8.64    0.23
  -3   3   7    8.54    0.28
  -3   3   7    8.68    0.24
  -3   3   7    8.48    0.23
  -3   3   7    9.05    0.28
  -3   3   7    8.40    0.20
  -3   3   7    8.92    0.56
  -3   3   7    8.19    0.24
  -3   3   7    8.48    0.24
   2  -3  -7    6.52    0.20
   2  -3  -7    6.96    0.20
  -2   3   7    6.84    0.18
  -2   3   7    7.07    0.18
  -2   3   7    6.77    0.20
  -2   3   7    6.48    0.43
  -2   3   7    6.89    0.22
  -2   3   7    6.51    0.25
  -2   3   7    6.70    0.18
  -2   3   7    6.80    0.19
  -2   3   7    6.70    0.21
  -2   3   7    6.91    0.20
  -2   3   7    6.18    0.42
   1  -3  -7    0.00    0.03
   1  -3  -7    0.00    0.03
  -1   3   7    0.01    0.02
  -1   3   7    0.00    0.02
  -1   3   7   -0.03    0.04
  -1   3   7    0.00    0.02
  -1   3   7    0.05    0.03
  -1   3   7    0.04    0.03
  -1   3   7    0.04    0.02
  -1   3   7   -0.01    0.08
  -1   3   7   -0.01    0.02
  -1   3   7    0.03    0.03
  -1   3   7    0.01    0.07
   0  -3  -7    3.87    0.13
   0  -3  -7    3.89    0.13
   0  -3  -7    3.94    0.13
   0   3   7    3.98    0.11
   0   3   7    4.02    0.13
   0   3   7    3.90    0.26
   0   3   7    3.85    0.11
   0   3   7    3.91    0.13
   0   3   7    3.88    0.26
   0   3   7    3.99    0.11
   0   3   7    4.00    0.12
   0   3   7    3.95    0.18
  -1  -3  -7    0.92    0.06
  -1  -3  -7    1.04    0.06
   1   3   7    1.08    0.06
   1   3   7    0.87    0.09
   1   3   7    0.99    0.06
   1   3   7    0.90    0.05
   1   3   7    0.94    0.13
   1   3   7    0.92    0.13
   1   3   7    0.95    0.04
   1   3   7    1.04    0.06
   1   3   7    0.91    0.06
   1   3   7    0.94    0.05
   1   3   7    1.00    0.05
  -2  -3  -7    0.11    0.03
  -2  -3  -7    0.08    0.03
   2   3   7    0.06    0.03
   2   3   7    0.11    0.02
   2   3   7    0.11    0.02
   2   3   7    0.08    0.03
   2   3   7    0.15    0.07
   2   3   7    0.12    0.02
   2   3   7    0.09    0.02
   2   3   7    0.11    0.03
   2   3   7    0.10    0.05
  -3  -3  -7    2.18    0.10
  -3  -3  -7    2.17    0.11
   3   3   7    1.87    0.18
   3   3   7    2.15    0.07
   3   3   7    2.22    0.07
   3   3   7    2.19    0.09
   3   3   7    2.01    0.13
   3   3   7    1.80    0.17
   3   3   7    2.19    0.09
   3   3   7    2.25    0.06
   3   3   7    2.14    0.09
  -4  -3  -7   23.41    0.55
  -4  -3  -7   24.63    0.54
   4   3   7   25.10    0.49
   4   3   7   24.41    0.52
   4   3   7   23.83    0.50
   4   3   7   24.79    0.77
   4   3   7   24.15    0.52
   4   3   7   24.54    0.49
   4   3   7   23.64    0.52
   4   3   7   25.14    0.60
   4   3   7   24.61    0.75
  -5  -3  -7    2.48    0.12
  -5  -3  -7    2.73    0.12
  -5  -3  -7    2.61    0.13
   5   3   7    2.74    0.12
   5   3   7    2.57    0.11
   5   3   7    2.52    0.11
   5   3   7    2.51    0.09
   5   3   7    2.57    0.09
   5   3   7    2.29    0.24
   5   3   7    2.47    0.24
  -6  -3  -7    1.84    0.12
  -6  -3  -7    1.67    0.11
  -6  -3  -7    1.86    0.11
   6   3   7    1.61    0.23
   6   3   7    1.65    0.10
   6   3   7    1.97    0.26
   6   3   7    1.77    0.11
   6   3   7    1.64    0.10
   6   3   7    1.69    0.09
   6   3   7    1.58    0.08
  -7  -3  -7    1.88    0.13
  -7  -3  -7    2.07    0.13
  -7  -3  -7    2.02    0.12
   7   3   7    1.90    0.27
   7   3   7    1.92    0.09
   7   3   7    1.89    0.12
   7   3   7    2.39    0.32
   7   3   7    1.86    0.12
   7   3   7    1.87    0.12
   7   3   7    1.85    0.10
  -8  -3  -7    3.83    0.17
  -8  -3  -7    3.44    0.18
  -8  -3  -7    3.48    0.18
   8   3   7    3.58    0.17
   8   3   7    3.90    0.15
   8   3   7    3.86    0.17
   8   3   7    3.93    0.17
   8   3   7    3.61    0.41
   8   3   7    3.73    0.39
   6  -4  -7    0.14    0.06
   6  -4  -7   -0.06    0.05
   6  -4  -7    0.04    0.06
  -6   4   7    0.05    0.06
  -6   4   7    0.10    0.05
  -6   4   7    0.02    0.05
  -6   4   7    0.05    0.06
  -6   4   7    0.12    0.06
  -6   4   7    0.05    0.05
  -6   4   7    0.15    0.06
   5  -4  -7   12.38    0.36
   5  -4  -7   12.11    0.35
   5  -4  -7   12.33    0.35
  -5   4   7   12.38    0.35
  -5   4   7   12.47    0.35
  -5   4   7   11.96    0.32
  -5   4   7   12.45    0.34
  -5   4   7   12.25    0.35
  -5   4   7   12.16    0.34
  -5   4   7   12.57    0.34
  -5   4   7   12.28    0.43
   4  -4  -7   32.67    0.72
   4  -4  -7   32.54    0.72
  -4   4   7   32.34    0.70
  -4   4   7   32.05    0.70
  -4   4   7   31.97    0.71
  -4   4   7   31.83    1.30
  -4   4   7   32.05    0.71
  -4   4   7   32.41    0.72
  -4   4   7   32.51    0.68
  -4   4   7   32.09    0.80
  -4   4   7   32.06    0.70
  -4   4   7   32.28    0.80
   3  -4  -7    6.39    0.21
   3  -4  -7    6.20    0.21
  -3   4   7    6.30    0.20
  -3   4   7    6.28    0.21
  -3   4   7    6.23    0.19
  -3   4   7    6.14    0.19
  -3   4   7    6.43    0.20
  -3   4   7    6.15    0.20
  -3   4   7    6.74    0.26
  -3   4   7    6.40    0.51
  -3   4   7    6.38    0.17
  -3   4   7    6.17    0.51
  -3   4   7    6.08    0.25
  -3   4   7    6.14    0.18
   2  -4  -7    9.13    0.25
   2  -4  -7    8.70    0.26
   2  -4  -7    8.75    0.25
  -2   4   7    9.06    0.22
  -2   4   7    8.75    0.25
  -2   4   7    9.04    0.22
  -2   4   7    9.09    0.24
  -2   4   7    8.80    0.25
  -2   4   7    9.45    0.32
  -2   4   7    8.87    0.25
  -2   4   7    9.69    0.30
  -2   4   7    9.12    0.29
  -2   4   7    9.47    0.57
  -2   4   7    8.62    0.23
  -2   4   7   10.47    0.61
  -2   4   7    8.63    0.24
   1  -4  -7    3.50    0.14
   1  -4  -7    3.45    0.13
   1  -4  -7    3.49    0.13
  -1   4   7    3.65    0.12
  -1   4   7    3.24    0.13
  -1   4   7    3.65    0.18
  -1   4   7    3.94    0.35
  -1   4   7    3.51    0.10
  -1   4   7    3.98    0.16
  -1   4   7    3.35    0.13
  -1   4   7    3.66    0.12
  -1   4   7    3.44    0.15
  -1   4   7    3.62    0.10
  -1   4   7    3.43    0.13
  -1   4   7    3.31    0.12
   0  -4  -7    1.17    0.08
   0  -4  -7    1.04    0.07
   0  -4  -7    1.00    0.07
   0   4   7    1.12    0.08
   0   4   7    1.09    0.06
   0   4   7    1.05    0.06
   0   4   7    1.28    0.11
   0   4   7    1.03    0.20
   0   4   7    1.09    0.19
   0   4   7    1.13    0.07
   0   4   7    1.08    0.07
   0   4   7    1.07    0.08
   0   4   7    0.99    0.07
   0   4   7    1.10    0.07
  -1  -4  -7    1.86    0.10
  -1  -4  -7    1.79    0.09
   1   4   7    1.80    0.09
   1   4   7    1.93    0.09
   1   4   7    1.87    0.08
   1   4   7    2.02    0.08
   1   4   7    1.84    0.09
   1   4   7    1.86    0.08
   1   4   7    1.96    0.09
   1   4   7    1.96    0.23
   1   4   7    1.90    0.12
   1   4   7    1.75    0.08
   1   4   7    2.03    0.24
   1   4   7    1.75    0.09
  -2  -4  -7    4.05    0.14
  -2  -4  -7    4.12    0.15
   2   4   7    4.03    0.13
   2   4   7    3.87    0.17
   2   4   7    4.16    0.12
   2   4   7    3.99    0.31
   2   4   7    3.81    0.30
   2   4   7    4.15    0.12
   2   4   7    4.03    0.12
   2   4   7    4.20    0.13
   2   4   7    4.36    0.14
   2   4   7    4.04    0.13
   2   4   7    3.95    0.14
   2   4   7    3.99    0.13
  -3  -4  -7    0.67    0.07
  -3  -4  -7    0.87    0.07
  -3  -4  -7    0.83    0.07
   3   4   7    0.76    0.06
   3   4   7    0.78    0.06
   3   4   7    0.74    0.17
   3   4   7    0.79    0.06
   3   4   7    0.79    0.07
   3   4   7    0.83    0.06
   3   4   7    0.80    0.07
   3   4   7    0.71    0.06
   3   4   7    0.92    0.18
   3   4   7    0.79    0.09
   3   4   7    0.78    0.05
  -4  -4  -7    7.87    0.22
  -4  -4  -7    7.61    0.21
  -4  -4  -7    7.16    0.23
  -4  -4  -7    7.37    0.22
   4   4   7    6.35    0.43
   4   4   7    7.44    0.21
   4   4   7    7.53    0.21
   4   4   7    6.89    0.44
   4   4   7    7.64    0.19
   4   4   7    7.71    0.19
   4   4   7    7.18    0.25
   4   4   7    6.44    0.43
   4   4   7    7.38    0.21
   4   4   7    7.81    0.21
   4   4   7    7.41    0.19
   4   4   7    7.66    0.21
  -5  -4  -7    1.96    0.11
  -5  -4  -7    1.84    0.11
  -5  -4  -7    1.91    0.12
   5   4   7    2.00    0.27
   5   4   7    1.89    0.09
   5   4   7    1.95    0.10
   5   4   7    2.13    0.09
   5   4   7    1.81    0.10
   5   4   7    1.73    0.26
   5   4   7    2.12    0.09
   5   4   7    1.98    0.10
   5   4   7    2.05    0.11
  -6  -4  -7    8.16    0.25
  -6  -4  -7    8.33    0.27
  -6  -4  -7    8.17    0.26
   6   4   7    8.51    0.22
   6   4   7    8.26    0.23
   6   4   7    8.19    0.25
   6   4   7    9.11    0.58
   6   4   7    8.76    0.23
   6   4   7    8.44    0.25
   6   4   7    8.22    0.25
   6   4   7    8.69    0.55
   6   4   7    8.26    0.25
  -7  -4  -7    6.63    0.24
  -7  -4  -7    6.75    0.24
  -7  -4  -7    7.09    0.23
   7   4   7    6.96    0.20
   7   4   7    6.36    0.53
   7   4   7    6.50    0.51
   7   4   7    6.87    0.23
   7   4   7    6.75    0.21
   7   4   7    6.74    0.20
   7   4   7    6.86    0.23
   7   4   7    6.93    0.24
   7   4   7    6.96    0.23
  -8  -4  -7    4.03    0.18
  -8  -4  -7    3.94    0.19
  -8  -4  -7    3.31    0.18
   8   4   7    3.27    0.40
   8   4   7    3.49    0.17
   8   4   7    3.78    0.15
   8   4   7    3.57    0.17
   8   4   7    4.00    0.18
   8   4   7    3.66    0.18
   8   4   7    3.87    0.15
   6  -5  -7   14.58    0.43
   6  -5  -7   14.30    0.42
  -6   5   7   14.32    0.40
  -6   5   7   14.30    0.40
  -6   5   7   14.83    0.42
  -6   5   7   14.41    0.38
  -6   5   7   14.52    0.41
  -6   5   7   13.98    0.40
  -6   5   7   13.57    0.39
   5  -5  -7    0.10    0.06
   5  -5  -7   -0.02    0.05
   5  -5  -7    0.12    0.07
  -5   5   7    0.10    0.06
  -5   5   7    0.16    0.06
  -5   5   7    0.13    0.06
  -5   5   7    0.13    0.06
  -5   5   7    0.08    0.05
  -5   5   7    0.11    0.05
  -5   5   7    0.15    0.06
   4  -5  -7    1.80    0.12
   4  -5  -7    1.63    0.12
   4  -5  -7    1.81    0.13
  -4   5   7    1.96    0.13
  -4   5   7    1.93    0.12
  -4   5   7    2.09    0.18
  -4   5   7    1.82    0.12
  -4   5   7    1.93    0.12
  -4   5   7    2.02    0.11
  -4   5   7    1.76    0.12
  -4   5   7    1.98    0.12
   3  -5  -7   27.44    0.62
   3  -5  -7   27.29    0.64
   3  -5  -7   26.61    0.62
  -3   5   7   27.50    0.61
  -3   5   7   26.92    0.70
  -3   5   7   26.90    0.62
  -3   5   7   26.52    0.60
  -3   5   7   27.18    0.59
  -3   5   7   27.16    0.70
  -3   5   7   27.50    0.60
  -3   5   7   27.43    1.17
  -3   5   7   27.03    0.60
  -3   5   7   26.73    0.61
   2  -5  -7    1.35    0.10
   2  -5  -7    1.32    0.10
   2  -5  -7    1.28    0.10
  -2   5   7    1.36    0.08
  -2   5   7    1.48    0.09
  -2   5   7    1.29    0.27
  -2   5   7    1.37    0.28
  -2   5   7    1.28    0.12
  -2   5   7    1.23    0.09
  -2   5   7    1.34    0.09
  -2   5   7    1.37    0.09
  -2   5   7    1.20    0.13
  -2   5   7    1.30    0.08
  -2   5   7    1.18    0.09
  -2   5   7    1.27    0.10
   1  -5  -7    7.01    0.22
   1  -5  -7    6.72    0.21
   1  -5  -7    7.23    0.22
  -1   5   7    6.93    0.20
  -1   5   7    7.29    0.51
  -1   5   7    6.79    0.21
  -1   5   7    7.06    0.26
  -1   5   7    7.23    0.26
  -1   5   7    6.81    0.18
  -1   5   7    6.89    0.21
  -1   5   7    7.06    0.20
  -1   5   7    6.82    0.20
  -1   5   7    7.42    0.26
  -1   5   7    7.02    0.19
  -1   5   7    6.73    0.21
   0  -5  -7    0.22    0.05
   0  -5  -7    0.13    0.04
   0  -5  -7    0.08    0.04
   0   5   7    0.21    0.04
   0   5   7    0.13    0.05
   0   5   7    0.17    0.03
   0   5   7    0.10    0.11
   0   5   7    0.19    0.04
   0   5   7    0.16    0.05
   0   5   7    0.11    0.04
   0   5   7    0.16    0.04
   0   5   7    0.15    0.03
   0   5   7    0.15    0.04
   0   5   7    0.12    0.11
   0   5   7    0.23    0.06
   0   5   7    0.14    0.04
  -1  -5  -7    0.24    0.05
  -1  -5  -7    0.28    0.05
   1   5   7    0.31    0.04
   1   5   7    0.30    0.04
   1   5   7    0.24    0.04
   1   5   7    0.26    0.04
   1   5   7    0.20    0.13
   1   5   7    0.20    0.06
   1   5   7    0.25    0.03
   1   5   7    0.35    0.05
   1   5   7    0.29    0.03
   1   5   7    0.23    0.05
   1   5   7    0.32    0.05
   1   5   7    0.25    0.06
   1   5   7    0.22    0.06
   1   5   7    0.26    0.14
  -2  -5  -7    0.67    0.07
  -2  -5  -7    0.53    0.07
   2   5   7    0.57    0.06
   2   5   7    0.65    0.08
   2   5   7    0.59    0.06
   2   5   7    0.57    0.04
   2   5   7    0.59    0.06
   2   5   7    0.68    0.07
   2   5   7    0.56    0.05
   2   5   7    0.61    0.06
   2   5   7    0.67    0.04
   2   5   7    0.62    0.08
   2   5   7    0.76    0.21
   2   5   7    0.76    0.08
   2   5   7    0.87    0.21
   2   5   7    0.62    0.06
  -3  -5  -7    2.08    0.11
  -3  -5  -7    2.04    0.11
  -3  -5  -7    2.03    0.11
   3   5   7    2.15    0.07
   3   5   7    2.07    0.09
   3   5   7    2.04    0.07
   3   5   7    1.96    0.10
   3   5   7    1.98    0.27
   3   5   7    2.02    0.09
   3   5   7    1.97    0.12
   3   5   7    1.98    0.10
   3   5   7    2.01    0.27
   3   5   7    1.97    0.10
   3   5   7    2.08    0.12
   3   5   7    1.98    0.12
   3   5   7    1.98    0.10
   3   5   7    2.03    0.09
  -4  -5  -7    3.56    0.14
  -4  -5  -7    3.51    0.15
  -4  -5  -7    3.36    0.15
   4   5   7    3.36    0.12
   4   5   7    3.32    0.15
   4   5   7    3.82    0.13
   4   5   7    3.50    0.16
   4   5   7    3.60    0.14
   4   5   7    3.37    0.14
   4   5   7    3.52    0.10
   4   5   7    3.37    0.36
   4   5   7    3.59    0.10
   4   5   7    3.43    0.36
   4   5   7    3.30    0.13
   4   5   7    3.52    0.35
   4   5   7    3.39    0.14
  -5  -5  -7    0.14    0.05
  -5  -5  -7    0.24    0.05
  -5  -5  -7    0.23    0.06
  -5  -5  -7    0.23    0.06
   5   5   7    0.14    0.05
   5   5   7    0.16    0.04
   5   5   7    0.16    0.04
   5   5   7    0.14    0.05
   5   5   7    0.19    0.06
   5   5   7    0.19    0.03
   5   5   7    0.20    0.03
   5   5   7    0.17    0.04
   5   5   7    0.13    0.05
   5   5   7    0.18    0.15
   5   5   7    0.23    0.15
  -6  -5  -7    6.36    0.23
  -6  -5  -7    6.44    0.23
  -6  -5  -7    6.75    0.23
  -6  -5  -7    6.66    0.22
   6   5   7    6.65    0.20
   6   5   7    6.50    0.22
   6   5   7    6.68    0.16
   6   5   7    6.78    0.20
   6   5   7    6.06    0.52
   6   5   7    6.50    0.16
   6   5   7    7.07    0.22
   6   5   7    5.51    0.51
   6   5   7    6.73    0.20
   6   5   7    6.69    0.25
   6   5   7    6.60    0.22
  -7  -5  -7    0.29    0.07
  -7  -5  -7    0.32    0.07
  -7  -5  -7    0.33    0.07
  -7  -5  -7    0.39    0.08
   7   5   7    0.45    0.07
   7   5   7    0.44    0.06
   7   5   7    0.38    0.08
   7   5   7    0.39    0.04
   7   5   7    0.48    0.08
   7   5   7    0.30    0.06
   7   5   7    0.33    0.07
   7   5   7    0.28    0.18
   7   5   7    0.39    0.04
   7   5   7    0.42    0.06
  -8  -5  -7    7.19    0.27
  -8  -5  -7    6.58    0.27
  -8  -5  -7    6.97    0.25
   8   5   7    7.08    0.23
   8   5   7    6.94    0.17
   8   5   7    6.84    0.22
   8   5   7    6.91    0.25
   8   5   7    7.14    0.25
   8   5   7    6.55    0.22
   8   5   7    6.89    0.18
   8   5   7    6.01    0.59
   8   5   7    7.05    0.28
   8   5   7    7.48    0.25
   6  -6  -7   -0.09    0.06
   6  -6  -7    0.07    0.07
  -6   6   7   -0.01    0.06
  -6   6   7   -0.03    0.05
  -6   6   7   -0.04    0.06
  -6   6   7    0.03    0.06
  -6   6   7   -0.01    0.05
  -6   6   7   -0.05    0.05
  -6   6   7    0.02    0.06
   5  -6  -7    2.47    0.16
   5  -6  -7    2.25    0.16
  -5   6   7    2.16    0.15
  -5   6   7    2.23    0.14
  -5   6   7    2.10    0.14
  -5   6   7    2.40    0.15
  -5   6   7    2.26    0.15
  -5   6   7    2.55    0.14
  -5   6   7    2.28    0.15
   4  -6  -7    3.24    0.17
   4  -6  -7    3.00    0.20
   4  -6  -7    2.77    0.16
  -4   6   7    2.72    0.15
  -4   6   7    2.93    0.15
  -4   6   7    2.87    0.15
  -4   6   7    2.92    0.14
  -4   6   7    3.04    0.15
  -4   6   7    3.11    0.16
  -4   6   7    3.25    0.16
   3  -6  -7    2.19    0.14
   3  -6  -7    2.18    0.14
   3  -6  -7    2.09    0.13
  -3   6   7    1.99    0.12
  -3   6   7    1.89    0.13
  -3   6   7    2.12    0.13
  -3   6   7    1.94    0.12
  -3   6   7    1.86    0.11
  -3   6   7    1.96    0.12
  -3   6   7    2.04    0.12
   2  -6  -7    6.48    0.22
   2  -6  -7    6.52    0.23
   2  -6  -7    6.49    0.22
  -2   6   7    6.50    0.21
  -2   6   7    6.28    0.20
  -2   6   7    6.49    0.21
  -2   6   7    6.11    0.28
  -2   6   7    5.85    0.32
  -2   6   7    6.51    0.22
  -2   6   7    6.20    0.21
  -2   6   7    6.29    0.55
  -2   6   7    6.56    0.21
  -2   6   7    6.13    0.19
   1  -6  -7   38.06    0.83
   1  -6  -7   38.98    0.82
   1  -6  -7   38.58    0.82
  -1   6   7   37.19    0.87
  -1   6   7   38.42    0.91
  -1   6   7   37.14    0.78
  -1   6   7   37.41    1.39
  -1   6   7   38.58    0.90
  -1   6   7   37.63    0.81
  -1   6   7   38.36    0.82
  -1   6   7   38.47    0.80
  -1   6   7   39.11    0.81
  -1   6   7   38.04    0.81
  -1   6   7   38.36    0.80
   0  -6  -7    7.91    0.25
   0  -6  -7    8.29    0.26
   0  -6  -7    8.29    0.24
   0   6   7    8.45    0.28
   0   6   7    8.02    0.24
   0   6   7    8.20    0.22
   0   6   7    8.22    0.23
   0   6   7    8.31    0.24
   0   6   7    8.95    0.62
   0   6   7    8.31    0.22
   0   6   7    7.75    0.23
   0   6   7    8.01    0.24
   0   6   7    8.05    0.23
   0   6   7    8.61    0.30
   0   6   7    8.37    0.30
   0   6   7    8.49    0.59
  -1  -6  -7    3.57    0.15
  -1  -6  -7    3.73    0.15
   1   6   7    3.62    0.12
   1   6   7    3.62    0.16
   1   6   7    3.45    0.14
   1   6   7    3.72    0.14
   1   6   7    3.70    0.18
   1   6   7    3.49    0.18
   1   6   7    3.74    0.14
   1   6   7    3.49    0.13
   1   6   7    3.35    0.14
   1   6   7    3.45    0.40
   1   6   7    3.75    0.39
   1   6   7    3.45    0.12
   1   6   7    3.64    0.14
   1   6   7    3.42    0.15
  -2  -6  -7    1.12    0.09
  -2  -6  -7    1.00    0.08
   2   6   7    0.81    0.22
   2   6   7    0.94    0.07
   2   6   7    0.88    0.07
   2   6   7    0.87    0.08
   2   6   7    0.85    0.08
   2   6   7    0.79    0.10
   2   6   7    0.86    0.06
   2   6   7    0.89    0.09
   2   6   7    0.70    0.07
   2   6   7    0.88    0.10
   2   6   7    1.04    0.08
   2   6   7    0.89    0.06
   2   6   7    0.77    0.22
   2   6   7    0.97    0.08
  -3  -6  -7    1.23    0.10
  -3  -6  -7    1.06    0.09
  -3  -6  -7    1.03    0.10
   3   6   7    0.88    0.08
   3   6   7    1.33    0.27
   3   6   7    1.03    0.09
   3   6   7    1.14    0.11
   3   6   7    1.00    0.06
   3   6   7    1.26    0.27
   3   6   7    1.14    0.07
   3   6   7    1.05    0.09
   3   6   7    1.22    0.09
   3   6   7    1.11    0.08
   3   6   7    1.20    0.08
   3   6   7    1.11    0.08
   3   6   7    1.09    0.09
   3   6   7    1.13    0.11
  -4  -6  -7    0.69    0.08
  -4  -6  -7    0.71    0.08
  -4  -6  -7    0.55    0.07
   4   6   7    0.70    0.08
   4   6   7    0.70    0.06
   4   6   7    0.76    0.08
   4   6   7    0.45    0.19
   4   6   7    0.63    0.06
   4   6   7    0.65    0.07
   4   6   7    0.67    0.07
   4   6   7    0.69    0.08
   4   6   7    0.57    0.21
   4   6   7    0.76    0.07
   4   6   7    0.57    0.21
   4   6   7    0.55    0.07
   4   6   7    0.60    0.09
  -5  -6  -7    0.43    0.07
  -5  -6  -7    0.43    0.07
  -5  -6  -7    0.29    0.06
  -5  -6  -7    0.36    0.07
   5   6   7    0.47    0.06
   5   6   7    0.43    0.05
   5   6   7    0.35    0.06
   5   6   7    0.37    0.08
   5   6   7    0.30    0.06
   5   6   7    0.37    0.07
   5   6   7    0.36    0.06
   5   6   7    0.51    0.22
   5   6   7    0.29    0.05
   5   6   7    0.51    0.05
  -6  -6  -7    9.43    0.28
  -6  -6  -7    9.12    0.28
  -6  -6  -7    9.23    0.29
  -6  -6  -7    8.74    0.29
   6   6   7    9.15    0.26
   6   6   7    9.46    0.28
   6   6   7    8.78    0.66
   6   6   7    9.10    0.26
   6   6   7    9.21    0.28
   6   6   7    9.23    0.33
   6   6   7    8.81    0.27
   6   6   7    9.44    0.23
   6   6   7    9.58    0.27
  -7  -6  -7    1.27    0.12
  -7  -6  -7    0.93    0.11
  -7  -6  -7    1.00    0.11
  -7  -6  -7    0.94    0.11
   7   6   7    1.10    0.08
   7   6   7    1.04    0.11
   7   6   7    1.18    0.11
   7   6   7    1.14    0.10
   7   6   7    1.12    0.10
   7   6   7    1.21    0.14
   7   6   7    1.12    0.11
   7   6   7    1.18    0.10
   7   6   7    1.07    0.33
  -8  -6  -7    0.58    0.09
  -8  -6  -7    0.66    0.10
  -8  -6  -7    0.56    0.09
  -8  -6  -7    0.70    0.10
   8   6   7    0.68    0.09
   8   6   7    0.70    0.11
   8   6   7    0.73    0.10
   8   6   7    0.72    0.09
   8   6   7    0.72    0.07
   8   6   7    0.82    0.10
   8   6   7    0.80    0.09
   8   6   7    0.90    0.11
   5  -7  -7    0.10    0.07
   5  -7  -7    0.02    0.07
  -5   7   7    0.02    0.06
  -5   7   7    0.08    0.06
  -5   7   7    0.03    0.06
  -5   7   7    0.01    0.06
  -5   7   7    0.20    0.07
  -5   7   7    0.07    0.05
  -5   7   7   -0.02    0.05
   4  -7  -7    3.76    0.20
   4  -7  -7    3.83    0.19
  -4   7   7    4.40    0.19
  -4   7   7    4.00    0.18
  -4   7   7    4.29    0.19
  -4   7   7    3.76    0.18
  -4   7   7    4.23    0.20
  -4   7   7    3.95    0.19
  -4   7   7    4.38    0.19
   3  -7  -7    0.19    0.06
   3  -7  -7    0.20    0.06
  -3   7   7    0.10    0.05
  -3   7   7    0.11    0.06
  -3   7   7    0.20    0.06
  -3   7   7    0.10    0.05
  -3   7   7    0.18    0.06
  -3   7   7    0.08    0.05
  -3   7   7    0.08    0.05
   2  -7  -7    0.18    0.06
   2  -7  -7    0.11    0.06
   2  -7  -7    0.24    0.06
  -2   7   7    0.04    0.04
  -2   7   7    0.11    0.05
  -2   7   7    0.10    0.05
  -2   7   7    0.14    0.05
  -2   7   7    0.15    0.05
  -2   7   7    0.13    0.05
  -2   7   7    0.18    0.06
   1  -7  -7    3.71    0.17
   1  -7  -7    4.34    0.19
   1  -7  -7    3.64    0.21
   1  -7  -7    3.84    0.17
  -1   7   7    3.97    0.16
  -1   7   7    4.11    0.17
  -1   7   7    3.98    0.16
  -1   7   7    4.09    0.16
  -1   7   7    3.92    0.17
  -1   7   7    3.67    0.15
  -1   7   7    4.08    0.16
   0  -7  -7    6.55    0.23
   0  -7  -7    6.37    0.22
   0  -7  -7    6.55    0.23
   0  -7  -7    6.41    0.22
   0   7   7    6.61    0.57
   0   7   7    6.70    0.21
   0   7   7    6.53    0.21
   0   7   7    6.24    0.28
   0   7   7    6.53    0.21
   0   7   7    6.27    0.20
   0   7   7    6.07    0.23
   0   7   7    6.40    0.22
   0   7   7    6.54    0.20
   0   7   7    6.20    0.21
  -1  -7  -7    1.19    0.10
  -1  -7  -7    1.24    0.11
   1   7   7    1.23    0.10
   1   7   7    1.16    0.09
   1   7   7    1.26    0.10
   1   7   7    1.17    0.08
   1   7   7    1.44    0.14
   1   7   7    1.31    0.14
   1   7   7    1.37    0.10
   1   7   7    1.50    0.10
   1   7   7    1.22    0.09
   1   7   7    1.42    0.11
   1   7   7    1.27    0.29
   1   7   7    1.19    0.09
  -2  -7  -7    3.94    0.17
  -2  -7  -7    3.93    0.16
   2   7   7    3.82    0.14
   2   7   7    3.89    0.21
   2   7   7    4.11    0.16
   2   7   7    3.76    0.16
   2   7   7    3.80    0.15
   2   7   7    3.93    0.16
   2   7   7    4.20    0.45
   2   7   7    3.90    0.16
   2   7   7    3.98    0.16
   2   7   7    4.11    0.22
   2   7   7    3.77    0.19
   2   7   7    3.92    0.15
  -3  -7  -7    0.55    0.08
  -3  -7  -7    0.68    0.08
  -3  -7  -7    0.42    0.07
   3   7   7    0.42    0.07
   3   7   7    0.51    0.07
   3   7   7    0.51    0.09
   3   7   7    0.51    0.07
   3   7   7    0.50    0.06
   3   7   7    0.50    0.07
   3   7   7    0.42    0.06
   3   7   7    0.49    0.06
   3   7   7    0.41    0.19
   3   7   7    0.49    0.07
  -4  -7  -7    0.14    0.06
  -4  -7  -7    0.13    0.05
  -4  -7  -7    0.08    0.05
   4   7   7    0.10    0.04
   4   7   7    0.12    0.05
   4   7   7    0.05    0.12
   4   7   7    0.15    0.05
   4   7   7    0.05    0.04
   4   7   7    0.14    0.05
   4   7   7    0.00    0.04
   4   7   7    0.08    0.06
   4   7   7    0.06    0.04
   4   7   7    0.11    0.14
   4   7   7   -0.01    0.04
  -5  -7  -7    0.03    0.05
  -5  -7  -7    0.00    0.04
  -5  -7  -7    0.02    0.05
  -5  -7  -7    0.08    0.05
   5   7   7    0.02    0.06
   5   7   7    0.01    0.04
   5   7   7   -0.06    0.04
   5   7   7    0.04    0.04
   5   7   7    0.04    0.12
   5   7   7   -0.03    0.04
   5   7   7    0.00    0.04
   5   7   7    0.08    0.04
   5   7   7    0.01    0.03
  -6  -7  -7    0.01    0.05
  -6  -7  -7   -0.03    0.04
  -6  -7  -7    0.03    0.05
  -6  -7  -7    0.01    0.05
   6   7   7   -0.01    0.04
   6   7   7   -0.04    0.03
   6   7   7    0.04    0.06
   6   7   7    0.00    0.04
   6   7   7    0.02    0.05
   6   7   7    0.04    0.05
   6   7   7   -0.03    0.05
   6   7   7   -0.03    0.04
  -7  -7  -7    0.34    0.08
  -7  -7  -7    0.22    0.07
  -7  -7  -7    0.35    0.08
  -7  -7  -7    0.23    0.07
   7   7   7    0.21    0.08
   7   7   7    0.32    0.07
   7   7   7    0.22    0.06
   7   7   7    0.27    0.07
   7   7   7    0.23    0.06
   7   7   7    0.33    0.07
   7   7   7    0.26    0.06
   7   7   7    0.29    0.05
  -8  -7  -7    0.00    0.06
  -8  -7  -7    0.08    0.06
  -8  -7  -7    0.01    0.06
   8   7   7    0.05    0.06
   8   7   7   -0.03    0.05
   8   7   7    0.01    0.04
   8   7   7   -0.01    0.05
   8   7   7    0.00    0.05
   8   7   7    0.07    0.06
   8   7   7    0.07    0.06
   4  -8  -7    6.21    0.25
   4  -8  -7    6.44    0.26
  -4   8   7    5.75    0.23
  -4   8   7    5.89    0.24
  -4   8   7    5.98    0.23
  -4   8   7    6.08    0.24
  -4   8   7    6.26    0.24
  -4   8   7    6.28    0.25
   3  -8  -7    0.19    0.07
   3  -8  -7    0.02    0.06
  -3   8   7    0.05    0.05
  -3   8   7    0.05    0.06
  -3   8   7    0.12    0.06
  -3   8   7    0.12    0.06
  -3   8   7    0.13    0.06
  -3   8   7    0.09    0.05
  -3   8   7    0.08    0.05
   2  -8  -7    1.31    0.13
   2  -8  -7    1.58    0.12
  -2   8   7    1.42    0.11
  -2   8   7    1.28    0.11
  -2   8   7    1.43    0.12
  -2   8   7    1.36    0.12
  -2   8   7    1.25    0.11
  -2   8   7    1.51    0.12
  -2   8   7    1.25    0.11
   1  -8  -7    0.19    0.06
   1  -8  -7    0.09    0.04
   1  -8  -7    0.04    0.07
   1  -8  -7    0.11    0.06
  -1   8   7    0.07    0.05
  -1   8   7    0.11    0.05
  -1   8   7    0.09    0.05
  -1   8   7    0.04    0.05
  -1   8   7    0.09    0.05
  -1   8   7    0.13    0.05
  -1   8   7    0.08    0.05
   0  -8  -7    2.37    0.12
   0  -8  -7    2.21    0.13
   0  -8  -7    2.22    0.14
   0  -8  -7    2.37    0.15
   0   8   7    2.31    0.13
   0   8   7    2.31    0.13
   0   8   7    2.20    0.13
   0   8   7    2.57    0.13
   0   8   7    2.63    0.15
   0   8   7    2.42    0.14
   0   8   7    2.35    0.13
   0   8   7    2.33    0.13
  -1  -8  -7    1.57    0.12
  -1  -8  -7    1.51    0.11
  -1  -8  -7    1.64    0.13
   1   8   7    1.77    0.12
   1   8   7    1.72    0.12
   1   8   7    1.64    0.10
   1   8   7    1.72    0.11
   1   8   7    1.70    0.12
   1   8   7    1.61    0.11
   1   8   7    1.71    0.12
  -2  -8  -7    1.62    0.12
  -2  -8  -7    1.67    0.12
  -2  -8  -7    1.80    0.13
   2   8   7    1.56    0.11
   2   8   7    1.74    0.12
   2   8   7    1.50    0.12
   2   8   7    1.68    0.11
   2   8   7    1.34    0.10
   2   8   7    1.50    0.11
   2   8   7    1.67    0.10
   2   8   7    1.41    0.10
  -3  -8  -7    6.88    0.24
  -3  -8  -7    6.82    0.25
  -3  -8  -7    6.65    0.24
   3   8   7    7.07    0.24
   3   8   7    7.07    0.23
   3   8   7    7.14    0.24
   3   8   7    7.29    0.22
   3   8   7    6.72    0.22
   3   8   7    7.12    0.23
   3   8   7    7.15    0.24
   3   8   7    6.98    0.24
  -4  -8  -7    0.01    0.05
  -4  -8  -7   -0.03    0.05
  -4  -8  -7    0.05    0.05
   4   8   7    0.00    0.04
   4   8   7    0.06    0.05
   4   8   7    0.04    0.04
   4   8   7    0.04    0.05
   4   8   7   -0.01    0.04
   4   8   7    0.07    0.05
   4   8   7   -0.04    0.04
   4   8   7    0.05    0.05
  -5  -8  -7    2.02    0.14
  -5  -8  -7    1.82    0.13
  -5  -8  -7    1.63    0.13
  -5  -8  -7    1.92    0.14
   5   8   7    1.81    0.14
   5   8   7    1.82    0.13
   5   8   7    1.73    0.11
   5   8   7    1.71    0.12
   5   8   7    1.85    0.12
   5   8   7    1.77    0.13
   5   8   7    1.98    0.13
   5   8   7    1.96    0.12
  -6  -8  -7    1.00    0.11
  -6  -8  -7    1.06    0.11
  -6  -8  -7    1.28    0.13
   6   8   7    1.05    0.11
   6   8   7    1.02    0.09
   6   8   7    0.91    0.10
   6   8   7    0.83    0.10
   6   8   7    1.07    0.11
   6   8   7    1.01    0.11
   6   8   7    0.89    0.10
  -7  -8  -7    0.17    0.07
  -7  -8  -7    0.29    0.08
  -7  -8  -7    0.41    0.09
   7   8   7    0.33    0.07
   7   8   7    0.37    0.06
   7   8   7    0.17    0.06
   7   8   7    0.21    0.07
   7   8   7    0.37    0.08
   7   8   7    0.28    0.07
   7   8   7    0.34    0.07
   3  -9  -7    2.68    0.18
   3  -9  -7    2.76    0.17
  -3   9   7    2.44    0.16
  -3   9   7    2.55    0.16
  -3   9   7    2.50    0.16
  -3   9   7    2.78    0.17
   2  -9  -7    0.60    0.10
   2  -9  -7    0.63    0.10
  -2   9   7    0.53    0.09
  -2   9   7    0.46    0.08
  -2   9   7    0.66    0.09
  -2   9   7    0.69    0.09
  -2   9   7    0.57    0.08
  -2   9   7    0.57    0.09
  -2   9   7    0.43    0.08
   1  -9  -7    1.86    0.15
   1  -9  -7    1.87    0.12
   1  -9  -7    1.96    0.14
  -1   9   7    1.78    0.13
  -1   9   7    1.90    0.12
  -1   9   7    1.81    0.13
  -1   9   7    1.93    0.14
  -1   9   7    1.98    0.13
  -1   9   7    1.73    0.13
   0  -9  -7    4.68    0.20
   0  -9  -7    4.60    0.20
   0  -9  -7    4.50    0.18
   0   9   7    4.56    0.19
   0   9   7    4.27    0.19
   0   9   7    4.61    0.19
   0   9   7    4.30    0.18
   0   9   7    4.40    0.19
   0   9   7    4.62    0.19
   0   9   7    4.56    0.20
  -1  -9  -7    3.28    0.17
  -1  -9  -7    3.25    0.16
   1   9   7    3.16    0.17
   1   9   7    3.38    0.17
   1   9   7    3.41    0.17
   1   9   7    3.46    0.16
   1   9   7    3.53    0.16
   1   9   7    3.45    0.17
   1   9   7    3.33    0.16
   1   9   7    3.34    0.16
  -2  -9  -7    5.47    0.22
  -2  -9  -7    5.68    0.23
   2   9   7    5.96    0.23
   2   9   7    5.86    0.22
   2   9   7    5.86    0.21
   2   9   7    5.89    0.21
   2   9   7    5.76    0.22
   2   9   7    6.14    0.22
   2   9   7    6.15    0.22
   2   9   7    5.93    0.23
  -3  -9  -7    2.92    0.16
  -3  -9  -7    2.85    0.16
   3   9   7    2.80    0.16
   3   9   7    2.95    0.16
   3   9   7    2.87    0.15
   3   9   7    2.74    0.16
   3   9   7    2.82    0.15
   3   9   7    3.01    0.16
   3   9   7    2.92    0.14
   3   9   7    3.14    0.16
  -4  -9  -7    1.14    0.12
  -4  -9  -7    1.13    0.12
   4   9   7    1.23    0.10
   4   9   7    1.31    0.12
   4   9   7    1.14    0.11
   4   9   7    1.44    0.12
   4   9   7    1.04    0.11
   4   9   7    1.41    0.12
   4   9   7    1.08    0.12
   4   9   7    1.29    0.12
  -5  -9  -7    3.71    0.18
  -5  -9  -7    3.42    0.18
  -5  -9  -7    3.85    0.19
   5   9   7    3.53    0.17
   5   9   7    3.79    0.19
   5   9   7    3.61    0.18
   5   9   7    3.65    0.16
   5   9   7    3.41    0.17
   5   9   7    3.81    0.18
   5   9   7    3.50    0.17
   5   9   7    3.72    0.19
  -6  -9  -7    2.86    0.17
  -6  -9  -7    2.75    0.16
  -6  -9  -7    2.54    0.17
   6   9   7    2.36    0.16
   6   9   7    2.58    0.15
   6   9   7    2.52    0.14
   6   9   7    2.69    0.16
   6   9   7    2.59    0.15
   6   9   7    2.96    0.16
   6   9   7    2.90    0.16
   2 -10  -7    1.13    0.13
   2 -10  -7    1.25    0.13
  -2  10   7    1.20    0.12
  -2  10   7    1.26    0.13
  -2  10   7    1.34    0.13
  -2  10   7    1.24    0.12
   1 -10  -7    0.36    0.08
   1 -10  -7    0.28    0.08
   1 -10  -7    0.33    0.08
  -1  10   7    0.37    0.08
  -1  10   7    0.30    0.07
  -1  10   7    0.32    0.08
  -1  10   7    0.41    0.08
   0 -10  -7    1.09    0.12
   0 -10  -7    1.12    0.11
   0  10   7    1.18    0.12
   0  10   7    1.29    0.15
   0  10   7    1.35    0.12
   0  10   7    1.44    0.13
   0  10   7    1.27    0.12
  -1 -10  -7    2.10    0.15
  -1 -10  -7    2.00    0.15
   1  10   7    1.92    0.14
   1  10   7    2.24    0.15
   1  10   7    2.07    0.15
   1  10   7    2.08    0.15
   1  10   7    2.16    0.14
   1  10   7    2.02    0.15
   1  10   7    2.18    0.15
   1  10   7    2.08    0.14
  -2 -10  -7    0.02    0.06
  -2 -10  -7    0.16    0.07
   2  10   7    0.04    0.05
   2  10   7    0.13    0.06
   2  10   7    0.07    0.06
   2  10   7    0.14    0.06
   2  10   7    0.17    0.07
   2  10   7    0.17    0.07
   2  10   7    0.08    0.06
   2  10   7    0.16    0.06
  -3 -10  -7   15.61    0.44
  -3 -10  -7   15.54    0.43
   3  10   7   14.71    0.44
   3  10   7   15.39    0.42
   3  10   7   15.32    0.42
   3  10   7   15.22    0.42
   3  10   7   15.54    0.41
   3  10   7   15.39    0.42
   3  10   7   15.42    0.43
   3  10   7   15.01    0.42
  -4 -10  -7    0.66    0.10
  -4 -10  -7    0.97    0.11
  -4 -10  -7    0.67    0.10
   4  10   7    0.84    0.10
   4  10   7    0.97    0.12
   4  10   7    0.90    0.11
   4  10   7    0.94    0.11
   4  10   7    1.12    0.11
   4  10   7    1.05    0.11
   4  10   7    0.75    0.10
   4  10   7    0.97    0.11
  -5 -10  -7   -0.01    0.06
  -5 -10  -7    0.05    0.06
  -5 -10  -7   -0.10    0.05
   5  10   7    0.06    0.06
   5  10   7   -0.03    0.05
   5  10   7    0.11    0.06
   5  10   7   -0.01    0.05
   5  10   7    0.00    0.06
   5  10   7    0.01    0.04
   5  10   7   -0.05    0.05
   5  10   7   -0.08    0.05
  -1 -11  -7    0.00    0.06
  -1 -11  -7    0.00    0.05
   1  11   7    0.02    0.06
   1  11   7    0.01    0.06
   1  11   7   -0.07    0.05
   1  11   7   -0.02    0.06
   1  11   7    0.00    0.06
  -2 -11  -7    0.36    0.09
  -2 -11  -7    0.33    0.09
   2  11   7    0.32    0.08
   2  11   7    0.30    0.08
   2  11   7    0.35    0.09
   2  11   7    0.57    0.10
   2  11   7    0.45    0.09
  -3 -11  -7    2.03    0.15
  -3 -11  -7    2.22    0.16
   3  11   7    2.23    0.16
   3  11   7    2.17    0.17
   3  11   7    1.92    0.15
   3  11   7    1.94    0.15
   3  11   7    2.15    0.16
  -3  -6   8    0.40    0.06
  -3  -6   8    0.31    0.05
  -3  -6   8    0.36    0.08
  -3  -6   8    0.36    0.10
  -3  -6   8    0.33    0.05
  -2  -6   8    0.23    0.07
  -2  -6   8    0.21    0.04
  -2  -6   8    0.15    0.08
  -2  -6   8    0.17    0.04
  -1  -6   8    3.62    0.22
  -1  -6   8    3.54    0.19
  -1  -6   8    3.50    0.12
  -1  -6   8    3.50    0.10
   0  -6   8   -0.02    0.05
   0  -6   8    0.03    0.03
   1  -6   8    0.07    0.06
   1  -6   8    0.06    0.03
  -4  -5   8    1.03    0.11
  -4  -5   8    0.99    0.08
  -4  -5   8    1.03    0.09
  -4  -5   8    0.77    0.13
  -4  -5   8    0.91    0.08
  -3  -5   8    1.29    0.08
  -3  -5   8    1.38    0.16
  -3  -5   8    1.43    0.13
  -3  -5   8    1.32    0.08
  -3  -5   8    1.36    0.08
  -2  -5   8    1.12    0.08
  -2  -5   8    0.81    0.12
  -2  -5   8    0.99    0.07
  -2  -5   8    0.96    0.06
  -2  -5   8    0.89    0.10
  -1  -5   8    1.54    0.13
  -1  -5   8    1.23    0.15
  -1  -5   8    1.19    0.06
   0  -5   8    4.07    0.12
   0  -5   8    4.21    0.24
   0  -5   8    4.49    0.21
   1  -5   8    2.45    0.08
   1  -5   8    2.85    0.17
   2  -5   8    1.78    0.14
   2  -5   8    1.76    0.07
   3  -5   8    0.01    0.03
   3  -5   8   -0.03    0.05
   5   4  -8    1.54    0.10
  -5  -4   8    1.40    0.15
  -5  -4   8    1.58    0.11
  -5  -4   8    1.33    0.10
  -5  -4   8    1.58    0.11
   4   4  -8    0.46    0.06
  -4  -4   8    0.44    0.08
  -4  -4   8    0.37    0.06
  -4  -4   8    0.51    0.11
  -4  -4   8    0.42    0.06
  -4  -4   8    0.40    0.06
  -3  -4   8    1.74    0.16
  -3  -4   8    1.59    0.12
  -3  -4   8    1.53    0.09
  -3  -4   8    1.57    0.08
  -3  -4   8    1.64    0.09
  -2  -4   8    0.79    0.06
  -2  -4   8    0.68    0.05
  -2  -4   8    0.79    0.06
  -2  -4   8    0.75    0.12
  -2  -4   8    0.85    0.09
  -1  -4   8    2.01    0.13
  -1  -4   8    1.77    0.07
  -1  -4   8    1.82    0.16
   0  -4   8    2.22    0.17
   0  -4   8    1.90    0.13
   1  -4   8    2.21    0.18
   1  -4   8    1.91    0.14
   2  -4   8    0.09    0.02
   2  -4   8    0.07    0.06
  -3   4  -8    0.01    0.03
   3  -4   8    0.01    0.05
   3  -4   8    0.03    0.02
  -4   4  -8    0.79    0.07
   4  -4   8    0.76    0.10
   4  -4   8    0.82    0.05
   4  -4   8    0.77    0.06
   6   3  -8    0.17    0.06
  -6  -3   8    0.18    0.06
  -6  -3   8    0.28    0.06
  -6  -3   8    0.16    0.03
  -6  -3   8    0.07    0.08
  -6  -3   8    0.14    0.06
   5   3  -8    4.55    0.17
  -5  -3   8    4.50    0.17
  -5  -3   8    4.65    0.18
  -5  -3   8    4.52    0.17
  -5  -3   8    4.33    0.24
   4   3  -8    0.06    0.04
  -4  -3   8   -0.01    0.03
  -4  -3   8    0.04    0.06
  -4  -3   8    0.04    0.04
  -4  -3   8    0.05    0.04
   3   3  -8    2.10    0.09
  -3  -3   8    2.24    0.13
  -3  -3   8    2.24    0.10
  -3  -3   8    1.94    0.16
  -3  -3   8    2.19    0.10
  -3  -3   8    2.14    0.10
  -2  -3   8    3.38    0.10
  -2  -3   8    3.45    0.21
  -2  -3   8    3.49    0.11
  -2  -3   8    3.22    0.11
  -2  -3   8    3.42    0.17
  -1  -3   8    2.91    0.09
  -1  -3   8    2.88    0.15
  -1  -3   8    2.92    0.19
   0  -3   8    4.54    0.23
   0  -3   8    4.44    0.19
   1  -3   8    3.05    0.19
   1  -3   8    3.04    0.16
   2  -3   8    6.60    0.24
   2  -3   8    6.88    0.30
  -3   3  -8    2.15    0.08
   3  -3   8    2.45    0.15
   3  -3   8    2.42    0.08
  -4   3  -8    0.05    0.03
   4  -3   8    0.03    0.02
   4  -3   8    0.01    0.03
   4  -3   8    0.03    0.05
  -5   3  -8    0.24    0.05
   5  -3   8    0.23    0.04
   5  -3   8    0.26    0.04
   5  -3   8    0.23    0.07
   5  -3   8    0.17    0.04
   6   2  -8    3.50    0.16
  -6  -2   8    3.37    0.16
  -6  -2   8    3.68    0.23
  -6  -2   8    3.54    0.17
  -6  -2   8    3.58    0.16
  -6  -2   8    3.51    0.27
  -6  -2   8    3.34    0.16
  -6  -2   8    3.70    0.13
   5   2  -8    0.37    0.06
  -5  -2   8    0.25    0.06
  -5  -2   8    0.32    0.06
  -5  -2   8    0.27    0.03
  -5  -2   8    0.30    0.10
  -5  -2   8    0.15    0.05
   4   2  -8    9.79    0.26
  -4  -2   8    9.89    0.26
  -4  -2   8    9.36    0.26
  -4  -2   8    9.59    0.26
  -4  -2   8   10.07    0.36
   3   2  -8    3.75    0.12
  -3  -2   8    4.11    0.22
  -3  -2   8    3.56    0.13
  -3  -2   8    3.63    0.13
  -3  -2   8    3.57    0.13
   2   2  -8    3.86    0.11
  -2  -2   8    4.23    0.17
  -2  -2   8    3.64    0.21
  -2  -2   8    3.96    0.12
  -2  -2   8    4.00    0.12
  -2  -2   8    3.92    0.12
   1   2  -8   28.36    0.58
  -1  -2   8   29.72    0.74
  -1  -2   8   29.27    0.58
  -1  -2   8   28.58    0.57
  -1  -2   8   29.67    0.66
  -1  -2   8   29.11    0.57
   0  -2   8    4.92    0.24
   0  -2   8    5.03    0.19
   1  -2   8   10.02    0.30
   1  -2   8   10.53    0.36
   2  -2   8    3.96    0.17
   2  -2   8    3.75    0.22
   3  -2   8    1.11    0.11
   3  -2   8    1.27    0.05
  -4   2  -8    4.31    0.13
   4  -2   8    4.45    0.13
   4  -2   8    4.50    0.13
   4  -2   8    4.25    0.19
   4  -2   8    4.40    0.12
  -5   2  -8    0.39    0.05
   5  -2   8    0.45    0.05
   5  -2   8    0.44    0.05
   5  -2   8    0.36    0.05
   5  -2   8    0.36    0.07
  -6   2  -8    0.04    0.04
   6  -2   8   -0.01    0.03
   6  -2   8    0.09    0.04
   6  -2   8    0.06    0.05
   6  -2   8    0.07    0.04
   6   1  -8    2.41    0.14
  -6  -1   8    2.33    0.11
  -6  -1   8    2.46    0.15
  -6  -1   8    2.24    0.29
  -6  -1   8    2.58    0.21
  -6  -1   8    2.33    0.29
  -6  -1   8    2.28    0.14
  -6  -1   8    2.24    0.14
   5   1  -8   -0.03    0.04
  -5  -1   8   -0.03    0.04
  -5  -1   8    0.03    0.04
  -5  -1   8   -0.01    0.04
  -5  -1   8   -0.03    0.03
  -5  -1   8    0.05    0.07
  -5  -1   8    0.00    0.04
   4   1  -8    6.12    0.19
  -4  -1   8    6.18    0.19
  -4  -1   8    6.06    0.19
  -4  -1   8    6.09    0.14
  -4  -1   8    6.38    0.20
  -4  -1   8    6.10    0.28
  -4  -1   8    6.19    0.19
   3   1  -8    3.76    0.13
  -3  -1   8    3.70    0.13
  -3  -1   8    4.04    0.21
  -3  -1   8    3.62    0.13
  -3  -1   8    3.59    0.13
   2   1  -8   35.01    0.70
  -2  -1   8   34.73    0.70
  -2  -1   8   34.87    0.70
  -2  -1   8   34.73    0.84
  -2  -1   8   35.07    0.71
   1   1  -8    7.15    0.16
  -1  -1   8    7.52    0.29
  -1  -1   8    7.33    0.17
  -1  -1   8    7.48    0.24
  -1  -1   8    7.60    0.17
  -1  -1   8    7.29    0.18
   0  -1   8   11.22    0.32
   0  -1   8   11.50    0.24
   0  -1   8   11.42    0.37
   1  -1   8   18.08    0.44
   1  -1   8   17.46    0.50
   2  -1   8   19.02    0.54
   2  -1   8   19.52    0.48
  -3   1  -8    0.06    0.02
   3  -1   8    0.04    0.02
   3  -1   8    0.05    0.06
   3  -1   8    0.12    0.05
   3  -1   8    0.06    0.02
   3  -1   8    0.07    0.02
  -4   1  -8    0.20    0.04
   4  -1   8    0.30    0.04
   4  -1   8    0.27    0.04
   4  -1   8    0.35    0.07
   4  -1   8    0.30    0.03
  -5   1  -8    0.78    0.07
   5  -1   8    0.75    0.06
   5  -1   8    0.74    0.09
   5  -1   8    0.74    0.06
   5  -1   8    0.76    0.06
  -6   1  -8    0.27    0.05
   6  -1   8    0.25    0.05
   6  -1   8    0.36    0.07
   6  -1   8    0.27    0.05
   6  -1   8    0.28    0.05
  -7   1  -8   -0.03    0.04
   7  -1   8    0.00    0.04
   7  -1   8   -0.01    0.04
   7  -1   8   -0.01    0.03
   6   0  -8    0.73    0.09
   6   0  -8    0.89    0.10
  -6   0   8    0.81    0.09
  -6   0   8    0.66    0.09
  -6   0   8    0.93    0.08
  -6   0   8    0.75    0.23
  -6   0   8    0.75    0.09
  -6   0   8    0.78    0.24
  -6   0   8    0.74    0.13
   5   0  -8    0.47    0.08
   5   0  -8    0.54    0.07
  -5   0   8    0.50    0.05
  -5   0   8    0.62    0.18
  -5   0   8    0.55    0.11
  -5   0   8    0.53    0.07
  -5   0   8    0.56    0.08
  -5   0   8    0.64    0.18
  -5   0   8    0.53    0.07
   4   0  -8    0.63    0.07
  -4   0   8    0.51    0.11
  -4   0   8    0.47    0.06
  -4   0   8    0.55    0.06
  -4   0   8    0.58    0.06
  -4   0   8    0.55    0.05
   3   0  -8    5.26    0.16
  -3   0   8    5.28    0.25
  -3   0   8    4.91    0.16
  -3   0   8    5.09    0.16
  -3   0   8    5.25    0.17
   2   0  -8    1.67    0.08
  -2   0   8    1.57    0.08
  -2   0   8    1.74    0.08
  -2   0   8    1.43    0.14
  -2   0   8    1.81    0.08
   1   0  -8   25.17    0.50
  -1   0   8   25.25    0.51
  -1   0   8   24.36    0.64
  -1   0   8   25.22    0.51
  -1   0   8   25.16    0.51
   0   0   8    0.30    0.03
   0   0   8    0.28    0.08
   0   0   8    0.22    0.03
   0   0   8    0.26    0.03
   0   0   8    0.25    0.03
   1   0   8   61.18    1.16
   1   0   8   60.93    1.25
   1   0   8   62.05    1.17
   1   0   8   60.87    1.33
  -2   0  -8   13.59    0.29
  -2   0  -8   14.07    0.33
   2   0   8   14.19    0.28
   2   0   8   13.53    0.36
   2   0   8   14.14    0.28
   2   0   8   13.56    0.42
   2   0   8   14.42    0.29
   2   0   8   14.02    0.29
  -3   0  -8   15.78    0.36
   3   0   8   15.18    0.32
   3   0   8   15.27    0.46
   3   0   8   14.94    0.39
   3   0   8   15.13    0.32
   3   0   8   14.90    0.31
  -4   0  -8   18.03    0.40
  -4   0  -8   18.67    0.42
   4   0   8   18.32    0.39
   4   0   8   18.00    0.39
   4   0   8   18.19    0.45
   4   0   8   18.26    0.39
  -5   0  -8    0.00    0.03
   5   0   8   -0.03    0.03
   5   0   8   -0.08    0.04
   5   0   8    0.01    0.03
   5   0   8    0.00    0.03
  -6   0  -8    3.49    0.15
   6   0   8    3.23    0.13
   6   0   8    3.48    0.13
   6   0   8    3.28    0.13
  -7   0  -8    0.84    0.09
   7   0   8    0.75    0.08
   7   0   8    0.83    0.08
   7   0   8    0.68    0.08
   6  -1  -8    0.42    0.07
   6  -1  -8    0.33    0.07
  -6   1   8    0.18    0.17
  -6   1   8    0.27    0.05
  -6   1   8    0.27    0.07
  -6   1   8    0.18    0.06
  -6   1   8    0.27    0.10
  -6   1   8    0.27    0.18
  -6   1   8    0.32    0.07
  -6   1   8    0.19    0.05
  -6   1   8    0.46    0.08
  -6   1   8    0.28    0.07
  -6   1   8    0.30    0.07
   5  -1  -8    0.01    0.04
   5  -1  -8    0.06    0.05
  -5   1   8    0.09    0.05
  -5   1   8    0.00    0.10
  -5   1   8    0.04    0.07
  -5   1   8    0.00    0.03
  -5   1   8   -0.02    0.03
  -5   1   8    0.04    0.10
  -5   1   8    0.03    0.04
  -5   1   8   -0.05    0.04
   4  -1  -8    0.03    0.04
   4  -1  -8    0.09    0.04
  -4   1   8    0.10    0.03
  -4   1   8    0.05    0.03
  -4   1   8    0.10    0.04
  -4   1   8    0.11    0.10
  -4   1   8    0.11    0.04
  -4   1   8    0.04    0.06
  -4   1   8    0.09    0.10
  -4   1   8    0.12    0.05
   3  -1  -8    5.58    0.20
   3  -1  -8    5.68    0.18
  -3   1   8    5.66    0.15
  -3   1   8    5.67    0.18
  -3   1   8    5.60    0.18
  -3   1   8    5.61    0.18
  -3   1   8    5.68    0.26
  -3   1   8    5.61    0.18
   2  -1  -8   12.99    0.31
  -2   1   8   13.24    0.41
  -2   1   8   13.11    0.31
  -2   1   8   13.02    0.31
  -2   1   8   13.68    0.31
  -2   1   8   13.02    0.31
   1  -1  -8   42.55    0.84
  -1   1   8   41.96    0.84
  -1   1   8   42.56    0.97
  -1   1   8   42.17    0.84
  -1   1   8   43.42    0.84
   0   1   8    5.29    0.14
   0   1   8    5.05    0.13
   0   1   8    5.03    0.14
   0   1   8    5.30    0.23
  -1  -1  -8    1.77    0.07
   1   1   8    1.71    0.07
   1   1   8    1.80    0.14
   1   1   8    1.77    0.07
   1   1   8    1.72    0.07
  -2  -1  -8    0.80    0.05
  -2  -1  -8    0.90    0.08
   2   1   8    0.71    0.11
   2   1   8    0.69    0.04
   2   1   8    0.74    0.05
   2   1   8    0.75    0.05
  -3  -1  -8   20.71    0.47
  -3  -1  -8   19.67    0.43
   3   1   8   20.84    0.43
   3   1   8   21.07    0.43
   3   1   8   20.61    0.43
   3   1   8   20.02    0.55
  -4  -1  -8    2.03    0.09
  -4  -1  -8    2.21    0.11
   4   1   8    2.26    0.09
   4   1   8    2.02    0.16
   4   1   8    2.35    0.09
   4   1   8    2.20    0.09
  -5  -1  -8    3.50    0.14
  -5  -1  -8    3.83    0.15
   5   1   8    3.84    0.13
   5   1   8    3.70    0.13
   5   1   8    3.53    0.13
  -6  -1  -8    0.00    0.04
  -6  -1  -8   -0.02    0.03
   6   1   8    0.01    0.03
   6   1   8    0.00    0.03
   6   1   8   -0.04    0.03
  -7  -1  -8    0.96    0.10
  -7  -1  -8    0.94    0.10
   7   1   8    0.97    0.09
   7   1   8    0.90    0.08
   7   1   8    1.03    0.09
   6  -2  -8    0.42    0.08
   6  -2  -8    0.39    0.08
  -6   2   8    0.52    0.04
  -6   2   8    0.47    0.08
  -6   2   8    0.48    0.08
  -6   2   8    0.46    0.22
  -6   2   8    0.52    0.10
  -6   2   8    0.42    0.07
  -6   2   8    0.45    0.07
  -6   2   8    0.44    0.08
  -6   2   8    0.39    0.04
  -6   2   8    0.45    0.08
  -6   2   8    0.41    0.07
  -6   2   8    0.54    0.10
   5  -2  -8    0.78    0.09
   5  -2  -8    0.63    0.08
  -5   2   8    0.64    0.09
  -5   2   8    0.64    0.08
  -5   2   8    0.57    0.08
  -5   2   8    0.70    0.07
  -5   2   8    0.83    0.09
  -5   2   8    0.68    0.07
  -5   2   8    0.68    0.22
  -5   2   8    0.70    0.09
  -5   2   8    0.67    0.09
  -5   2   8    0.82    0.24
  -5   2   8    0.80    0.08
  -5   2   8    0.55    0.11
   4  -2  -8    5.78    0.20
   4  -2  -8    5.85    0.20
  -4   2   8    5.64    0.20
  -4   2   8    6.09    0.28
  -4   2   8    5.65    0.18
  -4   2   8    6.13    0.19
  -4   2   8    6.50    0.46
  -4   2   8    5.83    0.17
  -4   2   8    5.90    0.19
  -4   2   8    5.66    0.17
  -4   2   8    5.68    0.20
  -4   2   8    6.22    0.47
  -4   2   8    5.83    0.20
   3  -2  -8    0.56    0.07
   3  -2  -8    0.73    0.07
  -3   2   8    0.52    0.15
  -3   2   8    0.57    0.06
  -3   2   8    0.56    0.16
  -3   2   8    0.75    0.07
  -3   2   8    0.64    0.05
  -3   2   8    0.54    0.10
  -3   2   8    0.65    0.07
  -3   2   8    0.63    0.05
   2  -2  -8    0.25    0.05
   2  -2  -8    0.38    0.05
  -2   2   8    0.25    0.09
  -2   2   8    0.36    0.04
  -2   2   8    0.28    0.09
  -2   2   8    0.25    0.04
  -2   2   8    0.32    0.05
  -2   2   8    0.36    0.05
   1  -2  -8    0.08    0.03
  -1   2   8    0.11    0.02
  -1   2   8    0.12    0.06
  -1   2   8    0.14    0.03
  -1   2   8    0.10    0.03
  -1   2   8    0.13    0.03
  -1   2   8    0.15    0.02
   0  -2  -8    9.70    0.24
   0   2   8   10.03    0.33
   0   2   8    9.99    0.24
   0   2   8    9.74    0.23
   0   2   8    9.87    0.24
  -1  -2  -8    0.23    0.04
   1   2   8    0.27    0.04
   1   2   8    0.26    0.04
   1   2   8    0.26    0.04
   1   2   8    0.21    0.07
  -2  -2  -8   21.19    0.46
   2   2   8   21.62    0.45
   2   2   8   21.57    0.56
   2   2   8   21.64    0.45
   2   2   8   21.19    0.45
  -3  -2  -8    0.17    0.05
  -3  -2  -8    0.15    0.04
   3   2   8    0.20    0.04
   3   2   8    0.12    0.06
   3   2   8    0.19    0.03
   3   2   8    0.14    0.03
  -4  -2  -8    0.22    0.04
  -4  -2  -8    0.23    0.05
   4   2   8    0.20    0.04
   4   2   8    0.23    0.07
   4   2   8    0.17    0.04
   4   2   8    0.24    0.04
  -5  -2  -8    0.70    0.08
  -5  -2  -8    0.74    0.07
   5   2   8    0.55    0.06
   5   2   8    0.63    0.06
   5   2   8    0.54    0.06
  -6  -2  -8    2.47    0.13
  -6  -2  -8    2.47    0.13
   6   2   8    2.69    0.07
   6   2   8    2.66    0.12
   6   2   8    2.57    0.12
   6   2   8    2.62    0.12
  -7  -2  -8    0.15    0.06
  -7  -2  -8    0.15    0.05
   7   2   8    0.04    0.04
   7   2   8    0.11    0.05
   7   2   8    0.16    0.05
   7   2   8    0.07    0.03
  -8  -2  -8    0.11    0.06
  -8  -2  -8    0.04    0.06
   8   2   8    0.05    0.05
   8   2   8    0.01    0.03
   8   2   8    0.04    0.05
   8   2   8    0.00    0.04
   6  -3  -8    0.02    0.05
   6  -3  -8    0.08    0.06
   6  -3  -8   -0.01    0.05
  -6   3   8   -0.03    0.04
  -6   3   8    0.03    0.05
  -6   3   8    0.03    0.05
  -6   3   8    0.00    0.05
  -6   3   8   -0.06    0.05
  -6   3   8    0.04    0.05
  -6   3   8   -0.02    0.04
  -6   3   8   -0.02    0.13
  -6   3   8    0.03    0.06
  -6   3   8    0.03    0.03
   5  -3  -8    2.68    0.15
   5  -3  -8    2.77    0.15
   5  -3  -8    2.76    0.15
  -5   3   8    2.92    0.41
  -5   3   8    2.56    0.14
  -5   3   8    2.80    0.15
  -5   3   8    2.75    0.10
  -5   3   8    2.83    0.13
  -5   3   8    2.76    0.10
  -5   3   8    2.92    0.15
  -5   3   8    2.88    0.18
  -5   3   8    2.98    0.14
  -5   3   8    2.93    0.18
  -5   3   8    2.85    0.13
   4  -3  -8    0.08    0.05
   4  -3  -8   -0.04    0.03
   4  -3  -8   -0.04    0.04
  -4   3   8    0.04    0.04
  -4   3   8   -0.01    0.10
  -4   3   8    0.04    0.02
  -4   3   8   -0.02    0.04
  -4   3   8    0.01    0.02
  -4   3   8   -0.03    0.03
  -4   3   8    0.02    0.04
  -4   3   8   -0.01    0.04
  -4   3   8    0.09    0.07
  -4   3   8    0.05    0.04
  -4   3   8    0.02    0.04
  -4   3   8    0.01    0.03
  -4   3   8    0.00    0.10
   3  -3  -8    2.45    0.12
   3  -3  -8    2.25    0.12
  -3   3   8    2.14    0.17
  -3   3   8    2.32    0.12
  -3   3   8    2.34    0.30
  -3   3   8    2.40    0.12
  -3   3   8    2.43    0.12
  -3   3   8    2.21    0.10
  -3   3   8    2.33    0.10
  -3   3   8    2.46    0.12
  -3   3   8    2.28    0.12
  -3   3   8    2.36    0.30
  -3   3   8    2.64    0.11
   2  -3  -8   14.90    0.36
  -2   3   8   14.46    0.33
  -2   3   8   13.89    0.43
  -2   3   8   14.69    0.32
  -2   3   8   14.93    0.33
  -2   3   8   14.44    0.35
  -2   3   8   14.95    0.36
  -2   3   8   14.02    0.63
  -2   3   8   14.50    0.35
  -2   3   8   14.10    0.65
   1  -3  -8    1.59    0.09
  -1   3   8    1.83    0.06
  -1   3   8    1.65    0.20
  -1   3   8    1.84    0.09
  -1   3   8    1.83    0.09
  -1   3   8    1.80    0.09
  -1   3   8    1.51    0.20
  -1   3   8    1.67    0.14
  -1   3   8    1.77    0.07
  -1   3   8    1.84    0.08
   0  -3  -8    6.65    0.19
   0  -3  -8    6.70    0.19
   0   3   8    6.56    0.19
   0   3   8    6.90    0.19
   0   3   8    6.92    0.26
   0   3   8    6.92    0.19
   0   3   8    6.78    0.16
  -1  -3  -8    2.43    0.10
   1   3   8    2.37    0.09
   1   3   8    2.42    0.07
   1   3   8    2.16    0.14
   1   3   8    2.53    0.10
   1   3   8    2.34    0.07
   1   3   8    2.43    0.10
  -2  -3  -8    0.20    0.04
   2   3   8    0.20    0.02
   2   3   8    0.19    0.04
   2   3   8    0.25    0.07
   2   3   8    0.19    0.04
   2   3   8    0.21    0.02
   2   3   8    0.18    0.04
  -3  -3  -8    0.19    0.04
  -3  -3  -8    0.17    0.05
   3   3   8    0.19    0.02
   3   3   8    0.11    0.04
   3   3   8    0.21    0.04
   3   3   8    0.19    0.04
   3   3   8    0.13    0.02
   3   3   8    0.17    0.06
  -4  -3  -8    8.60    0.24
  -4  -3  -8    8.80    0.26
   4   3   8    8.82    0.31
   4   3   8    8.96    0.23
   4   3   8    8.34    0.23
   4   3   8    8.86    0.19
   4   3   8    8.61    0.23
  -5  -3  -8   12.07    0.33
  -5  -3  -8   12.07    0.32
   5   3   8   11.86    0.30
   5   3   8   12.09    0.30
   5   3   8   12.03    0.31
   5   3   8   11.94    0.26
  -6  -3  -8    0.60    0.08
  -6  -3  -8    0.74    0.09
   6   3   8    0.54    0.07
   6   3   8    0.55    0.07
   6   3   8    0.70    0.13
   6   3   8    0.65    0.07
   6   3   8    0.60    0.05
  -7  -3  -8    0.47    0.08
  -7  -3  -8    0.52    0.08
   7   3   8    0.52    0.14
   7   3   8    0.55    0.05
   7   3   8    0.48    0.14
   7   3   8    0.51    0.07
   7   3   8    0.54    0.07
   7   3   8    0.53    0.07
  -8  -3  -8    1.05    0.11
  -8  -3  -8    1.25    0.12
   8   3   8    1.05    0.08
   8   3   8    1.13    0.11
   8   3   8    1.09    0.23
   8   3   8    1.04    0.10
   8   3   8    1.04    0.21
   8   3   8    1.15    0.11
   6  -4  -8    0.37    0.08
   6  -4  -8    0.44    0.08
  -6   4   8    0.40    0.08
  -6   4   8    0.23    0.07
  -6   4   8    0.24    0.09
  -6   4   8    0.31    0.06
  -6   4   8    0.38    0.08
  -6   4   8    0.45    0.08
  -6   4   8    0.39    0.07
  -6   4   8    0.35    0.07
   5  -4  -8   -0.06    0.04
   5  -4  -8    0.05    0.05
  -5   4   8    0.02    0.04
  -5   4   8    0.07    0.06
  -5   4   8   -0.01    0.04
  -5   4   8    0.01    0.03
  -5   4   8   -0.06    0.04
  -5   4   8    0.02    0.04
  -5   4   8    0.01    0.12
  -5   4   8    0.03    0.05
  -5   4   8   -0.05    0.04
  -5   4   8   -0.03    0.05
   4  -4  -8    0.08    0.05
   4  -4  -8    0.00    0.04
  -4   4   8    0.02    0.04
  -4   4   8   -0.03    0.11
  -4   4   8   -0.01    0.04
  -4   4   8   -0.01    0.04
  -4   4   8    0.03    0.04
  -4   4   8    0.02    0.05
  -4   4   8    0.01    0.05
  -4   4   8    0.01    0.05
  -4   4   8   -0.02    0.02
  -4   4   8    0.03    0.03
  -4   4   8   -0.01    0.04
   3  -4  -8    0.77    0.08
   3  -4  -8    0.77    0.08
  -3   4   8    0.68    0.05
  -3   4   8    0.52    0.10
  -3   4   8    0.93    0.08
  -3   4   8    0.69    0.23
  -3   4   8    0.77    0.10
  -3   4   8    0.92    0.08
  -3   4   8    0.66    0.09
  -3   4   8    0.75    0.08
  -3   4   8    0.66    0.08
  -3   4   8    0.81    0.05
  -3   4   8    0.74    0.07
  -3   4   8    0.79    0.08
  -3   4   8    0.65    0.21
   2  -4  -8   19.71    0.47
   2  -4  -8   19.63    0.47
   2  -4  -8   19.29    0.48
  -2   4   8   19.75    0.44
  -2   4   8   19.50    0.46
  -2   4   8   19.83    0.46
  -2   4   8   19.87    0.49
  -2   4   8   19.16    0.46
  -2   4   8   20.31    0.44
  -2   4   8   20.28    0.85
  -2   4   8   19.85    0.55
  -2   4   8   19.82    0.49
  -2   4   8   19.98    0.44
  -2   4   8   21.26    0.89
   1  -4  -8    4.33    0.15
   1  -4  -8    4.22    0.16
   1  -4  -8    4.11    0.15
  -1   4   8    4.05    0.15
  -1   4   8    3.58    0.14
  -1   4   8    3.76    0.20
  -1   4   8    4.30    0.13
  -1   4   8    4.09    0.15
  -1   4   8    4.00    0.15
  -1   4   8    3.84    0.33
  -1   4   8    4.12    0.13
  -1   4   8    4.03    0.13
  -1   4   8    3.91    0.15
   0  -4  -8    0.19    0.05
   0  -4  -8    0.15    0.04
   0   4   8    0.43    0.14
   0   4   8    0.24    0.04
   0   4   8    0.13    0.04
   0   4   8    0.22    0.04
   0   4   8    0.21    0.04
   0   4   8    0.23    0.11
   0   4   8    0.15    0.03
   0   4   8    0.18    0.04
   0   4   8    0.15    0.06
  -1  -4  -8    0.02    0.03
   1   4   8    0.04    0.02
   1   4   8    0.04    0.02
   1   4   8    0.05    0.03
   1   4   8    0.04    0.07
   1   4   8   -0.01    0.04
   1   4   8    0.03    0.03
   1   4   8    0.06    0.03
   1   4   8    0.02    0.02
   1   4   8   -0.02    0.07
  -2  -4  -8    5.19    0.17
   2   4   8    5.14    0.21
   2   4   8    4.83    0.31
   2   4   8    5.37    0.14
   2   4   8    5.10    0.16
   2   4   8    5.38    0.13
   2   4   8    5.34    0.32
   2   4   8    5.31    0.16
   2   4   8    5.39    0.15
   2   4   8    5.19    0.16
  -3  -4  -8    9.22    0.26
  -3  -4  -8    9.65    0.28
   3   4   8    9.43    0.31
   3   4   8    9.52    0.44
   3   4   8    9.60    0.44
   3   4   8    9.35    0.25
   3   4   8    9.22    0.22
   3   4   8    9.44    0.25
   3   4   8    9.47    0.25
   3   4   8    9.72    0.21
  -4  -4  -8    7.32    0.23
  -4  -4  -8    7.53    0.24
   4   4   8    7.54    0.22
   4   4   8    7.72    0.19
   4   4   8    7.58    0.41
   4   4   8    7.55    0.41
   4   4   8    7.85    0.22
   4   4   8    7.46    0.22
   4   4   8    7.74    0.18
   4   4   8    7.75    0.27
  -5  -4  -8    1.49    0.11
  -5  -4  -8    1.40    0.10
  -5  -4  -8    1.38    0.11
   5   4   8    1.33    0.07
   5   4   8    1.38    0.20
   5   4   8    1.43    0.10
   5   4   8    1.37    0.09
   5   4   8    1.29    0.09
   5   4   8    1.36    0.21
  -6  -4  -8   10.55    0.31
  -6  -4  -8   10.76    0.30
  -6  -4  -8   10.14    0.31
   6   4   8   10.24    0.29
   6   4   8   10.89    0.29
   6   4   8   10.43    0.29
   6   4   8   10.41    0.55
   6   4   8   10.07    0.54
   6   4   8   10.39    0.26
  -7  -4  -8    0.00    0.05
  -7  -4  -8    0.07    0.06
  -7  -4  -8    0.07    0.05
   7   4   8    0.01    0.04
   7   4   8    0.00    0.10
   7   4   8    0.07    0.05
   7   4   8    0.04    0.05
   7   4   8    0.00    0.05
   7   4   8    0.05    0.09
  -8  -4  -8   -0.03    0.06
  -8  -4  -8    0.01    0.05
   8   4   8   -0.02    0.04
   8   4   8    0.01    0.05
   8   4   8   -0.07    0.04
   8   4   8   -0.04    0.04
   8   4   8    0.02    0.09
   8   4   8   -0.06    0.10
   5  -5  -8    0.03    0.05
   5  -5  -8    0.01    0.06
   5  -5  -8    0.07    0.05
  -5   5   8   -0.01    0.05
  -5   5   8   -0.02    0.05
  -5   5   8   -0.01    0.05
  -5   5   8    0.07    0.06
  -5   5   8    0.05    0.05
  -5   5   8    0.03    0.06
  -5   5   8    0.09    0.05
  -5   5   8    0.12    0.05
   4  -5  -8    1.34    0.11
   4  -5  -8    1.48    0.12
   4  -5  -8    1.47    0.13
  -4   5   8    1.36    0.10
  -4   5   8    1.31    0.31
  -4   5   8    1.39    0.10
  -4   5   8    1.43    0.15
  -4   5   8    1.37    0.09
  -4   5   8    1.31    0.12
  -4   5   8    1.49    0.12
  -4   5   8    1.48    0.11
  -4   5   8    1.35    0.15
  -4   5   8    1.42    0.12
   3  -5  -8    5.48    0.22
   3  -5  -8    6.13    0.21
   3  -5  -8    5.40    0.21
  -3   5   8    5.42    0.20
  -3   5   8    5.68    0.19
  -3   5   8    5.78    0.21
  -3   5   8    5.68    0.19
  -3   5   8    4.88    0.20
  -3   5   8    5.63    0.51
  -3   5   8    5.62    0.17
  -3   5   8    5.99    0.26
  -3   5   8    5.72    0.19
  -3   5   8    5.72    0.25
  -3   5   8    5.84    0.21
   2  -5  -8    0.96    0.09
   2  -5  -8    0.92    0.09
   2  -5  -8    1.01    0.10
  -2   5   8    0.67    0.07
  -2   5   8    1.02    0.24
  -2   5   8    0.91    0.11
  -2   5   8    0.97    0.08
  -2   5   8    1.01    0.11
  -2   5   8    0.81    0.08
  -2   5   8    0.84    0.06
  -2   5   8    0.66    0.08
  -2   5   8    0.99    0.06
  -2   5   8    1.35    0.29
  -2   5   8    0.87    0.12
  -2   5   8    0.89    0.08
  -2   5   8    0.85    0.08
   1  -5  -8    3.46    0.15
   1  -5  -8    3.27    0.14
   1  -5  -8    3.30    0.14
  -1   5   8    3.04    0.14
  -1   5   8    3.17    0.35
  -1   5   8    3.24    0.10
  -1   5   8    3.36    0.16
  -1   5   8    3.09    0.18
  -1   5   8    3.34    0.10
  -1   5   8    3.38    0.13
  -1   5   8    3.31    0.14
  -1   5   8    3.08    0.16
  -1   5   8    3.45    0.13
  -1   5   8    3.29    0.12
  -1   5   8    3.17    0.13
  -1   5   8    3.14    0.37
   0  -5  -8    0.16    0.05
   0  -5  -8    0.13    0.05
   0  -5  -8    0.15    0.05
   0   5   8    0.14    0.02
   0   5   8    0.10    0.06
   0   5   8    0.13    0.04
   0   5   8    0.16    0.04
   0   5   8    0.13    0.13
   0   5   8    0.15    0.12
   0   5   8    0.16    0.05
   0   5   8    0.15    0.04
   0   5   8    0.12    0.02
   0   5   8    0.15    0.04
   0   5   8    0.13    0.04
   0   5   8    0.15    0.05
   0   5   8    0.09    0.04
  -1  -5  -8    0.43    0.06
  -1  -5  -8    0.37    0.06
   1   5   8    0.32    0.14
   1   5   8    0.43    0.05
   1   5   8    0.37    0.05
   1   5   8    0.35    0.07
   1   5   8    0.38    0.15
   1   5   8    0.33    0.06
   1   5   8    0.38    0.06
   1   5   8    0.42    0.05
   1   5   8    0.39    0.06
   1   5   8    0.34    0.05
   1   5   8    0.39    0.05
  -2  -5  -8    0.01    0.04
  -2  -5  -8    0.03    0.04
   2   5   8    0.06    0.03
   2   5   8    0.01    0.03
   2   5   8   -0.01    0.03
   2   5   8    0.06    0.09
   2   5   8    0.01    0.09
   2   5   8    0.04    0.03
   2   5   8    0.04    0.03
   2   5   8    0.09    0.04
   2   5   8    0.05    0.05
   2   5   8    0.00    0.03
   2   5   8   -0.01    0.03
  -3  -5  -8    1.01    0.10
  -3  -5  -8    0.95    0.09
   3   5   8    0.95    0.10
   3   5   8    1.03    0.07
   3   5   8    0.95    0.07
   3   5   8    1.02    0.08
   3   5   8    1.04    0.08
   3   5   8    0.95    0.08
   3   5   8    0.70    0.19
   3   5   8    0.92    0.07
   3   5   8    1.07    0.07
   3   5   8    0.95    0.07
   3   5   8    0.82    0.20
  -4  -5  -8    0.52    0.07
  -4  -5  -8    0.52    0.07
   4   5   8    0.52    0.06
   4   5   8    0.46    0.06
   4   5   8    0.55    0.07
   4   5   8    0.51    0.05
   4   5   8    0.74    0.20
   4   5   8    0.66    0.19
   4   5   8    0.49    0.05
   4   5   8    0.45    0.06
   4   5   8    0.57    0.09
   4   5   8    0.53    0.07
   4   5   8    0.44    0.06
  -5  -5  -8    4.02    0.18
  -5  -5  -8    4.10    0.18
  -5  -5  -8    4.15    0.17
   5   5   8    4.62    0.41
   5   5   8    4.50    0.16
   5   5   8    3.83    0.14
   5   5   8    4.00    0.16
   5   5   8    4.40    0.40
   5   5   8    4.14    0.15
   5   5   8    4.00    0.14
   5   5   8    4.13    0.16
   5   5   8    4.27    0.14
   5   5   8    4.14    0.16
   5   5   8    4.23    0.40
  -6  -5  -8    3.15    0.16
  -6  -5  -8    3.23    0.15
  -6  -5  -8    3.08    0.16
   6   5   8    3.07    0.15
   6   5   8    2.74    0.34
   6   5   8    3.16    0.14
   6   5   8    2.95    0.12
   6   5   8    2.94    0.14
   6   5   8    2.60    0.33
   6   5   8    3.26    0.15
   6   5   8    3.05    0.12
  -7  -5  -8    0.85    0.10
  -7  -5  -8    1.09    0.12
  -7  -5  -8    0.95    0.11
   7   5   8    0.96    0.09
   7   5   8    1.08    0.09
   7   5   8    0.91    0.10
   7   5   8    1.09    0.26
   7   5   8    0.86    0.10
   7   5   8    0.93    0.10
   7   5   8    1.13    0.28
   7   5   8    1.03    0.08
  -8  -5  -8    0.56    0.09
  -8  -5  -8    0.59    0.10
  -8  -5  -8    0.46    0.09
   8   5   8    0.40    0.07
   8   5   8    0.48    0.08
   8   5   8    0.48    0.10
   8   5   8    0.40    0.07
   8   5   8    0.57    0.23
   8   5   8    0.49    0.20
   8   5   8    0.40    0.08
   8   5   8    0.58    0.09
   5  -6  -8    1.00    0.12
   5  -6  -8    0.91    0.12
  -5   6   8    0.85    0.10
  -5   6   8    0.90    0.10
  -5   6   8    0.78    0.10
  -5   6   8    0.55    0.09
  -5   6   8    0.91    0.11
  -5   6   8    0.76    0.09
  -5   6   8    0.68    0.10
   4  -6  -8    3.43    0.19
   4  -6  -8    3.64    0.18
   4  -6  -8    3.34    0.18
  -4   6   8    3.28    0.17
  -4   6   8    3.42    0.16
  -4   6   8    3.80    0.15
  -4   6   8    3.61    0.18
  -4   6   8    3.54    0.17
  -4   6   8    3.46    0.17
  -4   6   8    3.39    0.16
   3  -6  -8    0.16    0.06
   3  -6  -8    0.09    0.05
   3  -6  -8    0.21    0.06
  -3   6   8    0.14    0.05
  -3   6   8    0.17    0.07
  -3   6   8    0.23    0.06
  -3   6   8    0.21    0.05
  -3   6   8    0.06    0.05
  -3   6   8    0.09    0.05
  -3   6   8    0.14    0.05
  -3   6   8    0.18    0.05
   2  -6  -8    0.19    0.06
   2  -6  -8    0.14    0.06
   2  -6  -8    0.13    0.05
  -2   6   8    0.16    0.05
  -2   6   8    0.16    0.06
  -2   6   8    0.10    0.05
  -2   6   8    0.26    0.08
  -2   6   8    0.22    0.05
  -2   6   8    0.22    0.08
  -2   6   8    0.20    0.05
  -2   6   8    0.15    0.16
  -2   6   8    0.21    0.05
  -2   6   8    0.25    0.05
  -2   6   8    0.16    0.05
   1  -6  -8    2.51    0.13
   1  -6  -8    2.52    0.14
   1  -6  -8    2.70    0.14
  -1   6   8    2.61    0.14
  -1   6   8    2.63    0.13
  -1   6   8    2.65    0.12
  -1   6   8    3.17    0.18
  -1   6   8    2.93    0.11
  -1   6   8    2.73    0.17
  -1   6   8    2.48    0.12
  -1   6   8    3.15    0.18
  -1   6   8    2.67    0.13
  -1   6   8    2.96    0.38
  -1   6   8    2.64    0.10
  -1   6   8    2.55    0.13
   0  -6  -8    0.03    0.04
   0  -6  -8    0.08    0.05
   0  -6  -8    0.07    0.04
   0   6   8    0.08    0.03
   0   6   8    0.06    0.03
   0   6   8    0.02    0.12
   0   6   8    0.13    0.04
   0   6   8    0.11    0.04
   0   6   8    0.04    0.05
   0   6   8    0.05    0.04
   0   6   8    0.04    0.11
   0   6   8    0.06    0.05
   0   6   8    0.14    0.04
   0   6   8    0.06    0.04
   0   6   8    0.07    0.06
   0   6   8    0.03    0.04
  -1  -6  -8    0.08    0.04
  -1  -6  -8    0.04    0.04
   1   6   8    0.02    0.04
   1   6   8    0.03    0.11
   1   6   8    0.12    0.13
   1   6   8    0.06    0.04
   1   6   8    0.07    0.04
   1   6   8    0.06    0.02
   1   6   8    0.11    0.04
   1   6   8    0.04    0.05
   1   6   8    0.07    0.05
   1   6   8    0.06    0.05
   1   6   8    0.06    0.03
   1   6   8    0.10    0.04
   1   6   8    0.10    0.04
  -2  -6  -8    0.03    0.04
  -2  -6  -8    0.00    0.04
   2   6   8    0.04    0.04
   2   6   8    0.09    0.04
   2   6   8    0.02    0.04
   2   6   8    0.01    0.03
   2   6   8    0.06    0.05
   2   6   8    0.05    0.10
   2   6   8    0.08    0.02
   2   6   8    0.03    0.03
   2   6   8    0.05    0.02
   2   6   8    0.02    0.04
   2   6   8    0.01    0.10
   2   6   8    0.01    0.04
   2   6   8    0.04    0.04
  -3  -6  -8    4.35    0.18
  -3  -6  -8    4.38    0.17
  -3  -6  -8    3.91    0.17
   3   6   8    4.38    0.12
   3   6   8    4.33    0.15
   3   6   8    4.37    0.12
   3   6   8    3.97    0.16
   3   6   8    4.22    0.15
   3   6   8    4.13    0.15
   3   6   8    4.42    0.19
   3   6   8    4.36    0.42
   3   6   8    4.40    0.16
   3   6   8    4.38    0.19
   3   6   8    4.55    0.19
   3   6   8    4.38    0.17
   3   6   8    4.49    0.42
  -4  -6  -8    0.88    0.09
  -4  -6  -8    0.86    0.09
  -4  -6  -8    0.92    0.10
   4   6   8    0.79    0.07
   4   6   8    0.79    0.05
   4   6   8    0.73    0.10
   4   6   8    0.69    0.22
   4   6   8    0.86    0.09
   4   6   8    0.94    0.10
   4   6   8    0.75    0.07
   4   6   8    0.81    0.08
   4   6   8    0.76    0.23
   4   6   8    0.85    0.08
   4   6   8    0.80    0.07
   4   6   8    0.79    0.05
  -5  -6  -8    3.89    0.18
  -5  -6  -8    3.57    0.17
  -5  -6  -8    3.56    0.18
  -5  -6  -8    3.61    0.16
   5   6   8    3.76    0.10
   5   6   8    3.42    0.15
   5   6   8    2.96    0.38
   5   6   8    3.70    0.16
   5   6   8    3.73    0.16
   5   6   8    3.73    0.14
   5   6   8    3.80    0.14
   5   6   8    3.53    0.40
   5   6   8    2.99    0.39
   5   6   8    3.53    0.14
   5   6   8    3.55    0.18
   5   6   8    3.71    0.10
  -6  -6  -8   -0.05    0.05
  -6  -6  -8    0.00    0.05
  -6  -6  -8   -0.02    0.05
   6   6   8   -0.01    0.05
   6   6   8   -0.03    0.04
   6   6   8    0.05    0.04
   6   6   8   -0.06    0.04
   6   6   8    0.00    0.04
   6   6   8   -0.01    0.04
   6   6   8    0.00    0.11
   6   6   8    0.00    0.05
   6   6   8    0.02    0.12
  -7  -6  -8    6.96    0.26
  -7  -6  -8    6.91    0.27
  -7  -6  -8    7.24    0.25
   7   6   8    6.88    0.26
   7   6   8    7.12    0.26
   7   6   8    6.96    0.27
   7   6   8    6.83    0.22
   7   6   8    7.31    0.25
   7   6   8    7.08    0.25
   7   6   8    6.29    0.58
   7   6   8    6.80    0.22
   4  -7  -8    0.21    0.08
   4  -7  -8    0.15    0.07
  -4   7   8    0.29    0.07
  -4   7   8    0.32    0.07
  -4   7   8    0.33    0.08
  -4   7   8    0.17    0.06
  -4   7   8    0.23    0.07
  -4   7   8    0.20    0.06
  -4   7   8    0.12    0.06
   3  -7  -8    0.36    0.08
   3  -7  -8    0.58    0.09
   3  -7  -8    0.49    0.10
  -3   7   8    0.38    0.07
  -3   7   8    0.48    0.08
  -3   7   8    0.62    0.08
  -3   7   8    0.41    0.07
  -3   7   8    0.42    0.07
  -3   7   8    0.60    0.07
  -3   7   8    0.55    0.08
   2  -7  -8    0.68    0.09
   2  -7  -8    0.66    0.09
   2  -7  -8    0.65    0.10
  -2   7   8    0.54    0.08
  -2   7   8    0.47    0.08
  -2   7   8    0.69    0.16
  -2   7   8    0.56    0.08
  -2   7   8    0.70    0.09
  -2   7   8    0.62    0.08
  -2   7   8    0.65    0.08
  -2   7   8    0.50    0.07
   1  -7  -8    1.63    0.13
   1  -7  -8    1.71    0.12
   1  -7  -8    1.77    0.12
  -1   7   8    1.69    0.11
  -1   7   8    1.71    0.33
  -1   7   8    1.65    0.10
  -1   7   8    1.85    0.11
  -1   7   8    1.60    0.14
  -1   7   8    1.75    0.12
  -1   7   8    1.73    0.17
  -1   7   8    1.86    0.12
  -1   7   8    1.78    0.12
  -1   7   8    1.53    0.15
  -1   7   8    1.81    0.11
   0  -7  -8    0.13    0.05
   0  -7  -8    0.22    0.06
   0  -7  -8    0.07    0.05
   0   7   8    0.12    0.05
   0   7   8    0.13    0.14
   0   7   8    0.10    0.05
   0   7   8    0.09    0.04
   0   7   8    0.16    0.05
   0   7   8    0.16    0.06
   0   7   8    0.10    0.06
   0   7   8    0.11    0.05
   0   7   8    0.10    0.07
   0   7   8    0.13    0.04
   0   7   8    0.04    0.04
  -1  -7  -8   -0.05    0.04
  -1  -7  -8    0.00    0.04
   1   7   8    0.03    0.04
   1   7   8   -0.06    0.03
   1   7   8    0.01    0.11
   1   7   8    0.01    0.03
   1   7   8   -0.04    0.04
   1   7   8   -0.01    0.04
   1   7   8   -0.05    0.04
   1   7   8    0.03    0.04
   1   7   8   -0.03    0.05
   1   7   8    0.06    0.05
   1   7   8    0.02    0.05
  -2  -7  -8    1.07    0.10
  -2  -7  -8    0.88    0.09
   2   7   8    0.96    0.09
   2   7   8    0.96    0.10
   2   7   8    0.95    0.09
   2   7   8    0.96    0.09
   2   7   8    1.06    0.12
   2   7   8    1.03    0.08
   2   7   8    1.00    0.09
   2   7   8    0.97    0.07
   2   7   8    0.82    0.24
   2   7   8    0.93    0.09
   2   7   8    0.94    0.08
   2   7   8    1.00    0.12
  -3  -7  -8    0.07    0.05
  -3  -7  -8    0.14    0.05
  -3  -7  -8    0.11    0.05
   3   7   8    0.12    0.05
   3   7   8    0.11    0.05
   3   7   8    0.13    0.04
   3   7   8    0.15    0.04
   3   7   8    0.14    0.04
   3   7   8    0.08    0.04
   3   7   8    0.15    0.05
   3   7   8    0.15    0.15
   3   7   8    0.07    0.04
   3   7   8    0.11    0.06
   3   7   8    0.10    0.06
  -4  -7  -8    0.16    0.06
  -4  -7  -8    0.22    0.06
  -4  -7  -8    0.20    0.06
   4   7   8    0.19    0.16
   4   7   8    0.24    0.04
   4   7   8    0.16    0.05
   4   7   8    0.23    0.07
   4   7   8    0.23    0.05
   4   7   8    0.28    0.08
   4   7   8    0.24    0.06
   4   7   8    0.16    0.05
   4   7   8    0.16    0.05
   4   7   8    0.26    0.04
   4   7   8    0.27    0.06
  -5  -7  -8    0.15    0.06
  -5  -7  -8    0.04    0.05
  -5  -7  -8    0.07    0.05
  -5  -7  -8    0.00    0.04
   5   7   8    0.10    0.03
   5   7   8    0.15    0.05
   5   7   8    0.07    0.06
   5   7   8    0.15    0.14
   5   7   8    0.15    0.06
   5   7   8    0.17    0.05
   5   7   8    0.11    0.05
   5   7   8    0.05    0.05
   5   7   8    0.10    0.03
   5   7   8    0.00    0.12
   5   7   8    0.01    0.05
  -6  -7  -8    0.32    0.07
  -6  -7  -8    0.38    0.07
  -6  -7  -8    0.41    0.08
  -6  -7  -8    0.37    0.08
   6   7   8    0.36    0.08
   6   7   8    0.40    0.07
   6   7   8    0.30    0.08
   6   7   8    0.31    0.06
   6   7   8    0.36    0.07
   6   7   8    0.39    0.20
   6   7   8    0.36    0.07
   6   7   8    0.24    0.06
   6   7   8    0.41    0.05
  -7  -7  -8    2.43    0.17
  -7  -7  -8    2.78    0.17
  -7  -7  -8    2.55    0.16
  -7  -7  -8    2.58    0.16
   7   7   8    2.69    0.14
   7   7   8    2.56    0.10
   7   7   8    2.61    0.18
   7   7   8    2.92    0.15
   7   7   8    2.31    0.16
   7   7   8    2.46    0.14
   7   7   8    2.73    0.16
   7   7   8    2.71    0.16
   7   7   8    2.06    0.40
   3  -8  -8    4.69    0.22
   3  -8  -8    4.75    0.22
  -3   8   8    4.92    0.21
  -3   8   8    4.45    0.21
  -3   8   8    4.82    0.19
  -3   8   8    4.55    0.20
  -3   8   8    4.69    0.21
  -3   8   8    4.98    0.21
  -3   8   8    4.60    0.21
   2  -8  -8    1.82    0.15
   2  -8  -8    1.77    0.13
  -2   8   8    1.64    0.13
  -2   8   8    1.59    0.12
  -2   8   8    1.75    0.13
  -2   8   8    1.72    0.13
  -2   8   8    1.69    0.14
  -2   8   8    1.70    0.11
  -2   8   8    1.75    0.13
   1  -8  -8    0.15    0.06
   1  -8  -8    0.09    0.06
   1  -8  -8    0.07    0.05
  -1   8   8    0.11    0.05
  -1   8   8    0.11    0.05
  -1   8   8    0.06    0.05
  -1   8   8    0.05    0.04
  -1   8   8    0.05    0.05
  -1   8   8    0.11    0.06
  -1   8   8    0.09    0.05
  -1   8   8    0.11    0.06
   0  -8  -8   10.43    0.31
   0  -8  -8    9.76    0.32
   0  -8  -8   10.50    0.32
   0   8   8   10.23    0.28
   0   8   8   10.64    0.31
   0   8   8   10.20    0.34
   0   8   8   10.11    0.31
   0   8   8    9.99    0.30
   0   8   8   10.15    0.29
   0   8   8   10.52    0.30
   0   8   8   10.10    0.30
  -1  -8  -8    2.89    0.15
  -1  -8  -8    2.73    0.16
   1   8   8    2.92    0.14
   1   8   8    2.70    0.14
   1   8   8    2.65    0.14
   1   8   8    2.97    0.15
   1   8   8    2.84    0.15
   1   8   8    3.08    0.21
   1   8   8    2.91    0.16
   1   8   8    2.82    0.13
   1   8   8    3.10    0.15
  -2  -8  -8    0.82    0.09
  -2  -8  -8    0.93    0.10
   2   8   8    0.96    0.09
   2   8   8    0.93    0.08
   2   8   8    0.93    0.09
   2   8   8    0.73    0.11
   2   8   8    0.93    0.10
   2   8   8    0.99    0.10
   2   8   8    0.93    0.09
   2   8   8    0.99    0.10
  -3  -8  -8    0.76    0.09
  -3  -8  -8    0.92    0.10
  -3  -8  -8    0.75    0.10
   3   8   8    0.86    0.09
   3   8   8    0.91    0.09
   3   8   8    0.95    0.13
   3   8   8    0.82    0.09
   3   8   8    0.86    0.31
   3   8   8    0.87    0.09
   3   8   8    0.88    0.08
   3   8   8    0.64    0.09
   3   8   8    0.85    0.09
  -4  -8  -8    0.98    0.10
  -4  -8  -8    1.19    0.12
  -4  -8  -8    0.86    0.10
   4   8   8    0.89    0.09
   4   8   8    0.92    0.10
   4   8   8    1.00    0.10
   4   8   8    0.93    0.08
   4   8   8    1.10    0.11
   4   8   8    1.17    0.11
   4   8   8    0.89    0.09
   4   8   8    0.86    0.13
  -5  -8  -8   -0.02    0.04
  -5  -8  -8    0.03    0.06
  -5  -8  -8    0.02    0.05
   5   8   8    0.04    0.04
   5   8   8    0.02    0.05
   5   8   8    0.02    0.06
   5   8   8    0.04    0.05
   5   8   8   -0.06    0.05
   5   8   8    0.00    0.04
   5   8   8    0.01    0.04
   5   8   8    0.01    0.05
  -6  -8  -8    0.17    0.07
  -6  -8  -8    0.17    0.07
  -6  -8  -8    0.12    0.06
  -6  -8  -8    0.19    0.07
   6   8   8    0.10    0.07
   6   8   8    0.14    0.06
   6   8   8    0.16    0.06
   6   8   8    0.14    0.06
   6   8   8    0.18    0.05
   6   8   8    0.15    0.06
   6   8   8    0.17    0.07
   6   8   8    0.08    0.05
   2  -9  -8    0.11    0.07
   2  -9  -8    0.18    0.07
  -2   9   8    0.12    0.06
  -2   9   8    0.22    0.07
  -2   9   8    0.11    0.06
  -2   9   8    0.24    0.07
  -2   9   8    0.19    0.07
  -2   9   8    0.15    0.06
  -2   9   8    0.10    0.06
   1  -9  -8    0.05    0.06
   1  -9  -8   -0.03    0.05
  -1   9   8   -0.01    0.05
  -1   9   8    0.06    0.05
  -1   9   8   -0.04    0.05
  -1   9   8   -0.03    0.04
  -1   9   8    0.01    0.05
  -1   9   8   -0.02    0.05
  -1   9   8    0.00    0.05
   0  -9  -8    1.65    0.14
   0   9   8    1.80    0.14
   0   9   8    1.59    0.11
   0   9   8    1.52    0.12
   0   9   8    1.57    0.13
   0   9   8    1.77    0.13
   0   9   8    1.60    0.13
   0   9   8    1.87    0.13
  -1  -9  -8    0.78    0.10
   1   9   8    0.91    0.10
   1   9   8    0.83    0.09
   1   9   8    0.69    0.09
   1   9   8    0.81    0.10
   1   9   8    0.66    0.09
   1   9   8    0.85    0.09
   1   9   8    0.95    0.11
   1   9   8    0.75    0.10
  -2  -9  -8    4.96    0.21
  -2  -9  -8    4.44    0.20
  -2  -9  -8    4.60    0.30
   2   9   8    4.77    0.19
   2   9   8    4.54    0.19
   2   9   8    4.37    0.23
   2   9   8    4.33    0.17
   2   9   8    4.47    0.20
   2   9   8    4.57    0.20
   2   9   8    4.42    0.19
   2   9   8    4.66    0.20
  -3  -9  -8   -0.03    0.06
  -3  -9  -8    0.02    0.06
  -3  -9  -8   -0.04    0.05
   3   9   8   -0.03    0.05
   3   9   8   -0.04    0.05
   3   9   8    0.05    0.05
   3   9   8    0.01    0.05
   3   9   8    0.04    0.04
   3   9   8    0.04    0.05
   3   9   8    0.03    0.05
  -4  -9  -8    7.87    0.28
  -4  -9  -8    8.49    0.29
   4   9   8    8.54    0.28
   4   9   8    8.02    0.26
   4   9   8    8.16    0.28
   4   9   8    8.02    0.28
   4   9   8    8.08    0.27
   4   9   8    8.10    0.24
   4   9   8    8.42    0.27
  -5  -9  -8    0.39    0.08
  -5  -9  -8    0.25    0.08
  -5  -9  -8    0.28    0.08
   5   9   8    0.34    0.07
   5   9   8    0.31    0.08
   5   9   8    0.33    0.07
   5   9   8    0.22    0.05
   5   9   8    0.29    0.07
   5   9   8    0.29    0.07
   5   9   8    0.20    0.07
  -6  -9  -8    0.17    0.07
  -6  -9  -8    0.15    0.07
  -6  -9  -8    0.17    0.08
   6   9   8    0.22    0.05
   6   9   8    0.15    0.06
   6   9   8    0.16    0.06
   6   9   8    0.16    0.06
   6   9   8    0.05    0.06
   6   9   8    0.15    0.07
   6   9   8    0.22    0.07
   1 -10  -8    0.01    0.06
   1 -10  -8   -0.09    0.05
  -1  10   8   -0.09    0.05
  -1  10   8   -0.02    0.06
  -1  10   8   -0.09    0.05
  -1  10   8    0.04    0.06
  -1  10   8   -0.07    0.06
  -1  10   8    0.00    0.05
  -1  10   8   -0.02    0.06
   0 -10  -8    0.02    0.06
   0  10   8    0.03    0.06
   0  10   8    0.00    0.05
   0  10   8    0.04    0.05
   0  10   8   -0.02    0.06
   0  10   8    0.05    0.06
   0  10   8   -0.10    0.05
   0  10   8   -0.01    0.06
   0  10   8   -0.01    0.05
  -1 -10  -8    3.22    0.19
   1  10   8    3.05    0.18
   1  10   8    2.88    0.17
   1  10   8    3.23    0.18
   1  10   8    3.21    0.17
   1  10   8    3.48    0.18
   1  10   8    3.19    0.16
   1  10   8    3.67    0.19
   1  10   8    3.32    0.18
  -2 -10  -8    0.00    0.06
  -2 -10  -8    0.02    0.06
   2  10   8    0.06    0.06
   2  10   8   -0.04    0.05
   2  10   8    0.01    0.06
   2  10   8   -0.02    0.05
   2  10   8   -0.03    0.06
   2  10   8    0.03    0.06
   2  10   8    0.06    0.06
   2  10   8   -0.01    0.04
  -3 -10  -8    5.29    0.23
  -3 -10  -8    4.98    0.23
   3  10   8    5.02    0.22
   3  10   8    4.79    0.21
   3  10   8    5.11    0.21
   3  10   8    5.49    0.23
   3  10   8    4.67    0.20
   3  10   8    5.02    0.20
   3  10   8    4.51    0.21
  -4 -10  -8    1.11    0.12
  -4 -10  -8    1.28    0.13
   4  10   8    1.16    0.12
   4  10   8    1.07    0.10
   4  10   8    0.96    0.11
   4  10   8    1.01    0.12
   4  10   8    1.00    0.11
   4  10   8    1.02    0.12
   4  10   8    0.98    0.11
  -2  -5   9    0.09    0.03
  -2  -5   9    0.13    0.09
  -2  -5   9    0.13    0.07
  -2  -5   9    0.08    0.03
  -1  -5   9    0.58    0.10
  -1  -5   9    0.47    0.05
  -1  -5   9    0.39    0.11
   0  -5   9    1.25    0.17
   0  -5   9    1.03    0.06
   0  -5   9    1.05    0.12
   1  -5   9    2.72    0.09
   1  -5   9    2.92    0.18
  -3  -4   9    0.29    0.07
  -3  -4   9    0.31    0.05
  -3  -4   9    0.36    0.05
  -3  -4   9    0.19    0.09
  -3  -4   9    0.29    0.04
  -2  -4   9    1.40    0.17
  -2  -4   9    1.04    0.07
  -2  -4   9    1.18    0.06
  -2  -4   9    1.16    0.12
  -1  -4   9    4.79    0.21
  -1  -4   9    4.23    0.12
  -1  -4   9    4.61    0.26
   0  -4   9    0.07    0.06
   0  -4   9   -0.06    0.06
   1  -4   9    2.59    0.17
   1  -4   9    2.44    0.20
   2  -4   9    0.39    0.09
  -3   4  -9    0.31    0.04
   3  -4   9    0.30    0.04
   3  -4   9    0.24    0.07
  -4  -3   9    1.78    0.18
  -4  -3   9    1.63    0.10
  -4  -3   9    1.83    0.10
  -4  -3   9    1.60    0.10
  -3  -3   9    0.78    0.07
  -3  -3   9    0.86    0.07
  -3  -3   9    0.81    0.10
  -3  -3   9    0.81    0.13
  -3  -3   9    0.93    0.07
  -2  -3   9    0.32    0.07
  -2  -3   9    0.33    0.04
  -2  -3   9    0.39    0.04
  -2  -3   9    0.37    0.11
  -1  -3   9    2.33    0.18
  -1  -3   9    2.69    0.16
  -1  -3   9    2.32    0.08
   0  -3   9   13.54    0.39
   0  -3   9   13.77    0.46
   1  -3   9    5.45    0.28
   1  -3   9    5.23    0.22
   2  -3   9   -0.03    0.05
   2  -3   9    0.08    0.08
   3  -3   9    1.44    0.14
   3  -3   9    1.39    0.06
  -4   3  -9    0.10    0.03
   4  -3   9    0.11    0.03
   4  -3   9    0.05    0.06
   5   2  -9    0.06    0.04
  -5  -2   9    0.15    0.05
  -5  -2   9    0.07    0.04
  -5  -2   9    0.04    0.04
  -5  -2   9    0.12    0.09
  -5  -2   9    0.16    0.05
   4   2  -9    0.18    0.04
  -4  -2   9    0.16    0.05
  -4  -2   9    0.20    0.09
  -4  -2   9    0.20    0.05
  -4  -2   9    0.16    0.04
  -3  -2   9    0.07    0.07
  -3  -2   9    0.11    0.04
  -3  -2   9    0.09    0.03
  -3  -2   9    0.18    0.04
  -2  -2   9    1.01    0.07
  -2  -2   9    1.02    0.06
  -2  -2   9    1.03    0.14
  -2  -2   9    0.95    0.06
  -1  -2   9    1.22    0.06
  -1  -2   9    1.01    0.14
  -1  -2   9    1.17    0.11
   0  -2   9    0.01    0.05
   0  -2   9    0.11    0.07
   1  -2   9    1.44    0.16
   1  -2   9    1.31    0.12
   2  -2   9    0.05    0.05
   2  -2   9    0.13    0.08
   3  -2   9    0.21    0.07
   3  -2   9    0.23    0.03
   3  -2   9    0.15    0.09
  -4   2  -9    0.97    0.06
   4  -2   9    1.04    0.06
   4  -2   9    0.98    0.11
  -5   2  -9    0.43    0.06
   5  -2   9    0.42    0.08
   5  -2   9    0.52    0.05
   5  -2   9    0.52    0.05
   5   1  -9    0.49    0.07
  -5  -1   9    0.51    0.12
  -5  -1   9    0.47    0.07
  -5  -1   9    0.32    0.06
  -5  -1   9    0.42    0.07
   4   1  -9    2.10    0.11
  -4  -1   9    2.01    0.11
  -4  -1   9    2.01    0.11
  -4  -1   9    1.98    0.18
  -4  -1   9    2.26    0.11
   3   1  -9    2.64    0.11
  -3  -1   9    2.74    0.11
  -3  -1   9    2.76    0.11
  -3  -1   9    2.71    0.11
  -3  -1   9    2.55    0.19
  -3  -1   9    2.70    0.12
  -2  -1   9   -0.01    0.02
  -2  -1   9    0.00    0.02
  -2  -1   9    0.00    0.03
  -2  -1   9   -0.02    0.03
  -2  -1   9    0.01    0.06
  -1  -1   9    9.87    0.23
  -1  -1   9   10.09    0.22
  -1  -1   9   10.06    0.23
  -1  -1   9   10.03    0.36
  -1  -1   9    9.77    0.23
   0  -1   9    3.82    0.18
   0  -1   9    4.14    0.23
   1  -1   9    3.61    0.17
   1  -1   9    3.05    0.20
   2  -1   9    0.06    0.07
   2  -1   9   -0.01    0.05
  -3   1  -9    1.79    0.07
   3  -1   9    1.52    0.16
   3  -1   9    1.49    0.12
   3  -1   9    1.85    0.07
  -4   1  -9    2.14    0.09
   4  -1   9    2.22    0.14
   4  -1   9    2.19    0.09
   4  -1   9    2.09    0.07
  -5   1  -9    5.89    0.18
   5  -1   9    6.00    0.18
   5  -1   9    6.40    0.24
   5  -1   9    6.28    0.16
   5  -1   9    6.17    0.18
  -6   1  -9    2.66    0.13
   6  -1   9    2.90    0.16
   6  -1   9    3.08    0.12
   6  -1   9    2.82    0.12
   6  -1   9    2.62    0.12
   5   0  -9    0.98    0.10
  -5   0   9    1.12    0.10
  -5   0   9    0.98    0.06
  -5   0   9    1.00    0.15
  -5   0   9    1.16    0.10
  -5   0   9    0.95    0.09
   4   0  -9    1.25    0.09
  -4   0   9    1.26    0.16
  -4   0   9    1.19    0.09
  -4   0   9    1.20    0.10
  -4   0   9    1.40    0.10
   3   0  -9    6.10    0.18
  -3   0   9    5.79    0.18
  -3   0   9    5.95    0.18
  -3   0   9    6.51    0.29
  -3   0   9    6.24    0.19
   2   0  -9   -0.01    0.02
  -2   0   9   -0.01    0.03
  -2   0   9   -0.01    0.03
  -2   0   9    0.04    0.06
  -2   0   9    0.02    0.03
   1   0  -9    0.26    0.03
  -1   0   9    0.21    0.04
  -1   0   9    0.22    0.03
  -1   0   9    0.34    0.04
  -1   0   9    0.30    0.04
  -1   0   9    0.24    0.09
   0   0   9    0.22    0.03
   0   0   9    0.11    0.07
   0   0   9    0.20    0.03
   0   0   9    0.24    0.03
   1   0   9    2.46    0.09
   1   0   9    2.60    0.08
   1   0   9    2.54    0.18
  -2   0  -9    0.74    0.05
  -2   0  -9    0.77    0.08
   2   0   9    0.78    0.04
   2   0   9    0.73    0.12
  -3   0  -9   20.04    0.43
   3   0   9   20.68    0.42
   3   0   9   20.91    0.41
   3   0   9   20.43    0.59
   3   0   9   20.48    0.43
  -4   0  -9    0.00    0.03
   4   0   9    0.00    0.03
   4   0   9    0.00    0.02
   4   0   9   -0.02    0.02
  -5   0  -9    1.72    0.10
   5   0   9    1.71    0.08
   5   0   9    1.67    0.09
   5   0   9    1.92    0.09
  -6   0  -9    0.81    0.08
   6   0   9    0.63    0.07
   6   0   9    0.60    0.06
   6   0   9    0.66    0.07
   6  -1  -9    0.07    0.06
  -6   1   9    0.11    0.09
  -6   1   9    0.26    0.07
  -6   1   9    0.14    0.06
  -6   1   9    0.15    0.15
  -6   1   9    0.18    0.07
  -6   1   9    0.18    0.15
  -6   1   9    0.22    0.06
  -6   1   9    0.18    0.05
   5  -1  -9    3.21    0.15
  -5   1   9    2.99    0.15
  -5   1   9    2.54    0.30
  -5   1   9    2.92    0.15
  -5   1   9    2.99    0.22
  -5   1   9    3.18    0.16
  -5   1   9    3.28    0.12
  -5   1   9    2.63    0.30
  -5   1   9    3.11    0.15
   4  -1  -9    0.79    0.08
  -4   1   9    0.92    0.09
  -4   1   9    0.87    0.13
  -4   1   9    0.95    0.06
  -4   1   9    0.80    0.08
  -4   1   9    0.79    0.08
  -4   1   9    0.91    0.08
   3  -1  -9    6.91    0.20
  -3   1   9    6.63    0.21
  -3   1   9    6.97    0.21
  -3   1   9    7.05    0.21
  -3   1   9    6.78    0.20
  -3   1   9    6.82    0.30
   2  -1  -9    9.61    0.24
  -2   1   9    9.61    0.25
  -2   1   9    9.69    0.25
  -2   1   9    9.50    0.25
  -2   1   9   10.01    0.36
   1  -1  -9    8.54    0.21
  -1   1   9    8.37    0.21
  -1   1   9    8.34    0.21
  -1   1   9    8.49    0.22
  -1   1   9    9.56    0.34
   0   1   9    9.78    0.35
   0   1   9    9.70    0.23
   0   1   9    9.63    0.23
   0   1   9    9.85    0.23
  -1  -1  -9   17.81    0.38
   1   1   9   18.11    0.38
   1   1   9   17.84    0.52
   1   1   9   18.22    0.38
   1   1   9   17.91    0.37
  -2  -1  -9    7.25    0.18
  -2  -1  -9    7.54    0.22
   2   1   9    7.19    0.18
   2   1   9    7.17    0.29
   2   1   9    7.25    0.17
   2   1   9    7.38    0.18
  -3  -1  -9   18.33    0.40
  -3  -1  -9   18.50    0.44
   3   1   9   18.39    0.39
   3   1   9   18.24    0.39
   3   1   9   18.27    0.38
   3   1   9   18.54    0.54
  -4  -1  -9    0.02    0.03
  -4  -1  -9    0.05    0.04
   4   1   9   -0.03    0.03
   4   1   9    0.02    0.03
   4   1   9   -0.05    0.05
   4   1   9    0.01    0.03
  -5  -1  -9    6.14    0.21
  -5  -1  -9    6.08    0.19
   5   1   9    6.25    0.18
   5   1   9    5.97    0.18
   5   1   9    6.35    0.18
  -6  -1  -9    0.00    0.04
   6   1   9    0.02    0.04
   6   1   9    0.03    0.04
   6   1   9   -0.02    0.03
  -7  -1  -9    0.04    0.05
   7   1   9    0.05    0.04
   7   1   9    0.06    0.05
   7   1   9   -0.01    0.04
   5  -2  -9    0.23    0.06
   5  -2  -9    0.40    0.07
  -5   2   9    0.33    0.17
  -5   2   9    0.28    0.07
  -5   2   9    0.31    0.17
  -5   2   9    0.19    0.06
  -5   2   9    0.26    0.05
  -5   2   9    0.44    0.12
  -5   2   9    0.27    0.06
   4  -2  -9    0.08    0.05
  -4   2   9    0.10    0.04
  -4   2   9    0.14    0.05
  -4   2   9    0.12    0.05
  -4   2   9    0.08    0.10
  -4   2   9    0.10    0.08
  -4   2   9    0.12    0.11
  -4   2   9    0.09    0.05
   3  -2  -9    3.38    0.14
  -3   2   9    3.08    0.14
  -3   2   9    3.44    0.14
  -3   2   9    3.51    0.22
  -3   2   9    3.31    0.14
  -3   2   9    3.52    0.11
   2  -2  -9    0.02    0.03
  -2   2   9    0.03    0.04
  -2   2   9    0.04    0.03
  -2   2   9    0.02    0.04
  -2   2   9    0.07    0.07
  -2   2   9    0.04    0.02
   1  -2  -9   54.63    1.09
  -1   2   9   55.12    1.09
  -1   2   9   54.87    1.09
  -1   2   9   55.31    1.09
  -1   2   9   53.57    1.22
   0  -2  -9    2.21    0.10
   0   2   9    2.11    0.09
   0   2   9    2.28    0.09
   0   2   9    2.04    0.16
   0   2   9    2.15    0.09
  -1  -2  -9   14.31    0.34
   1   2   9   15.12    0.45
   1   2   9   14.52    0.33
   1   2   9   14.91    0.33
   1   2   9   14.63    0.33
  -2  -2  -9   20.51    0.45
   2   2   9   20.80    0.44
   2   2   9   20.61    0.44
   2   2   9   20.49    0.56
   2   2   9   20.66    0.44
  -3  -2  -9    0.78    0.08
  -3  -2  -9    0.82    0.07
   3   2   9    0.67    0.06
   3   2   9    0.64    0.11
   3   2   9    0.71    0.06
   3   2   9    0.70    0.06
  -4  -2  -9   13.80    0.34
  -4  -2  -9   14.10    0.37
   4   2   9   14.29    0.33
   4   2   9   14.15    0.45
   4   2   9   14.17    0.33
   4   2   9   14.02    0.33
  -5  -2  -9    2.32    0.13
  -5  -2  -9    2.31    0.12
   5   2   9    2.22    0.10
   5   2   9    2.26    0.11
   5   2   9    2.04    0.10
  -6  -2  -9    3.65    0.16
  -6  -2  -9    4.32    0.18
   6   2   9    3.99    0.16
   6   2   9    3.93    0.15
   6   2   9    4.43    0.16
  -7  -2  -9    0.36    0.08
  -7  -2  -9    0.32    0.07
   7   2   9    0.27    0.06
   7   2   9    0.29    0.06
   7   2   9    0.25    0.06
   5  -3  -9    1.93    0.14
   5  -3  -9    2.02    0.14
  -5   3   9    1.98    0.35
  -5   3   9    2.16    0.11
  -5   3   9    2.10    0.20
  -5   3   9    2.15    0.14
  -5   3   9    2.04    0.14
  -5   3   9    2.24    0.14
  -5   3   9    1.93    0.11
  -5   3   9    2.06    0.34
  -5   3   9    2.42    0.15
  -5   3   9    2.06    0.14
   4  -3  -9    0.12    0.05
   4  -3  -9    0.23    0.06
  -4   3   9    0.12    0.04
  -4   3   9    0.22    0.15
  -4   3   9    0.25    0.05
  -4   3   9    0.18    0.04
  -4   3   9    0.13    0.08
  -4   3   9    0.15    0.05
  -4   3   9    0.16    0.06
  -4   3   9    0.20    0.06
  -4   3   9    0.21    0.15
   3  -3  -9    0.65    0.08
  -3   3   9    0.75    0.08
  -3   3   9    0.62    0.06
  -3   3   9    0.74    0.08
  -3   3   9    0.84    0.20
  -3   3   9    0.60    0.07
  -3   3   9    0.75    0.20
  -3   3   9    0.74    0.12
   2  -3  -9    0.30    0.05
  -2   3   9    0.32    0.05
  -2   3   9    0.28    0.04
  -2   3   9    0.29    0.11
  -2   3   9    0.29    0.05
  -2   3   9    0.30    0.12
  -2   3   9    0.25    0.05
  -2   3   9    0.17    0.08
   1  -3  -9   12.44    0.33
   1  -3  -9   13.07    0.32
  -1   3   9   13.10    0.28
  -1   3   9   12.99    0.32
  -1   3   9   13.29    0.42
  -1   3   9   12.68    0.32
  -1   3   9   12.89    0.32
   0  -3  -9    7.99    0.23
   0  -3  -9    7.82    0.22
   0   3   9    8.16    0.22
   0   3   9    8.78    0.32
   0   3   9    8.46    0.22
   0   3   9    8.29    0.22
  -1  -3  -9    0.82    0.07
   1   3   9    0.70    0.06
   1   3   9    0.69    0.06
   1   3   9    0.72    0.10
   1   3   9    0.64    0.06
  -2  -3  -9    0.29    0.05
   2   3   9    0.37    0.05
   2   3   9    0.39    0.05
   2   3   9    0.38    0.09
   2   3   9    0.31    0.04
  -3  -3  -9    0.09    0.04
  -3  -3  -9    0.04    0.04
   3   3   9    0.01    0.03
   3   3   9    0.03    0.05
   3   3   9    0.01    0.03
   3   3   9    0.05    0.03
  -4  -3  -9    9.06    0.26
  -4  -3  -9    9.38    0.28
   4   3   9    9.38    0.25
   4   3   9    9.21    0.24
   4   3   9    9.15    0.34
   4   3   9    9.15    0.24
  -5  -3  -9   12.53    0.34
  -5  -3  -9   12.90    0.36
   5   3   9   12.89    0.32
   5   3   9   12.88    0.33
   5   3   9   12.95    0.32
  -6  -3  -9   -0.03    0.04
  -6  -3  -9    0.01    0.05
   6   3   9    0.11    0.04
   6   3   9    0.04    0.04
   6   3   9    0.02    0.04
  -7  -3  -9    0.08    0.05
  -7  -3  -9    0.04    0.05
   7   3   9    0.06    0.05
   7   3   9    0.08    0.05
   7   3   9    0.10    0.05
   5  -4  -9    0.49    0.09
  -5   4   9    0.49    0.23
  -5   4   9    0.37    0.08
  -5   4   9    0.38    0.11
  -5   4   9    0.57    0.09
  -5   4   9    0.55    0.09
  -5   4   9    0.39    0.07
  -5   4   9    0.47    0.04
  -5   4   9    0.51    0.07
  -5   4   9    0.44    0.04
  -5   4   9    0.56    0.10
  -5   4   9    0.68    0.08
  -5   4   9    0.48    0.10
   4  -4  -9    5.85    0.22
  -4   4   9    5.62    0.23
  -4   4   9    6.04    0.22
  -4   4   9    5.56    0.29
  -4   4   9    5.84    0.19
  -4   4   9    6.00    0.22
  -4   4   9    5.73    0.23
  -4   4   9    5.35    0.50
  -4   4   9    5.29    0.51
  -4   4   9    5.95    0.20
  -4   4   9    5.65    0.19
  -4   4   9    5.96    0.22
   3  -4  -9   -0.01    0.04
  -3   4   9    0.04    0.04
  -3   4   9    0.01    0.11
  -3   4   9   -0.03    0.07
  -3   4   9   -0.05    0.03
  -3   4   9   -0.01    0.03
  -3   4   9    0.05    0.04
  -3   4   9   -0.06    0.04
  -3   4   9    0.03    0.11
  -3   4   9    0.01    0.04
   2  -4  -9    0.12    0.04
   2  -4  -9    0.08    0.05
  -2   4   9    0.08    0.03
  -2   4   9    0.05    0.03
  -2   4   9    0.01    0.06
  -2   4   9    0.06    0.04
  -2   4   9    0.03    0.10
  -2   4   9    0.05    0.11
  -2   4   9    0.11    0.05
  -2   4   9    0.11    0.04
   1  -4  -9    0.60    0.07
   1  -4  -9    0.53    0.07
  -1   4   9    0.60    0.05
  -1   4   9    0.29    0.13
  -1   4   9    0.53    0.10
  -1   4   9    0.55    0.06
  -1   4   9    0.44    0.06
  -1   4   9    0.32    0.12
  -1   4   9    0.42    0.06
  -1   4   9    0.56    0.05
   0  -4  -9    0.29    0.05
   0  -4  -9    0.37    0.06
   0   4   9    0.30    0.05
   0   4   9    0.38    0.05
   0   4   9    0.30    0.04
   0   4   9    0.19    0.07
   0   4   9    0.24    0.05
  -1  -4  -9    1.53    0.10
   1   4   9    1.52    0.09
   1   4   9    1.39    0.09
   1   4   9    1.39    0.06
   1   4   9    1.38    0.09
   1   4   9    1.27    0.13
  -2  -4  -9   -0.02    0.03
   2   4   9    0.01    0.03
   2   4   9    0.02    0.05
   2   4   9    0.00    0.02
   2   4   9   -0.03    0.03
   2   4   9   -0.02    0.03
  -3  -4  -9    2.00    0.11
  -3  -4  -9    1.92    0.12
   3   4   9    1.86    0.10
   3   4   9    2.10    0.10
   3   4   9    1.74    0.07
   3   4   9    2.03    0.15
   3   4   9    1.80    0.10
  -4  -4  -9    1.22    0.10
  -4  -4  -9    1.43    0.11
   4   4   9    1.35    0.09
   4   4   9    1.24    0.06
   4   4   9    1.17    0.09
   4   4   9    1.18    0.09
   4   4   9    1.35    0.13
  -5  -4  -9    0.05    0.04
  -5  -4  -9    0.15    0.06
   5   4   9    0.04    0.04
   5   4   9    0.06    0.03
   5   4   9    0.13    0.05
   5   4   9    0.07    0.04
  -6  -4  -9   -0.01    0.05
  -6  -4  -9    0.01    0.04
   6   4   9    0.00    0.04
   6   4   9   -0.03    0.04
   6   4   9   -0.01    0.03
   6   4   9   -0.01    0.04
  -7  -4  -9   -0.02    0.06
  -7  -4  -9    0.00    0.05
   7   4   9   -0.03    0.04
   7   4   9   -0.01    0.05
   7   4   9   -0.06    0.04
   7   4   9    0.02    0.03
   5  -5  -9    1.23    0.13
   5  -5  -9    1.34    0.14
   5  -5  -9    1.31    0.13
  -5   5   9    1.22    0.11
  -5   5   9    1.14    0.11
  -5   5   9    1.25    0.11
  -5   5   9    1.16    0.12
  -5   5   9    1.13    0.12
  -5   5   9    0.98    0.14
  -5   5   9    1.24    0.12
  -5   5   9    0.86    0.08
  -5   5   9    0.92    0.14
   4  -5  -9    0.25    0.07
   4  -5  -9    0.18    0.07
   4  -5  -9    0.16    0.06
  -4   5   9    0.19    0.06
  -4   5   9    0.19    0.06
  -4   5   9    0.24    0.04
  -4   5   9    0.23    0.18
  -4   5   9    0.13    0.03
  -4   5   9    0.19    0.08
  -4   5   9    0.22    0.06
  -4   5   9    0.23    0.07
  -4   5   9    0.21    0.09
  -4   5   9    0.31    0.07
  -4   5   9    0.13    0.07
  -4   5   9    0.31    0.07
   3  -5  -9    1.45    0.12
   3  -5  -9    1.25    0.12
  -3   5   9    1.25    0.09
  -3   5   9    1.36    0.16
  -3   5   9    1.10    0.10
  -3   5   9    1.22    0.06
  -3   5   9    1.30    0.12
  -3   5   9    1.26    0.13
  -3   5   9    1.17    0.11
  -3   5   9    1.18    0.11
  -3   5   9    1.18    0.28
  -3   5   9    1.23    0.09
  -3   5   9    1.17    0.31
  -3   5   9    1.24    0.06
  -3   5   9    1.14    0.09
   2  -5  -9    0.65    0.08
   2  -5  -9    0.70    0.09
  -2   5   9    0.42    0.07
  -2   5   9    0.60    0.08
  -2   5   9    0.60    0.20
  -2   5   9    0.53    0.11
  -2   5   9    0.73    0.09
  -2   5   9    0.55    0.07
  -2   5   9    0.52    0.20
  -2   5   9    0.75    0.07
  -2   5   9    0.54    0.07
  -2   5   9    0.79    0.07
  -2   5   9    0.51    0.06
   1  -5  -9    1.42    0.11
   1  -5  -9    1.29    0.10
  -1   5   9    1.30    0.08
  -1   5   9    1.34    0.10
  -1   5   9    1.24    0.10
  -1   5   9    1.46    0.08
  -1   5   9    1.43    0.25
  -1   5   9    1.25    0.08
  -1   5   9    1.49    0.10
  -1   5   9    1.49    0.10
  -1   5   9    1.68    0.29
  -1   5   9    1.51    0.14
  -1   5   9    1.30    0.10
   0  -5  -9    0.06    0.04
   0  -5  -9    0.00    0.04
   0   5   9    0.04    0.09
   0   5   9    0.02    0.06
   0   5   9    0.10    0.04
   0   5   9    0.08    0.04
   0   5   9    0.03    0.03
   0   5   9    0.06    0.04
   0   5   9    0.04    0.03
   0   5   9   -0.04    0.09
   0   5   9    0.00    0.03
  -1  -5  -9    1.96    0.12
   1   5   9    1.89    0.11
   1   5   9    2.07    0.11
   1   5   9    1.90    0.10
   1   5   9    1.69    0.25
   1   5   9    1.53    0.13
   1   5   9    1.93    0.24
   1   5   9    2.03    0.09
   1   5   9    1.89    0.08
  -2  -5  -9    2.10    0.12
   2   5   9    2.11    0.08
   2   5   9    1.99    0.25
   2   5   9    2.02    0.24
   2   5   9    2.03    0.14
   2   5   9    2.09    0.11
   2   5   9    2.20    0.09
   2   5   9    2.03    0.11
   2   5   9    1.92    0.11
  -3  -5  -9    1.38    0.11
  -3  -5  -9    1.44    0.10
   3   5   9    0.99    0.19
   3   5   9    1.47    0.10
   3   5   9    1.41    0.13
   3   5   9    1.28    0.09
   3   5   9    1.41    0.07
   3   5   9    1.23    0.20
   3   5   9    1.52    0.10
  -4  -5  -9    0.00    0.04
  -4  -5  -9   -0.02    0.04
   4   5   9    0.01    0.08
   4   5   9    0.04    0.03
   4   5   9    0.01    0.09
   4   5   9    0.05    0.06
   4   5   9    0.07    0.04
   4   5   9    0.01    0.04
   4   5   9    0.03    0.04
  -5  -5  -9    1.87    0.13
  -5  -5  -9    1.81    0.13
   5   5   9    1.92    0.15
   5   5   9    1.84    0.12
   5   5   9    1.86    0.09
   5   5   9    2.06    0.12
   5   5   9    1.88    0.12
   5   5   9    1.95    0.26
   5   5   9    2.12    0.26
  -6  -5  -9    3.64    0.18
  -6  -5  -9    3.46    0.18
   6   5   9    3.87    0.36
   6   5   9    3.64    0.16
   6   5   9    3.66    0.17
   6   5   9    3.81    0.17
   6   5   9    3.61    0.13
   6   5   9    3.77    0.34
  -7  -5  -9    0.83    0.11
  -7  -5  -9    1.02    0.12
   7   5   9    1.21    0.25
   7   5   9    1.09    0.11
   7   5   9    1.08    0.25
   7   5   9    0.93    0.10
   7   5   9    1.10    0.08
   7   5   9    0.99    0.10
   7   5   9    1.03    0.22
   4  -6  -9    1.52    0.14
   4  -6  -9    1.50    0.15
   4  -6  -9    1.20    0.12
  -4   6   9    1.41    0.12
  -4   6   9    1.56    0.12
  -4   6   9    1.54    0.13
  -4   6   9    1.44    0.11
  -4   6   9    1.60    0.13
  -4   6   9    1.22    0.09
  -4   6   9    1.17    0.16
  -4   6   9    1.58    0.13
   3  -6  -9    0.38    0.08
   3  -6  -9    0.48    0.08
   3  -6  -9    0.66    0.09
  -3   6   9    0.45    0.07
  -3   6   9    0.41    0.07
  -3   6   9    0.35    0.08
  -3   6   9    0.56    0.09
  -3   6   9    0.36    0.10
  -3   6   9    0.37    0.09
  -3   6   9    0.49    0.07
  -3   6   9    0.34    0.05
  -3   6   9    0.47    0.07
  -3   6   9    0.31    0.19
  -3   6   9    0.47    0.08
   2  -6  -9    0.09    0.06
   2  -6  -9    0.09    0.05
   2  -6  -9    0.06    0.05
  -2   6   9   -0.03    0.05
  -2   6   9    0.11    0.05
  -2   6   9    0.03    0.04
  -2   6   9    0.06    0.13
  -2   6   9    0.06    0.06
  -2   6   9    0.07    0.05
  -2   6   9    0.04    0.03
  -2   6   9    0.14    0.03
  -2   6   9    0.05    0.05
  -2   6   9    0.05    0.04
  -2   6   9    0.04    0.07
  -2   6   9    0.05    0.04
   1  -6  -9    2.03    0.13
   1  -6  -9    1.97    0.12
   1  -6  -9    1.77    0.12
  -1   6   9    1.64    0.14
  -1   6   9    1.92    0.10
  -1   6   9    1.77    0.10
  -1   6   9    1.73    0.16
  -1   6   9    1.96    0.07
  -1   6   9    1.87    0.12
  -1   6   9    1.94    0.12
  -1   6   9    1.80    0.13
  -1   6   9    1.87    0.07
  -1   6   9    1.54    0.29
  -1   6   9    1.81    0.10
  -1   6   9    2.02    0.12
  -1   6   9    1.44    0.31
   0  -6  -9    1.30    0.10
   0  -6  -9    1.28    0.11
   0   6   9    1.51    0.10
   0   6   9    1.13    0.13
   0   6   9    1.28    0.09
   0   6   9    1.38    0.27
   0   6   9    1.34    0.10
   0   6   9    1.26    0.11
   0   6   9    1.26    0.11
   0   6   9    1.40    0.09
   0   6   9    1.26    0.10
   0   6   9    1.32    0.29
   0   6   9    1.24    0.09
  -1  -6  -9    2.54    0.14
   1   6   9    2.68    0.13
   1   6   9    2.71    0.33
   1   6   9    2.58    0.17
   1   6   9    2.37    0.13
   1   6   9    2.78    0.13
   1   6   9    2.78    0.14
   1   6   9    2.42    0.13
   1   6   9    2.43    0.33
   1   6   9    2.88    0.11
   1   6   9    3.00    0.12
   1   6   9    2.57    0.11
  -2  -6  -9    0.14    0.05
   2   6   9    0.13    0.05
   2   6   9    0.15    0.05
   2   6   9    0.20    0.14
   2   6   9    0.16    0.05
   2   6   9    0.16    0.06
   2   6   9    0.17    0.14
   2   6   9    0.18    0.05
   2   6   9    0.19    0.05
   2   6   9    0.18    0.04
   2   6   9    0.16    0.04
   2   6   9    0.17    0.04
  -3  -6  -9    7.03    0.24
  -3  -6  -9    7.46    0.25
   3   6   9    7.55    0.20
   3   6   9    7.44    0.52
   3   6   9    7.08    0.27
   3   6   9    7.37    0.23
   3   6   9    7.46    0.23
   3   6   9    7.69    0.22
   3   6   9    7.88    0.24
   3   6   9    7.15    0.52
   3   6   9    7.26    0.22
   3   6   9    7.55    0.21
  -4  -6  -9    2.02    0.13
  -4  -6  -9    2.06    0.14
   4   6   9    2.02    0.12
   4   6   9    2.17    0.12
   4   6   9    2.05    0.10
   4   6   9    2.17    0.31
   4   6   9    2.08    0.10
   4   6   9    2.13    0.11
   4   6   9    2.06    0.10
   4   6   9    2.17    0.31
   4   6   9    1.98    0.12
  -5  -6  -9    5.64    0.23
  -5  -6  -9    5.94    0.22
  -5  -6  -9    6.05    0.23
   5   6   9    6.17    0.21
   5   6   9    6.20    0.22
   5   6   9    6.25    0.19
   5   6   9    5.35    0.47
   5   6   9    6.09    0.21
   5   6   9    5.99    0.18
   5   6   9    5.78    0.48
   5   6   9    6.22    0.18
  -6  -6  -9    4.90    0.22
  -6  -6  -9    5.02    0.20
  -6  -6  -9    5.16    0.22
   6   6   9    4.93    0.17
   6   6   9    5.16    0.48
   6   6   9    4.77    0.46
   6   6   9    5.39    0.21
   6   6   9    5.26    0.21
   6   6   9    5.03    0.20
  -7  -6  -9    9.19    0.32
  -7  -6  -9    9.59    0.30
  -7  -6  -9    9.49    0.32
   7   6   9    8.76    0.64
   7   6   9    9.18    0.30
   7   6   9    9.26    0.64
   7   6   9    9.36    0.26
   7   6   9    9.27    0.30
   7   6   9    8.62    0.63
   7   6   9    9.45    0.30
   3  -7  -9    0.20    0.07
   3  -7  -9    0.07    0.07
   3  -7  -9    0.23    0.07
  -3   7   9    0.09    0.07
  -3   7   9    0.18    0.05
  -3   7   9    0.11    0.08
  -3   7   9    0.20    0.06
  -3   7   9    0.23    0.07
  -3   7   9    0.12    0.06
  -3   7   9    0.18    0.06
  -3   7   9    0.10    0.06
  -3   7   9    0.19    0.06
   2  -7  -9    1.72    0.14
   2  -7  -9    1.41    0.13
   2  -7  -9    1.45    0.13
  -2   7   9    1.42    0.11
  -2   7   9    1.54    0.09
  -2   7   9    1.61    0.12
  -2   7   9    1.52    0.12
  -2   7   9    1.60    0.12
  -2   7   9    1.52    0.34
  -2   7   9    1.47    0.12
  -2   7   9    1.58    0.13
  -2   7   9    1.18    0.15
  -2   7   9    1.59    0.15
  -2   7   9    1.57    0.16
   1  -7  -9    2.42    0.14
   1  -7  -9    2.06    0.14
   1  -7  -9    2.14    0.14
  -1   7   9    2.53    0.18
  -1   7   9    2.12    0.14
  -1   7   9    2.44    0.38
  -1   7   9    2.16    0.16
  -1   7   9    2.21    0.17
  -1   7   9    2.02    0.13
  -1   7   9    2.08    0.12
  -1   7   9    2.33    0.13
  -1   7   9    2.28    0.13
  -1   7   9    2.26    0.14
  -1   7   9    2.11    0.10
   0  -7  -9    0.68    0.09
   0  -7  -9    0.56    0.08
   0  -7  -9    0.66    0.09
   0   7   9    0.58    0.08
   0   7   9    0.65    0.23
   0   7   9    0.62    0.10
   0   7   9    0.67    0.08
   0   7   9    0.64    0.08
   0   7   9    0.64    0.08
   0   7   9    0.58    0.09
   0   7   9    0.73    0.08
   0   7   9    0.61    0.05
   0   7   9    0.72    0.06
   0   7   9    0.62    0.08
   0   7   9    0.71    0.11
  -1  -7  -9    0.47    0.07
  -1  -7  -9    0.25    0.06
   1   7   9    0.38    0.07
   1   7   9    0.36    0.06
   1   7   9    0.33    0.06
   1   7   9    0.32    0.04
   1   7   9    0.35    0.04
   1   7   9    0.42    0.09
   1   7   9    0.33    0.06
   1   7   9    0.23    0.06
   1   7   9    0.27    0.07
   1   7   9    0.38    0.06
   1   7   9    0.35    0.18
   1   7   9    0.32    0.08
  -2  -7  -9    0.33    0.07
  -2  -7  -9    0.34    0.07
   2   7   9    0.32    0.04
   2   7   9    0.35    0.08
   2   7   9    0.32    0.08
   2   7   9    0.34    0.06
   2   7   9    0.35    0.08
   2   7   9    0.35    0.04
   2   7   9    0.39    0.20
   2   7   9    0.28    0.05
   2   7   9    0.33    0.06
   2   7   9    0.35    0.18
   2   7   9    0.45    0.07
   2   7   9    0.26    0.06
   2   7   9    0.44    0.06
  -3  -7  -9    0.41    0.07
  -3  -7  -9    0.28    0.07
   3   7   9    0.42    0.04
   3   7   9    0.41    0.08
   3   7   9    0.43    0.06
   3   7   9    0.37    0.07
   3   7   9    0.31    0.18
   3   7   9    0.40    0.08
   3   7   9    0.44    0.07
   3   7   9    0.48    0.06
   3   7   9    0.43    0.04
   3   7   9    0.45    0.07
   3   7   9    0.23    0.16
   3   7   9    0.43    0.06
  -4  -7  -9    0.00    0.05
  -4  -7  -9   -0.09    0.04
   4   7   9   -0.01    0.04
   4   7   9    0.03    0.05
   4   7   9   -0.01    0.04
   4   7   9   -0.03    0.12
   4   7   9   -0.01    0.04
   4   7   9   -0.01    0.05
   4   7   9   -0.02    0.10
   4   7   9    0.02    0.04
   4   7   9    0.00    0.04
   4   7   9   -0.03    0.04
  -5  -7  -9    1.82    0.14
  -5  -7  -9    1.85    0.14
   5   7   9    1.84    0.15
   5   7   9    2.02    0.13
   5   7   9    1.94    0.13
   5   7   9    1.88    0.11
   5   7   9    2.09    0.15
   5   7   9    2.03    0.34
   5   7   9    1.76    0.34
   5   7   9    2.07    0.14
   5   7   9    2.00    0.14
   5   7   9    1.89    0.11
  -6  -7  -9    0.90    0.11
  -6  -7  -9    0.79    0.11
  -6  -7  -9    0.89    0.11
   6   7   9    0.59    0.23
   6   7   9    0.95    0.10
   6   7   9    0.82    0.11
   6   7   9    0.92    0.10
   6   7   9    0.83    0.11
   6   7   9    0.71    0.08
   6   7   9    0.73    0.08
   6   7   9    0.64    0.09
   6   7   9    0.75    0.26
   2  -8  -9    0.04    0.06
   2  -8  -9    0.13    0.06
  -2   8   9    0.22    0.07
  -2   8   9    0.11    0.08
  -2   8   9    0.12    0.05
  -2   8   9    0.12    0.06
  -2   8   9   -0.01    0.05
  -2   8   9    0.11    0.06
  -2   8   9    0.17    0.06
  -2   8   9    0.03    0.06
   1  -8  -9   -0.08    0.05
   1  -8  -9    0.03    0.06
   1  -8  -9   -0.01    0.05
  -1   8   9    0.06    0.06
  -1   8   9    0.04    0.05
  -1   8   9    0.06    0.06
  -1   8   9    0.04    0.04
  -1   8   9   -0.03    0.05
  -1   8   9    0.09    0.05
  -1   8   9    0.04    0.07
  -1   8   9   -0.01    0.04
  -1   8   9    0.04    0.07
   0  -8  -9    2.92    0.16
   0   8   9    2.58    0.14
   0   8   9    2.53    0.15
   0   8   9    2.58    0.14
   0   8   9    2.81    0.16
   0   8   9    2.75    0.18
   0   8   9    2.72    0.14
   0   8   9    2.73    0.15
   0   8   9    2.41    0.21
   0   8   9    2.58    0.12
   0   8   9    2.83    0.20
  -1  -8  -9    0.05    0.05
  -1  -8  -9    0.09    0.06
   1   8   9    0.08    0.05
   1   8   9    0.05    0.03
   1   8   9    0.06    0.05
   1   8   9    0.01    0.04
   1   8   9    0.08    0.05
   1   8   9   -0.02    0.06
   1   8   9    0.05    0.06
   1   8   9    0.03    0.05
   1   8   9    0.03    0.13
   1   8   9    0.05    0.05
  -2  -8  -9    0.28    0.07
  -2  -8  -9    0.10    0.06
   2   8   9    0.21    0.06
   2   8   9    0.16    0.07
   2   8   9    0.14    0.06
   2   8   9    0.16    0.06
   2   8   9    0.26    0.06
   2   8   9    0.20    0.08
   2   8   9    0.14    0.04
   2   8   9    0.21    0.18
   2   8   9    0.22    0.05
   2   8   9    0.17    0.05
  -3  -8  -9    1.03    0.11
  -3  -8  -9    1.19    0.12
  -3  -8  -9    1.23    0.12
   3   8   9    1.22    0.11
   3   8   9    1.09    0.13
   3   8   9    1.17    0.31
   3   8   9    1.31    0.10
   3   8   9    1.13    0.08
   3   8   9    1.27    0.10
   3   8   9    1.25    0.10
   3   8   9    1.13    0.11
   3   8   9    1.20    0.14
   3   8   9    1.05    0.11
  -4  -8  -9    0.69    0.10
  -4  -8  -9    0.99    0.11
  -4  -8  -9    0.86    0.11
   4   8   9    0.78    0.09
   4   8   9    0.95    0.29
   4   8   9    0.86    0.09
   4   8   9    0.87    0.13
   4   8   9    0.71    0.08
   4   8   9    0.94    0.10
   4   8   9    0.90    0.10
   4   8   9    0.88    0.09
   4   8   9    1.01    0.13
   4   8   9    0.83    0.08
   4   8   9    0.97    0.07
  -5  -8  -9   -0.03    0.06
  -5  -8  -9    0.04    0.06
  -5  -8  -9   -0.01    0.05
   5   8   9    0.00    0.05
   5   8   9   -0.01    0.05
   5   8   9    0.06    0.05
   5   8   9   -0.02    0.04
   5   8   9    0.01    0.04
   5   8   9    0.02    0.13
   5   8   9   -0.04    0.05
   5   8   9    0.04    0.05
   5   8   9   -0.02    0.03
   5   8   9   -0.03    0.04
   5   8   9    0.04    0.03
  -6  -8  -9    0.50    0.09
  -6  -8  -9    0.42    0.09
  -6  -8  -9    0.54    0.09
   6   8   9    0.47    0.09
   6   8   9    0.55    0.09
   6   8   9    0.53    0.24
   6   8   9    0.60    0.11
   6   8   9    0.60    0.10
   6   8   9    0.56    0.08
   6   8   9    0.51    0.05
   6   8   9    0.50    0.08
   6   8   9    0.58    0.25
   6   8   9    0.62    0.08
   6   8   9    0.52    0.05
   6   8   9    0.49    0.10
   1  -9  -9    0.15    0.07
   1  -9  -9    0.07    0.06
  -1   9   9    0.22    0.07
  -1   9   9    0.13    0.07
  -1   9   9    0.21    0.06
  -1   9   9    0.23    0.07
  -1   9   9    0.16    0.06
  -1   9   9    0.13    0.06
  -1   9   9    0.17    0.07
   0  -9  -9    0.66    0.10
   0   9   9    0.67    0.08
   0   9   9    0.64    0.09
   0   9   9    0.60    0.09
   0   9   9    0.47    0.08
   0   9   9    0.60    0.09
   0   9   9    0.62    0.09
   0   9   9    0.78    0.10
  -1  -9  -9    0.06    0.07
  -1  -9  -9    0.12    0.07
   1   9   9    0.04    0.06
   1   9   9   -0.02    0.05
   1   9   9    0.04    0.04
   1   9   9   -0.03    0.05
   1   9   9    0.07    0.06
   1   9   9    0.08    0.05
   1   9   9    0.06    0.06
  -2  -9  -9    0.59    0.10
  -2  -9  -9    0.61    0.10
  -2  -9  -9    0.73    0.10
   2   9   9    0.91    0.20
   2   9   9    0.62    0.09
   2   9   9    0.68    0.09
   2   9   9    0.67    0.09
   2   9   9    0.67    0.09
   2   9   9    0.63    0.09
   2   9   9    0.65    0.07
   2   9   9    0.48    0.08
  -3  -9  -9    2.12    0.16
  -3  -9  -9    2.02    0.15
  -3  -9  -9    2.12    0.15
   3   9   9    2.15    0.14
   3   9   9    2.00    0.14
   3   9   9    2.03    0.15
   3   9   9    1.83    0.18
   3   9   9    2.25    0.14
   3   9   9    1.89    0.13
   3   9   9    1.81    0.14
   3   9   9    1.98    0.11
  -4  -9  -9    0.37    0.08
  -4  -9  -9    0.33    0.08
  -4  -9  -9    0.45    0.09
   4   9   9    0.28    0.05
   4   9   9    0.30    0.07
   4   9   9    0.27    0.09
   4   9   9    0.36    0.07
   4   9   9    0.22    0.07
   4   9   9    0.32    0.07
   4   9   9    0.27    0.08
   4   9   9    0.34    0.07
  -5  -9  -9    1.21    0.13
  -5  -9  -9    1.13    0.13
   5   9   9    0.92    0.11
   5   9   9    1.31    0.09
   5   9   9    1.31    0.12
   5   9   9    1.14    0.12
   5   9   9    1.23    0.11
   5   9   9    1.15    0.11
   5   9   9    1.06    0.12
   5   9   9    1.06    0.15
  -2 -10  -9    0.57    0.10
  -2 -10  -9    0.50    0.09
   2  10   9    0.45    0.07
   2  10   9    0.43    0.08
   2  10   9    0.39    0.08
   2  10   9    0.38    0.08
   2  10   9    0.53    0.10
   2  10   9    0.42    0.08
   2  10   9    0.40    0.08
  -2  -3  10   -0.01    0.05
  -2  -3  10    0.06    0.08
  -2  -3  10    0.01    0.03
  -1  -3  10    0.62    0.10
  -1  -3  10    0.43    0.11
  -1  -3  10    0.52    0.04
   0  -3  10    0.71    0.13
   0  -3  10    0.82    0.11
   1  -3  10    0.07    0.08
   1  -3  10    0.06    0.06
   2  -3  10    0.20    0.09
   2  -3  10    0.15    0.07
  -3  -2  10    0.13    0.04
  -3  -2  10    0.17    0.04
  -3  -2  10    0.15    0.04
  -3  -2  10    0.18    0.09
  -3  -2  10    0.12    0.04
  -2  -2  10    0.62    0.13
  -2  -2  10    0.61    0.06
  -2  -2  10    0.62    0.05
  -1  -2  10    1.43    0.07
  -1  -2  10    1.66    0.17
   0  -2  10    4.02    0.25
   0  -2  10    4.07    0.20
   1  -2  10    2.71    0.21
   1  -2  10    2.31    0.15
   2  -2  10    0.03    0.08
   2  -2  10    0.04    0.05
   3  -2  10    0.93    0.15
   3  -2  10    0.85    0.11
   4   1 -10    0.60    0.07
  -4  -1  10    0.70    0.08
  -4  -1  10    0.52    0.12
  -4  -1  10    0.61    0.07
  -4  -1  10    0.57    0.07
  -3  -1  10    2.39    0.11
  -3  -1  10    2.48    0.20
  -3  -1  10    2.34    0.12
  -3  -1  10    2.49    0.11
  -2  -1  10    0.55    0.05
  -2  -1  10    0.50    0.05
  -2  -1  10    0.52    0.11
  -2  -1  10    0.46    0.06
  -1  -1  10    0.03    0.03
  -1  -1  10    0.08    0.02
  -1  -1  10    0.08    0.07
   0  -1  10    3.53    0.22
   0  -1  10    3.12    0.09
   1  -1  10    4.33    0.25
   2  -1  10    2.95    0.21
   2  -1  10    3.39    0.18
  -3   1 -10    0.84    0.05
   3  -1  10    0.83    0.15
   3  -1  10    0.89    0.11
   3  -1  10    0.83    0.05
  -4   1 -10    4.52    0.14
   4  -1  10    4.73    0.14
   4  -1  10    4.72    0.21
   4   0 -10    0.99    0.08
  -4   0  10    0.91    0.09
  -4   0  10    1.07    0.10
  -4   0  10    1.10    0.10
  -4   0  10    0.99    0.15
   3   0 -10    0.55    0.06
  -3   0  10    0.58    0.07
  -3   0  10    0.56    0.06
  -3   0  10    0.53    0.06
  -3   0  10    0.63    0.07
  -3   0  10    0.47    0.11
  -2   0  10    1.75    0.09
  -2   0  10    1.73    0.17
  -2   0  10    1.80    0.09
  -2   0  10    1.68    0.09
  -2   0  10    1.85    0.09
  -1   0  10    3.91    0.12
  -1   0  10    4.08    0.13
  -1   0  10    3.73    0.23
  -1   0  10    3.90    0.12
   0   0  10    0.04    0.02
   0   0  10    0.02    0.02
   0   0  10    0.05    0.07
  -1   0 -10    0.00    0.02
   1   0  10   -0.03    0.02
   1   0  10    0.02    0.07
  -2   0 -10    0.71    0.05
   2   0  10    0.75    0.05
   2   0  10    0.70    0.13
  -3   0 -10    0.36    0.04
   3   0  10    0.37    0.04
   3   0  10    0.38    0.10
  -4   0 -10    1.24    0.08
   4   0  10    1.43    0.18
   4   0  10    1.31    0.07
   4   0  10    1.35    0.06
  -5   0 -10    3.10    0.13
   5   0  10    3.26    0.12
   5   0  10    3.16    0.11
   4  -1 -10    0.36    0.06
  -4   1  10    0.45    0.07
  -4   1  10    0.24    0.06
  -4   1  10    0.19    0.09
  -4   1  10    0.39    0.06
  -4   1  10    0.27    0.06
   3  -1 -10    0.84    0.08
  -3   1  10    0.77    0.08
  -3   1  10    0.68    0.07
  -3   1  10    0.71    0.13
  -3   1  10    0.75    0.08
   2  -1 -10    0.01    0.03
  -2   1  10    0.03    0.04
  -2   1  10    0.07    0.04
  -2   1  10    0.10    0.04
  -2   1  10   -0.01    0.07
   1  -1 -10    2.22    0.12
  -1   1  10    2.36    0.10
  -1   1  10    2.42    0.10
  -1   1  10    2.57    0.19
  -1   1  10    2.40    0.10
   0   1  10    1.07    0.06
   0   1  10    0.93    0.06
   0   1  10    1.14    0.14
   0   1  10    1.11    0.07
  -1  -1 -10    0.00    0.02
   1   1  10    0.01    0.02
   1   1  10   -0.02    0.02
   1   1  10   -0.01    0.06
   1   1  10   -0.03    0.02
  -2  -1 -10    0.32    0.06
  -2  -1 -10    0.28    0.04
   2   1  10    0.34    0.04
   2   1  10    0.38    0.04
   2   1  10    0.33    0.03
   2   1  10    0.43    0.10
  -3  -1 -10    2.32    0.12
  -3  -1 -10    2.40    0.10
   3   1  10    2.28    0.18
   3   1  10    2.35    0.09
   3   1  10    2.28    0.09
   3   1  10    2.30    0.08
  -4  -1 -10    2.13    0.10
   4   1  10    2.19    0.10
   4   1  10    2.18    0.10
   4   1  10    1.96    0.08
   4   1  10    2.11    0.18
  -5  -1 -10    0.57    0.07
   5   1  10    0.61    0.06
   5   1  10    0.69    0.07
   5   1  10    0.66    0.07
   4  -2 -10    0.46    0.07
  -4   2  10    0.53    0.08
  -4   2  10    0.61    0.08
  -4   2  10    0.59    0.05
  -4   2  10    0.51    0.12
  -4   2  10    0.50    0.07
   3  -2 -10    0.27    0.05
  -3   2  10    0.23    0.05
  -3   2  10    0.29    0.06
  -3   2  10    0.41    0.11
  -3   2  10    0.39    0.06
   2  -2 -10    0.13    0.04
  -2   2  10    0.10    0.04
  -2   2  10    0.06    0.04
  -2   2  10    0.04    0.04
  -2   2  10    0.10    0.08
   1  -2 -10    0.94    0.07
  -1   2  10    0.87    0.07
  -1   2  10    0.93    0.07
  -1   2  10    1.09    0.15
  -1   2  10    1.04    0.08
   0  -2 -10    1.15    0.08
   0   2  10    1.31    0.08
   0   2  10    1.40    0.17
   0   2  10    1.54    0.08
   0   2  10    1.36    0.08
  -1  -2 -10    6.80    0.20
   1   2  10    7.26    0.19
   1   2  10    7.03    0.18
   1   2  10    7.07    0.19
   1   2  10    6.95    0.30
  -2  -2 -10    0.80    0.07
   2   2  10    0.75    0.06
   2   2  10    0.76    0.06
   2   2  10    0.80    0.12
   2   2  10    0.79    0.06
  -3  -2 -10    5.01    0.19
  -3  -2 -10    4.70    0.16
   3   2  10    4.82    0.15
   3   2  10    4.90    0.14
   3   2  10    4.70    0.25
   3   2  10    4.87    0.15
  -4  -2 -10    0.39    0.07
  -4  -2 -10    0.35    0.06
   4   2  10    0.36    0.05
   4   2  10    0.30    0.09
   4   2  10    0.45    0.05
   4   2  10    0.44    0.05
  -5  -2 -10    2.47    0.14
  -5  -2 -10    2.21    0.12
   5   2  10    2.29    0.11
   5   2  10    2.16    0.10
   5   2  10    2.36    0.11
  -6  -2 -10    2.20    0.13
  -6  -2 -10    2.20    0.20
   6   2  10    2.42    0.12
   6   2  10    2.36    0.12
   6   2  10    2.33    0.12
   4  -3 -10    0.21    0.06
  -4   3  10    0.18    0.14
  -4   3  10    0.11    0.12
  -4   3  10    0.22    0.10
  -4   3  10    0.15    0.06
  -4   3  10    0.14    0.04
  -4   3  10    0.18    0.06
  -4   3  10    0.10    0.05
   3  -3 -10    0.62    0.08
  -3   3  10    0.77    0.14
  -3   3  10    0.68    0.06
  -3   3  10    0.81    0.09
  -3   3  10    0.72    0.08
  -3   3  10    0.80    0.08
  -3   3  10    0.69    0.15
   2  -3 -10    0.08    0.04
  -2   3  10    0.03    0.07
  -2   3  10    0.01    0.04
  -2   3  10    0.05    0.02
  -2   3  10    0.09    0.04
  -2   3  10    0.05    0.04
   1  -3 -10    9.99    0.28
   1  -3 -10   10.06    0.27
  -1   3  10   10.28    0.38
  -1   3  10    9.87    0.27
  -1   3  10   10.58    0.27
  -1   3  10   10.00    0.27
   0  -3 -10    2.92    0.13
   0   3  10    2.97    0.12
   0   3  10    3.05    0.12
   0   3  10    3.05    0.12
   0   3  10    3.18    0.20
  -1  -3 -10    1.75    0.10
   1   3  10    1.84    0.09
   1   3  10    1.68    0.09
   1   3  10    1.69    0.09
   1   3  10    1.98    0.16
  -2  -3 -10    0.01    0.03
   2   3  10    0.01    0.03
   2   3  10    0.00    0.03
   2   3  10    0.00    0.03
   2   3  10    0.03    0.06
  -3  -3 -10    1.88    0.12
  -3  -3 -10    2.10    0.11
   3   3  10    2.05    0.10
   3   3  10    2.09    0.10
   3   3  10    2.09    0.10
   3   3  10    2.00    0.16
  -4  -3 -10    0.18    0.05
  -4  -3 -10    0.23    0.06
   4   3  10    0.18    0.04
   4   3  10    0.15    0.04
   4   3  10    0.22    0.08
   4   3  10    0.20    0.05
  -5  -3 -10    0.07    0.05
  -5  -3 -10   -0.01    0.04
   5   3  10    0.07    0.04
   5   3  10    0.00    0.04
   5   3  10    0.03    0.04
  -6  -3 -10    2.83    0.15
  -6  -3 -10    2.96    0.16
   6   3  10    2.87    0.13
   6   3  10    2.83    0.14
   6   3  10    2.76    0.14
   4  -4 -10    1.44    0.12
  -4   4  10    1.69    0.13
  -4   4  10    1.77    0.13
  -4   4  10    1.54    0.10
  -4   4  10    1.66    0.13
  -4   4  10    1.15    0.29
  -4   4  10    1.38    0.17
  -4   4  10    1.21    0.28
   3  -4 -10    0.04    0.05
   3  -4 -10    0.00    0.05
  -3   4  10    0.00    0.05
  -3   4  10    0.04    0.08
  -3   4  10   -0.03    0.04
  -3   4  10   -0.04    0.10
  -3   4  10   -0.03    0.03
  -3   4  10    0.00    0.04
  -3   4  10    0.00    0.11
   2  -4 -10    9.05    0.28
   2  -4 -10    9.04    0.26
  -2   4  10    8.65    0.22
  -2   4  10    8.81    0.26
  -2   4  10    8.39    0.46
  -2   4  10    8.01    0.34
  -2   4  10    8.79    0.26
  -2   4  10    9.07    0.26
  -2   4  10    7.78    0.46
   1  -4 -10    0.82    0.09
   1  -4 -10    0.93    0.08
  -1   4  10    1.01    0.09
  -1   4  10    0.96    0.06
  -1   4  10    1.08    0.09
  -1   4  10    1.15    0.15
  -1   4  10    1.04    0.09
   0  -4 -10   15.49    0.39
   0   4  10   15.79    0.32
   0   4  10   14.60    0.37
   0   4  10   15.38    0.48
   0   4  10   15.70    0.37
   0   4  10   15.33    0.38
  -1  -4 -10    0.03    0.04
   1   4  10    0.02    0.03
   1   4  10    0.07    0.07
   1   4  10   -0.01    0.03
   1   4  10   -0.04    0.03
  -2  -4 -10    0.60    0.07
   2   4  10    0.60    0.06
   2   4  10    0.65    0.11
   2   4  10    0.70    0.07
   2   4  10    0.58    0.06
  -3  -4 -10    0.53    0.07
  -3  -4 -10    0.47    0.08
   3   4  10    0.42    0.06
   3   4  10    0.59    0.11
   3   4  10    0.47    0.06
   3   4  10    0.53    0.07
  -4  -4 -10    0.77    0.09
  -4  -4 -10    0.71    0.08
   4   4  10    0.84    0.08
   4   4  10    0.75    0.07
   4   4  10    0.70    0.11
   4   4  10    0.73    0.07
  -5  -4 -10    1.24    0.12
  -5  -4 -10    0.98    0.10
   5   4  10    0.86    0.09
   5   4  10    1.16    0.09
   5   4  10    1.01    0.13
   5   4  10    1.13    0.09
  -6  -4 -10    1.10    0.12
  -6  -4 -10    1.05    0.11
   6   4  10    1.06    0.10
   6   4  10    1.14    0.10
   6   4  10    1.22    0.10
   4  -5 -10    0.23    0.07
   4  -5 -10    0.18    0.07
  -4   5  10    0.28    0.07
  -4   5  10    0.20    0.07
  -4   5  10    0.27    0.07
  -4   5  10    0.24    0.05
  -4   5  10    0.23    0.06
  -4   5  10    0.21    0.07
  -4   5  10    0.08    0.06
  -4   5  10    0.30    0.11
  -4   5  10    0.38    0.20
   3  -5 -10    1.12    0.12
   3  -5 -10    1.08    0.11
  -3   5  10    1.12    0.11
  -3   5  10    0.69    0.23
  -3   5  10    0.93    0.10
  -3   5  10    1.26    0.11
  -3   5  10    1.20    0.09
  -3   5  10    0.79    0.14
  -3   5  10    1.28    0.12
  -3   5  10    1.10    0.09
  -3   5  10    1.06    0.10
   2  -5 -10    0.10    0.05
   2  -5 -10    0.08    0.05
  -2   5  10    0.09    0.05
  -2   5  10    0.09    0.05
  -2   5  10    0.05    0.08
  -2   5  10    0.03    0.11
  -2   5  10    0.02    0.04
  -2   5  10    0.14    0.05
  -2   5  10    0.11    0.13
   1  -5 -10    0.22    0.06
   1  -5 -10    0.32    0.06
  -1   5  10    0.28    0.05
  -1   5  10    0.21    0.06
  -1   5  10    0.20    0.13
  -1   5  10    0.22    0.13
  -1   5  10    0.33    0.06
  -1   5  10    0.32    0.09
  -1   5  10    0.30    0.06
   0  -5 -10    1.70    0.12
   0   5  10    1.28    0.22
   0   5  10    1.82    0.08
   0   5  10    1.43    0.21
   0   5  10    1.82    0.11
   0   5  10    1.72    0.16
   0   5  10    1.62    0.10
   0   5  10    1.81    0.11
  -1  -5 -10    0.93    0.10
   1   5  10    0.79    0.08
   1   5  10    0.82    0.15
   1   5  10    0.69    0.06
   1   5  10    0.72    0.08
   1   5  10    0.85    0.12
   1   5  10    0.79    0.08
  -2  -5 -10    7.64    0.25
   2   5  10    7.85    0.23
   2   5  10    7.84    0.23
   2   5  10    7.80    0.24
   2   5  10    8.03    0.31
   2   5  10    8.10    0.19
  -3  -5 -10    1.98    0.13
  -3  -5 -10    2.02    0.12
   3   5  10    1.89    0.11
   3   5  10    2.01    0.11
   3   5  10    1.75    0.11
   3   5  10    1.97    0.16
   3   5  10    1.98    0.08
  -4  -5 -10    0.61    0.09
  -4  -5 -10    0.49    0.08
   4   5  10    0.51    0.07
   4   5  10    0.51    0.07
   4   5  10    0.61    0.08
   4   5  10    0.55    0.05
   4   5  10    0.56    0.10
  -5  -5 -10    4.46    0.19
  -5  -5 -10    4.14    0.19
   5   5  10    4.03    0.12
   5   5  10    3.93    0.17
   5   5  10    4.14    0.22
   5   5  10    4.22    0.17
   5   5  10    4.04    0.17
  -6  -5 -10    6.41    0.25
  -6  -5 -10    6.69    0.25
   6   5  10    6.61    0.23
   6   5  10    6.51    0.17
   6   5  10    6.52    0.23
   6   5  10    6.47    0.23
   3  -6 -10   11.19    0.34
   3  -6 -10   11.17    0.36
  -3   6  10   11.58    0.34
  -3   6  10   10.24    0.73
  -3   6  10   10.76    0.30
  -3   6  10   10.83    0.33
  -3   6  10   10.18    0.35
  -3   6  10   10.65    0.36
  -3   6  10   11.02    0.33
  -3   6  10   10.85    0.30
  -3   6  10   10.78    0.42
   2  -6 -10    0.17    0.06
   2  -6 -10    0.18    0.07
  -2   6  10    0.30    0.10
  -2   6  10    0.17    0.15
  -2   6  10    0.16    0.06
  -2   6  10    0.22    0.06
  -2   6  10    0.17    0.06
  -2   6  10    0.20    0.18
  -2   6  10    0.24    0.05
  -2   6  10    0.12    0.06
  -2   6  10    0.09    0.06
  -2   6  10    0.16    0.05
   1  -6 -10    0.36    0.08
   1  -6 -10    0.25    0.06
  -1   6  10    0.15    0.06
  -1   6  10    0.20    0.09
  -1   6  10    0.22    0.05
  -1   6  10    0.25    0.05
  -1   6  10    0.14    0.13
  -1   6  10    0.16    0.05
  -1   6  10    0.27    0.18
  -1   6  10    0.28    0.05
  -1   6  10    0.23    0.06
  -1   6  10    0.22    0.06
   0  -6 -10    3.11    0.16
   0   6  10    2.96    0.15
   0   6  10    2.79    0.11
   0   6  10    3.02    0.34
   0   6  10    2.66    0.34
   0   6  10    2.82    0.14
   0   6  10    2.75    0.19
   0   6  10    2.97    0.15
   0   6  10    3.05    0.12
  -1  -6 -10    2.12    0.14
   1   6  10    2.09    0.10
   1   6  10    2.23    0.13
   1   6  10    1.91    0.16
   1   6  10    2.10    0.12
   1   6  10    1.99    0.29
   1   6  10    2.25    0.12
   1   6  10    2.10    0.28
  -2  -6 -10    1.79    0.13
   2   6  10    1.73    0.25
   2   6  10    1.42    0.24
   2   6  10    1.57    0.09
   2   6  10    1.73    0.15
   2   6  10    1.70    0.11
   2   6  10    1.70    0.11
   2   6  10    1.65    0.11
  -3  -6 -10    0.04    0.05
  -3  -6 -10    0.04    0.05
   3   6  10   -0.01    0.04
   3   6  10    0.00    0.09
   3   6  10   -0.02    0.04
   3   6  10    0.02    0.10
   3   6  10   -0.01    0.05
   3   6  10    0.00    0.03
   3   6  10   -0.04    0.04
  -4  -6 -10   -0.04    0.05
  -4  -6 -10    0.06    0.05
   4   6  10    0.05    0.03
   4   6  10   -0.01    0.04
   4   6  10   -0.04    0.04
   4   6  10    0.00    0.09
   4   6  10   -0.02    0.04
   4   6  10    0.02    0.09
  -5  -6 -10    0.03    0.05
  -5  -6 -10    0.06    0.06
   5   6  10   -0.04    0.09
   5   6  10    0.03    0.05
   5   6  10    0.04    0.05
   5   6  10    0.01    0.05
   5   6  10    0.00    0.10
   5   6  10    0.02    0.03
  -6  -6 -10    0.64    0.10
  -6  -6 -10    0.63    0.09
   6   6  10    0.53    0.09
   6   6  10    0.55    0.18
   6   6  10    0.52    0.08
   6   6  10    0.67    0.07
   6   6  10    0.67    0.09
   6   6  10    0.54    0.16
   2  -7 -10    6.10    0.25
   2  -7 -10    5.89    0.24
  -2   7  10    5.73    0.23
  -2   7  10    6.20    0.24
  -2   7  10    5.80    0.27
  -2   7  10    6.04    0.30
  -2   7  10    5.57    0.15
  -2   7  10    5.78    0.21
  -2   7  10    5.94    0.16
  -2   7  10    5.92    0.57
  -2   7  10    5.73    0.26
  -2   7  10    5.89    0.21
  -2   7  10    5.60    0.21
  -2   7  10    5.90    0.23
   1  -7 -10    0.12    0.06
   1  -7 -10    0.13    0.06
  -1   7  10    0.17    0.16
  -1   7  10    0.11    0.06
  -1   7  10    0.13    0.06
  -1   7  10    0.14    0.06
  -1   7  10    0.21    0.06
  -1   7  10    0.19    0.08
  -1   7  10    0.13    0.05
  -1   7  10    0.20    0.07
  -1   7  10    0.12    0.06
  -1   7  10    0.27    0.06
   0  -7 -10    0.26    0.07
   0   7  10    0.34    0.07
   0   7  10    0.43    0.10
   0   7  10    0.37    0.07
   0   7  10    0.48    0.08
   0   7  10    0.47    0.20
   0   7  10    0.46    0.08
   0   7  10    0.38    0.06
   0   7  10    0.44    0.20
   0   7  10    0.37    0.07
   0   7  10    0.39    0.06
  -1  -7 -10    0.28    0.07
   1   7  10    0.30    0.09
   1   7  10    0.31    0.17
   1   7  10    0.28    0.06
   1   7  10    0.20    0.16
   1   7  10    0.18    0.06
   1   7  10    0.18    0.06
   1   7  10    0.23    0.05
   1   7  10    0.30    0.07
   1   7  10    0.25    0.05
   1   7  10    0.25    0.06
  -2  -7 -10   -0.01    0.04
   2   7  10   -0.06    0.04
   2   7  10    0.01    0.04
   2   7  10    0.01    0.04
   2   7  10   -0.01    0.04
   2   7  10    0.03    0.04
   2   7  10   -0.02    0.03
   2   7  10    0.03    0.11
   2   7  10    0.04    0.13
   2   7  10   -0.02    0.06
   2   7  10   -0.01    0.03
  -3  -7 -10    0.23    0.07
  -3  -7 -10    0.32    0.08
   3   7  10    0.27    0.06
   3   7  10    0.36    0.05
   3   7  10    0.38    0.07
   3   7  10    0.39    0.18
   3   7  10    0.26    0.06
   3   7  10    0.39    0.06
   3   7  10    0.41    0.19
   3   7  10    0.26    0.05
  -4  -7 -10   -0.01    0.05
  -4  -7 -10    0.08    0.06
   4   7  10    0.04    0.05
   4   7  10    0.03    0.12
   4   7  10    0.08    0.05
   4   7  10    0.00    0.05
   4   7  10   -0.05    0.04
   4   7  10   -0.02    0.11
  -5  -7 -10    0.45    0.09
  -5  -7 -10    0.54    0.09
   5   7  10    0.51    0.21
   5   7  10    0.44    0.19
   5   7  10    0.36    0.06
   5   7  10    0.46    0.08
   5   7  10    0.29    0.07
   5   7  10    0.46    0.08
   1  -8 -10    1.58    0.14
   1  -8 -10    1.63    0.16
   1  -8 -10    1.54    0.13
  -1   8  10    1.43    0.15
  -1   8  10    1.48    0.11
  -1   8  10    1.43    0.11
  -1   8  10    1.25    0.16
  -1   8  10    1.43    0.11
  -1   8  10    1.10    0.31
  -1   8  10    1.59    0.13
  -1   8  10    1.30    0.13
  -1   8  10    1.38    0.13
  -1   8  10    1.30    0.08
  -1   8  10    1.13    0.15
   0  -8 -10    4.26    0.23
   0  -8 -10    4.28    0.21
   0   8  10    4.25    0.49
   0   8  10    4.62    0.18
   0   8  10    3.99    0.22
   0   8  10    4.21    0.17
   0   8  10    4.05    0.19
   0   8  10    4.45    0.13
   0   8  10    4.09    0.23
   0   8  10    4.42    0.13
   0   8  10    4.37    0.20
   0   8  10    4.33    0.24
   0   8  10    4.68    0.20
   0   8  10    4.24    0.17
  -1  -8 -10    0.78    0.10
   1   8  10    0.94    0.09
   1   8  10    1.10    0.11
   1   8  10    0.96    0.09
   1   8  10    0.90    0.28
   1   8  10    1.11    0.10
   1   8  10    0.86    0.12
   1   8  10    0.99    0.12
   1   8  10    0.97    0.06
   1   8  10    1.05    0.06
   1   8  10    0.88    0.10
   1   8  10    0.93    0.10
  -2  -8 -10    0.09    0.06
   2   8  10    0.12    0.06
   2   8  10    0.09    0.06
   2   8  10    0.09    0.06
   2   8  10    0.13    0.15
   2   8  10    0.07    0.05
   2   8  10    0.02    0.05
   2   8  10    0.09    0.06
   2   8  10    0.05    0.04
   2   8  10    0.03    0.04
  -3  -8 -10    0.71    0.11
  -3  -8 -10    0.82    0.11
   3   8  10    0.94    0.10
   3   8  10    0.71    0.09
   3   8  10    0.70    0.08
   3   8  10    0.92    0.08
   3   8  10    0.73    0.26
   3   8  10    0.77    0.11
   3   8  10    0.93    0.11
   3   8  10    0.84    0.11
  -4  -8 -10    3.90    0.20
  -4  -8 -10    3.76    0.20
   4   8  10    4.01    0.16
   4   8  10    3.88    0.46
   4   8  10    4.12    0.19
   4   8  10    3.89    0.19
   4   8  10    4.09    0.16
   4   8  10    3.82    0.19
   4   8  10    4.15    0.20
   4   8  10    4.11    0.19
  -1  -9 -10    0.16    0.07
  -1  -9 -10    0.24    0.08
   1   9  10    0.20    0.07
   1   9  10    0.20    0.07
   1   9  10    0.16    0.08
   1   9  10    0.18    0.07
   1   9  10    0.16    0.06
   1   9  10    0.29    0.05
   1   9  10    0.10    0.06
   1   9  10    0.20    0.06
   1   9  10    0.25    0.08
  -2  -9 -10    0.26    0.08
  -2  -9 -10    0.34    0.08
  -2  -9 -10    0.22    0.08
   2   9  10    0.32    0.09
   2   9  10    0.42    0.08
   2   9  10    0.34    0.05
   2   9  10    0.21    0.06
   2   9  10    0.46    0.09
   2   9  10    0.39    0.07
   2   9  10    0.40    0.07
   2   9  10    0.44    0.10
   2   9  10    0.44    0.09
  -2  -1  11    0.03    0.03
  -2  -1  11    0.03    0.08
  -2  -1  11    0.08    0.03
  -1  -1  11    0.16    0.09
  -1  -1  11    0.10    0.03
   0  -1  11    0.28    0.11
   0  -1  11    0.31    0.04
   1  -1  11    0.93    0.16
   2  -1  11    0.37    0.11
  -2   0  11    0.03    0.03
  -2   0  11    0.02    0.03
  -2   0  11    0.10    0.03
  -2   0  11   -0.11    0.06
  -1   0  11    0.30    0.04
  -1   0  11    0.38    0.05
  -1   0  11    0.36    0.11
   0   0  11    6.59    0.18
   0   0  11    7.24    0.33
  -1   0 -11    0.47    0.05
   1   0  11    0.36    0.11
   1   0  11    0.42    0.04
  -2   0 -11    0.83    0.06
   2   0  11    0.84    0.14
   2   0  11    0.81    0.05
  -3   0 -11    0.05    0.03
   3   0  11    0.13    0.03
   3   0  11    0.19    0.09
   3  -1 -11    0.12    0.06
  -3   1  11    0.23    0.05
  -3   1  11    0.24    0.06
  -3   1  11    0.15    0.05
  -3   1  11    0.22    0.11
  -2   1  11    1.46    0.09
  -2   1  11    1.34    0.09
  -2   1  11    1.43    0.10
  -2   1  11    1.24    0.16
  -1   1  11    0.02    0.03
  -1   1  11   -0.04    0.03
  -1   1  11    0.01    0.07
  -1   1  11   -0.05    0.03
   0  -1 -11    1.48    0.09
   0   1  11    1.58    0.17
   0   1  11    1.56    0.08
   0   1  11    1.56    0.07
  -1  -1 -11    8.18    0.22
   1   1  11    8.55    0.19
   1   1  11    8.52    0.21
   1   1  11    8.04    0.35
  -2  -1 -11    2.26    0.10
   2   1  11    2.16    0.09
   2   1  11    2.05    0.19
  -3  -1 -11    5.88    0.18
   3   1  11    6.09    0.31
   3   1  11    5.63    0.14
   3   1  11    5.90    0.17
  -4  -1 -11    1.57    0.09
   4   1  11    1.56    0.19
   4   1  11    1.62    0.09
   4   1  11    1.40    0.07
   3  -2 -11    0.65    0.08
  -3   2  11    0.63    0.08
  -3   2  11    0.80    0.15
  -3   2  11    0.59    0.07
  -3   2  11    0.60    0.08
   2  -2 -11    0.13    0.04
  -2   2  11    0.23    0.06
  -2   2  11    0.18    0.09
  -2   2  11    0.18    0.05
  -2   2  11    0.13    0.05
  -1   2  11    0.08    0.04
  -1   2  11    0.15    0.04
  -1   2  11    0.26    0.10
  -1   2  11    0.14    0.04
   0  -2 -11    5.09    0.17
   0   2  11    5.29    0.17
   0   2  11    5.34    0.28
   0   2  11    5.24    0.17
   0   2  11    5.31    0.16
  -1  -2 -11    0.49    0.06
   1   2  11    0.51    0.05
   1   2  11    0.43    0.05
   1   2  11    0.49    0.05
   1   2  11    0.39    0.11
  -2  -2 -11    1.64    0.12
  -2  -2 -11    1.49    0.09
   2   2  11    1.60    0.18
   2   2  11    1.40    0.08
   2   2  11    1.49    0.08
   2   2  11    1.51    0.07
  -3  -2 -11    1.38    0.11
  -3  -2 -11    1.33    0.09
   3   2  11    1.25    0.07
   3   2  11    1.38    0.08
   3   2  11    1.46    0.08
   3   2  11    1.18    0.16
  -4  -2 -11    0.23    0.05
   4   2  11    0.18    0.04
   4   2  11    0.24    0.05
   4   2  11    0.08    0.09
   4   2  11    0.17    0.04
   3  -3 -11    0.33    0.06
  -3   3  11    0.56    0.13
  -3   3  11    0.41    0.07
  -3   3  11    0.38    0.07
  -3   3  11    0.31    0.07
   2  -3 -11    4.59    0.17
   2  -3 -11    4.82    0.19
  -2   3  11    4.57    0.18
  -2   3  11    4.83    0.18
  -2   3  11    4.17    0.26
  -2   3  11    4.64    0.17
   1  -3 -11    3.77    0.14
   1  -3 -11    3.90    0.17
  -1   3  11    3.87    0.15
  -1   3  11    4.02    0.25
  -1   3  11    3.84    0.15
  -1   3  11    4.02    0.16
   0  -3 -11    6.07    0.20
   0   3  11    6.34    0.30
   0   3  11    5.99    0.19
   0   3  11    6.33    0.20
   0   3  11    6.22    0.19
  -1  -3 -11    1.22    0.09
   1   3  11    1.20    0.08
   1   3  11    1.34    0.09
   1   3  11    1.27    0.09
   1   3  11    1.34    0.17
  -2  -3 -11    0.12    0.04
   2   3  11    0.11    0.04
   2   3  11    0.10    0.04
   2   3  11    0.09    0.04
   2   3  11    0.12    0.08
  -3  -3 -11    0.76    0.08
  -3  -3 -11    0.69    0.09
   3   3  11    0.50    0.11
   3   3  11    0.65    0.06
   3   3  11    0.62    0.07
   3   3  11    0.74    0.07
  -4  -3 -11    0.72    0.08
  -4  -3 -11    0.79    0.10
   4   3  11    0.79    0.14
   4   3  11    0.75    0.07
   4   3  11    0.62    0.07
   4   3  11    0.78    0.08
  -5  -3 -11   -0.03    0.05
  -5  -3 -11    0.04    0.04
   5   3  11    0.07    0.04
   5   3  11   -0.03    0.04
   5   3  11    0.01    0.04
   3  -4 -11    0.16    0.07
   3  -4 -11    0.19    0.06
  -3   4  11    0.36    0.07
  -3   4  11    0.24    0.04
  -3   4  11    0.23    0.06
  -3   4  11    0.27    0.11
  -3   4  11    0.29    0.07
   2  -4 -11    0.70    0.09
   2  -4 -11    0.68    0.08
  -2   4  11    0.53    0.08
  -2   4  11    0.58    0.08
  -2   4  11    0.58    0.08
  -2   4  11    0.43    0.12
  -2   4  11    0.61    0.05
   1  -4 -11    0.94    0.09
   1  -4 -11    0.96    0.10
  -1   4  11    0.93    0.09
  -1   4  11    1.01    0.15
  -1   4  11    0.89    0.09
  -1   4  11    0.94    0.09
   0  -4 -11    1.07    0.10
   0   4  11    1.08    0.09
   0   4  11    1.08    0.09
   0   4  11    1.28    0.16
   0   4  11    1.06    0.09
  -1  -4 -11    0.68    0.08
   1   4  11    0.66    0.12
   1   4  11    0.65    0.07
   1   4  11    0.73    0.07
   1   4  11    0.64    0.07
  -2  -4 -11    0.02    0.04
   2   4  11    0.05    0.04
   2   4  11   -0.01    0.04
   2   4  11    0.02    0.04
   2   4  11    0.02    0.07
  -3  -4 -11    0.02    0.04
  -3  -4 -11    0.02    0.05
   3   4  11    0.06    0.04
   3   4  11   -0.06    0.06
   3   4  11    0.04    0.04
   3   4  11    0.01    0.04
  -4  -4 -11    0.08    0.05
  -4  -4 -11    0.01    0.04
   4   4  11    0.06    0.07
   4   4  11   -0.03    0.04
   4   4  11   -0.04    0.04
   4   4  11    0.01    0.04
  -5  -4 -11    1.73    0.12
  -5  -4 -11    1.61    0.13
   5   4  11    1.66    0.11
   5   4  11    1.89    0.17
   5   4  11    1.72    0.12
   5   4  11    1.63    0.11
   2  -5 -11    1.66    0.12
   2  -5 -11    1.77    0.14
  -2   5  11    1.50    0.25
  -2   5  11    1.75    0.09
  -2   5  11    1.31    0.23
  -2   5  11    1.79    0.13
  -2   5  11    1.81    0.13
  -2   5  11    1.61    0.12
  -2   5  11    1.47    0.18
   1  -5 -11    7.52    0.26
   1  -5 -11    7.52    0.24
  -1   5  11    7.51    0.25
  -1   5  11    7.30    0.33
  -1   5  11    7.21    0.24
  -1   5  11    7.82    0.20
  -1   5  11    7.73    0.25
   0  -5 -11    0.79    0.09
   0   5  11    0.97    0.14
   0   5  11    0.89    0.09
   0   5  11    0.78    0.08
   0   5  11    0.87    0.09
   0   5  11    0.74    0.05
  -1  -5 -11   -0.02    0.04
   1   5  11   -0.07    0.03
   1   5  11    0.01    0.04
   1   5  11   -0.01    0.04
   1   5  11    0.00    0.06
  -2  -5 -11    0.46    0.07
   2   5  11    0.40    0.06
   2   5  11    0.38    0.06
   2   5  11    0.34    0.06
   2   5  11    0.46    0.10
  -3  -5 -11    0.46    0.07
  -3  -5 -11    0.51    0.09
   3   5  11    0.56    0.11
   3   5  11    0.48    0.07
   3   5  11    0.40    0.06
   3   5  11    0.51    0.07
  -4  -5 -11    0.02    0.04
  -4  -5 -11   -0.06    0.05
   4   5  11   -0.02    0.06
   4   5  11   -0.02    0.04
   4   5  11    0.05    0.05
   4   5  11    0.03    0.04
   1  -6 -11    6.19    0.23
   1  -6 -11    6.45    0.25
  -1   6  11    7.37    0.33
  -1   6  11    6.96    0.24
  -1   6  11    6.66    0.49
  -1   6  11    6.48    0.48
  -1   6  11    6.80    0.24
  -1   6  11    6.34    0.23
  -1   6  11    6.85    0.20
   0  -6 -11    1.78    0.14
   0   6  11    2.03    0.13
   0   6  11    2.00    0.13
   0   6  11    1.68    0.18
   0   6  11    1.93    0.13
   0   6  11    2.04    0.10
   0   6  11    1.46    0.25
   0   6  11    1.66    0.24
  -1  -6 -11    2.00    0.14
   1   6  11    1.70    0.17
   1   6  11    2.18    0.13
   1   6  11    1.95    0.12
   1   6  11    2.20    0.09
   1   6  11    1.93    0.24
   1   6  11    1.82    0.21
   1   6  11    1.92    0.12
  -2  -6 -11    0.00    0.04
   2   6  11   -0.02    0.06
   2   6  11   -0.02    0.04
   2   6  11   -0.02    0.04
   2   6  11    0.06    0.05
   2   6  11    0.00    0.03
  -3  -6 -11   -0.02    0.06
  -3  -6 -11   -0.02    0.04
   3   6  11    0.01    0.04
   3   6  11   -0.04    0.06
   3   6  11    0.01    0.05
   3   6  11    0.03    0.05
   3   6  11    0.01    0.03
  -4  -6 -11    0.63    0.10
  -4  -6 -11    0.83    0.10
   4   6  11    0.64    0.05
   4   6  11    0.64    0.08
   4   6  11    0.65    0.08
   4   6  11    0.59    0.08
   0  -7 -11    0.83    0.11
   0   7  11    0.96    0.08
   0   7  11    0.93    0.10
   0   7  11    0.85    0.10
   0   7  11    0.70    0.22
   0   7  11    0.81    0.23
   0   7  11    0.79    0.14
   0   7  11    0.80    0.10
  -1  -7 -11    0.31    0.08
   1   7  11    0.37    0.06
   1   7  11    0.38    0.10
   1   7  11    0.45    0.19
   1   7  11    0.39    0.07
   1   7  11    0.46    0.08
   1   7  11    0.33    0.16
   1   7  11    0.35    0.07
  -2  -7 -11   -0.01    0.05
   2   7  11   -0.01    0.10
   2   7  11   -0.05    0.03
   2   7  11    0.00    0.05
   2   7  11    0.00    0.11
   2   7  11    0.08    0.05
   2   7  11    0.03    0.05
  -3  -7 -11    0.78    0.10
  -3  -7 -11    0.75    0.11
   3   7  11    0.72    0.07
   3   7  11    0.84    0.10
   3   7  11    0.80    0.09
   3   7  11    0.86    0.21
   3   7  11    0.78    0.09
   0  -2 -12    0.08    0.04
   0   2  12    0.11    0.09
   0   2  12    0.06    0.03
   0   2  12    0.07    0.04
   0   2  12    0.09    0.04
  -1  -2 -12    0.39    0.06
   1   2  12    0.57    0.13
   1   2  12    0.40    0.06
   1   2  12    0.56    0.05
  -2  -2 -12    0.85    0.08
   2   2  12    1.02    0.06
   2   2  12    0.79    0.14
   2   2  12    0.93    0.08
   0  -3 -12    0.05    0.05
   0   3  12    0.08    0.09
   0   3  12    0.06    0.04
   0   3  12    0.06    0.04
   0   3  12   -0.02    0.04
  -1  -3 -12    5.76    0.20
   1   3  12    5.71    0.19
   1   3  12    5.63    0.30
   1   3  12    5.88    0.19
   1   3  12    5.94    0.18
  -2  -3 -12    6.55    0.25
  -2  -3 -12    6.78    0.22
   2   3  12    6.81    0.21
   2   3  12    6.92    0.19
   2   3  12    6.62    0.20
   2   3  12    6.31    0.33
   0  -4 -12   14.43    0.39
   0   4  12   14.14    0.36
   0   4  12   14.26    0.37
   0   4  12   14.64    0.37
   0   4  12   14.15    0.50
  -1  -4 -12    2.91    0.15
   1   4  12    2.81    0.14
   1   4  12    2.68    0.21
   1   4  12    2.84    0.13
   1   4  12    3.17    0.14
  -2  -4 -12    0.14    0.06
  -2  -4 -12    0.26    0.08
   2   4  12    0.19    0.05
   2   4  12    0.22    0.05
   2   4  12    0.21    0.06
   2   4  12    0.15    0.09
  -1  -5 -12    4.41    0.19
   1   5  12    4.44    0.26
   1   5  12    4.51    0.18
   1   5  12    4.02    0.17
   1   5  12    4.56    0.18
   0   0   0    0.00    0.00
;
_shelx_hkl_checksum              32472
_shelx_res_file
;
    RCGESPO4.res created by SHELXL-2014/7
TITL RCGESPO4 in P-1
CELL 0.71073 8.0416 9.4577 9.7397 74.168 84.636 78.731
ZERR 2.00 0.0008 0.0010 0.0010 0.002 0.002 0.002
LATT 1
SFAC C  H  O
UNIT 34 28 8
LIST 6 ! automatically inserted. Change 6 to 4 for CHECKCIF!!
L.S. 20
ACTA
BOND $H
FMAP 2
PLAN 4
HTAB
EQIV $1 -x+1, -y, -z+1
HTAB C4 O1_$1
MPLA C5 C6 C7 C8 C9 C10
MPLA C2 C3 C4 C5 O2
MPLA C1 C11 C12 C13 C14 C15
MPLA C4 C3 C16 O3 O4 C17
CONF
SIZE 0.205 0.207 0.365
TEMP -123.140
WGHT    0.041300    0.334400
FVAR       0.28872
O1    3    0.185972    0.008184    0.589774    11.00000    0.06081    0.06833 =
         0.02707    0.00548    0.01450    0.00757
O2    3    0.309984    0.278115    0.077534    11.00000    0.02303    0.04246 =
         0.02174    0.00428    0.00187   -0.00409
O3    3    0.726215    0.368127   -0.231141    11.00000    0.02680    0.04826 =
         0.02908    0.00628    0.00144   -0.00699
O4    3    0.863123    0.182398   -0.062004    11.00000    0.02172    0.03173 =
         0.03204   -0.00416    0.00106   -0.00124
C1    1    0.323854    0.430091   -0.157309    11.00000    0.02096    0.02152 =
         0.02357   -0.00342   -0.00072   -0.00755
C2    1    0.415358    0.320654   -0.038491    11.00000    0.02475    0.02410 =
         0.01972   -0.00564    0.00192   -0.00847
C3    1    0.577775    0.252421   -0.018803    11.00000    0.02511    0.02352 =
         0.02044   -0.00367   -0.00108   -0.00554
C4    1    0.593237    0.145613    0.127602    11.00000    0.02684    0.04329 =
         0.02660    0.00625    0.00096   -0.00259
AFIX  23
H4A   2    0.675645    0.169357    0.183637    11.00000   -1.20000
H4B   2    0.628442    0.041055    0.121665    11.00000   -1.20000
AFIX   0
C5    1    0.410770    0.172085    0.193655    11.00000    0.02751    0.02909 =
         0.01990   -0.00012   -0.00124   -0.00579
C6    1    0.398463    0.246282    0.312051    11.00000    0.03920    0.02596 =
         0.03906   -0.00875   -0.01070   -0.00704
AFIX  43
H6    2    0.441070    0.336693    0.294985    11.00000   -1.20000
AFIX   0
C7    1    0.330252    0.190907    0.440453    11.00000    0.04705    0.04080 =
         0.02765   -0.01839   -0.01016    0.00596
AFIX  43
H7    2    0.329316    0.241121    0.512812    11.00000   -1.20000
AFIX   0
C8    1    0.256529    0.055052    0.473971    11.00000    0.03451    0.03885 =
         0.02168    0.00137    0.00219    0.00706
C9    1    0.266817   -0.020374    0.360138    11.00000    0.03663    0.02782 =
         0.03704   -0.00191    0.00347   -0.00990
AFIX  43
H9    2    0.224238   -0.110938    0.378463    11.00000   -1.20000
AFIX   0
C10   1    0.333922    0.034637    0.232629    11.00000    0.03734    0.03091 =
         0.02885   -0.01239    0.00025   -0.00908
AFIX  43
H10   2    0.333229   -0.016495    0.161245    11.00000   -1.20000
AFIX   0
C11   1    0.187754    0.534582   -0.125970    11.00000    0.02806    0.02758 =
         0.02916   -0.00703    0.00266   -0.00532
AFIX  43
H11   2    0.159633    0.537044   -0.029620    11.00000   -1.20000
AFIX   0
C12   1    0.093710    0.634535   -0.234703    11.00000    0.02968    0.02940 =
         0.04393   -0.00178    0.00127    0.00225
AFIX  43
H12   2    0.002633    0.706883   -0.213142    11.00000   -1.20000
AFIX   0
C13   1    0.132120    0.629300   -0.374927    11.00000    0.03159    0.03578 =
         0.03600    0.00902   -0.00662   -0.00312
AFIX  43
H13   2    0.066365    0.697257   -0.449329    11.00000   -1.20000
AFIX   0
C14   1    0.265960    0.525423   -0.407080    11.00000    0.03229    0.03882 =
         0.02350   -0.00039   -0.00192   -0.00988
AFIX  43
H14   2    0.291762    0.522078   -0.503463    11.00000   -1.20000
AFIX   0
C15   1    0.362484    0.426225   -0.298992    11.00000    0.02426    0.02772 =
         0.02419   -0.00557    0.00030   -0.00616
AFIX  43
H15   2    0.454989    0.355572   -0.321406    11.00000   -1.20000
AFIX   0
C16   1    0.724123    0.277421   -0.117120    11.00000    0.02296    0.02444 =
         0.02338   -0.00756   -0.00145   -0.00578
C17   1    1.018667    0.194176   -0.148029    11.00000    0.02143    0.04569 =
         0.04356   -0.01126    0.00404   -0.00375
AFIX 137
H17A  2    1.020121    0.145193   -0.224877    11.00000   -1.50000
H17B  2    1.115824    0.145579   -0.088149    11.00000   -1.50000
H17C  2    1.025583    0.299745   -0.189424    11.00000   -1.50000
AFIX   0
HKLF 4 1 1 0 0 0 1 0 0 0 1
REM  RCGESPO4 in P-1
REM R1 =  0.0391 for    2638 Fo > 4sig(Fo)  and  0.0418 for all    2846 data
REM    191 parameters refined using      0 restraints
END
WGHT      0.0413      0.3344
REM Instructions for potential hydrogen bonds
HTAB C4 O1_$1
EQIV $2 x+1, y, z-1
HTAB C17 O1_$2
REM Highest difference peak  0.489,  deepest hole -0.372,  1-sigma level  0.038
Q1    1   0.2500  0.0759  0.6058  11.00000  0.05    0.49
Q2    1   0.2825  0.0190  0.4179  11.00000  0.05    0.30
Q3    1   0.3296  0.0985  0.4767  11.00000  0.05    0.26
Q4    1   0.3738  0.1055  0.2186  11.00000  0.05    0.24
;
_shelx_res_checksum              55262
loop_
_space_group_symop_operation_xyz
'x, y, z'
'-x, -y, -z'
loop_
_atom_site_type_symbol
_atom_site_label
_atom_site_fract_x
_atom_site_fract_y
_atom_site_fract_z
_atom_site_U_iso_or_equiv
_atom_site_adp_type
_atom_site_calc_flag
_atom_site_occupancy
O O1 0.18597(17) 0.00818(15) 0.58977(12) 0.0594(4) Uani d 1
O O2 0.30998(11) 0.27812(11) 0.07753(10) 0.0320(2) Uani d 1
O O3 0.72621(12) 0.36813(12) -0.23114(10) 0.0381(3) Uani d 1
O O4 0.86312(11) 0.18240(10) -0.06200(10) 0.0300(2) Uani d 1
C C1 0.32385(15) 0.43009(13) -0.15731(13) 0.0220(3) Uani d 1
C C2 0.41536(15) 0.32065(13) -0.03849(13) 0.0225(3) Uani d 1
C C3 0.57777(16) 0.25242(13) -0.01880(13) 0.0233(3) Uani d 1
C C4 0.59324(17) 0.14561(17) 0.12760(15) 0.0360(3) Uani d 1
H H4A 0.6756 0.1694 0.1836 0.043 Uiso calc 1
H H4B 0.6284 0.0411 0.1217 0.043 Uiso calc 1
C C5 0.41077(16) 0.17208(14) 0.19365(13) 0.0266(3) Uani d 1
C C6 0.39846(19) 0.24628(15) 0.31205(16) 0.0339(3) Uani d 1
H H6 0.4411 0.3367 0.2950 0.041 Uiso calc 1
C C7 0.3303(2) 0.19091(17) 0.44045(15) 0.0380(3) Uani d 1
H H7 0.3293 0.2411 0.5128 0.046 Uiso calc 1
C C8 0.25653(18) 0.05505(17) 0.47397(14) 0.0357(3) Uani d 1
C C9 0.26682(18) -0.02037(15) 0.36014(16) 0.0349(3) Uani d 1
H H9 0.2242 -0.1109 0.3785 0.042 Uiso calc 1
C C10 0.33392(18) 0.03464(15) 0.23263(14) 0.0311(3) Uani d 1
H H10 0.3332 -0.0165 0.1612 0.037 Uiso calc 1
C C11 0.18775(17) 0.53458(14) -0.12597(14) 0.0285(3) Uani d 1
H H11 0.1596 0.5370 -0.0296 0.034 Uiso calc 1
C C12 0.09371(18) 0.63454(16) -0.23470(17) 0.0371(3) Uani d 1
H H12 0.0026 0.7069 -0.2131 0.045 Uiso calc 1
C C13 0.13212(18) 0.62930(17) -0.37493(16) 0.0382(3) Uani d 1
H H13 0.0664 0.6973 -0.4493 0.046 Uiso calc 1
C C14 0.26596(18) 0.52542(16) -0.40708(14) 0.0325(3) Uani d 1
H H14 0.2918 0.5221 -0.5035 0.039 Uiso calc 1
C C15 0.36248(16) 0.42623(14) -0.29899(13) 0.0255(3) Uani d 1
H H15 0.4550 0.3556 -0.3214 0.031 Uiso calc 1
C C16 0.72412(15) 0.27742(13) -0.11712(13) 0.0231(3) Uani d 1
C C17 1.01867(17) 0.19418(18) -0.14803(17) 0.0376(3) Uani d 1
H H17A 1.0201 0.1452 -0.2249 0.056 Uiso calc 1
H H17B 1.1158 0.1456 -0.0881 0.056 Uiso calc 1
H H17C 1.0256 0.2997 -0.1894 0.056 Uiso calc 1
loop_
_atom_site_aniso_label
_atom_site_aniso_U_11
_atom_site_aniso_U_22
_atom_site_aniso_U_33
_atom_site_aniso_U_12
_atom_site_aniso_U_13
_atom_site_aniso_U_23
O1 0.0608(8) 0.0683(8) 0.0271(6) 0.0076(6) 0.0145(5) 0.0055(5)
O2 0.0230(5) 0.0425(6) 0.0217(5) -0.0041(4) 0.0019(3) 0.0043(4)
O3 0.0268(5) 0.0483(6) 0.0291(5) -0.0070(4) 0.0014(4) 0.0063(4)
O4 0.0217(4) 0.0317(5) 0.0320(5) -0.0012(4) 0.0011(4) -0.0042(4)
C1 0.0210(6) 0.0215(6) 0.0236(6) -0.0075(4) -0.0007(4) -0.0034(5)
C2 0.0247(6) 0.0241(6) 0.0197(6) -0.0085(5) 0.0019(5) -0.0056(5)
C3 0.0251(6) 0.0235(6) 0.0204(6) -0.0055(5) -0.0011(5) -0.0037(5)
C4 0.0268(7) 0.0433(8) 0.0266(7) -0.0026(6) 0.0010(5) 0.0063(6)
C5 0.0275(6) 0.0291(6) 0.0199(6) -0.0058(5) -0.0012(5) -0.0001(5)
C6 0.0392(8) 0.0260(6) 0.0391(8) -0.0070(6) -0.0107(6) -0.0087(6)
C7 0.0470(8) 0.0408(8) 0.0276(7) 0.0060(6) -0.0102(6) -0.0184(6)
C8 0.0345(7) 0.0388(8) 0.0217(7) 0.0071(6) 0.0022(5) 0.0014(6)
C9 0.0366(7) 0.0278(7) 0.0370(8) -0.0099(6) 0.0035(6) -0.0019(6)
C10 0.0373(7) 0.0309(7) 0.0289(7) -0.0091(6) 0.0003(5) -0.0124(5)
C11 0.0281(6) 0.0276(6) 0.0292(7) -0.0053(5) 0.0027(5) -0.0070(5)
C12 0.0297(7) 0.0294(7) 0.0439(8) 0.0022(5) 0.0013(6) -0.0018(6)
C13 0.0316(7) 0.0358(7) 0.0360(8) -0.0031(6) -0.0066(6) 0.0090(6)
C14 0.0323(7) 0.0388(7) 0.0235(6) -0.0099(6) -0.0019(5) -0.0004(5)
C15 0.0243(6) 0.0277(6) 0.0242(6) -0.0062(5) 0.0003(5) -0.0056(5)
C16 0.0230(6) 0.0244(6) 0.0234(6) -0.0058(5) -0.0014(5) -0.0076(5)
C17 0.0214(6) 0.0457(8) 0.0436(8) -0.0038(6) 0.0040(6) -0.0113(7)
loop_
_atom_type_symbol
_atom_type_description
_atom_type_scat_dispersion_real
_atom_type_scat_dispersion_imag
_atom_type_scat_source
C C 0.0033 0.0016 'International Tables Vol C Tables 4.2.6.8 and 6.1.1.4'
H H 0.0000 0.0000 'International Tables Vol C Tables 4.2.6.8 and 6.1.1.4'
O O 0.0106 0.0060 'International Tables Vol C Tables 4.2.6.8 and 6.1.1.4'
loop_
_geom_angle_atom_site_label_1
_geom_angle_atom_site_label_2
_geom_angle_atom_site_label_3
_geom_angle
C2 O2 C5 109.13(9)
C16 O4 C17 116.00(10)
C15 C1 C11 119.37(11)
C15 C1 C2 121.86(11)
C11 C1 C2 118.65(11)
C3 C2 O2 113.21(11)
C3 C2 C1 134.71(11)
O2 C2 C1 112.08(10)
C2 C3 C16 127.59(11)
C2 C3 C4 109.82(11)
C16 C3 C4 122.55(11)
C3 C4 C5 102.63(11)
C3 C4 H4A 111.2
C5 C4 H4A 111.2
C3 C4 H4B 111.2
C5 C4 H4B 111.2
H4A C4 H4B 109.2
O2 C5 C10 106.01(10)
O2 C5 C6 106.60(10)
C10 C5 C6 113.32(11)
O2 C5 C4 104.99(9)
C10 C5 C4 112.35(12)
C6 C5 C4 112.79(12)
C7 C6 C5 122.59(13)
C7 C6 H6 118.7
C5 C6 H6 118.7
C6 C7 C8 122.11(13)
C6 C7 H7 118.9
C8 C7 H7 118.9
O1 C8 C9 121.24(15)
O1 C8 C7 122.17(15)
C9 C8 C7 116.56(12)
C10 C9 C8 121.37(13)
C10 C9 H9 119.3
C8 C9 H9 119.3
C9 C10 C5 123.96(12)
C9 C10 H10 118.0
C5 C10 H10 118.0
C12 C11 C1 120.20(12)
C12 C11 H11 119.9
C1 C11 H11 119.9
C11 C12 C13 120.06(13)
C11 C12 H12 120.0
C13 C12 H12 120.0
C14 C13 C12 120.20(13)
C14 C13 H13 119.9
C12 C13 H13 119.9
C13 C14 C15 120.14(13)
C13 C14 H14 119.9
C15 C14 H14 119.9
C14 C15 C1 120.01(12)
C14 C15 H15 120.0
C1 C15 H15 120.0
O3 C16 O4 123.01(11)
O3 C16 C3 127.24(12)
O4 C16 C3 109.75(10)
O4 C17 H17A 109.5
O4 C17 H17B 109.5
H17A C17 H17B 109.5
O4 C17 H17C 109.5
H17A C17 H17C 109.5
H17B C17 H17C 109.5
loop_
_geom_bond_atom_site_label_1
_geom_bond_atom_site_label_2
_geom_bond_distance
O1 C8 1.2233(17)
O2 C2 1.3649(14)
O2 C5 1.4753(15)
O3 C16 1.2049(16)
O4 C16 1.3422(15)
O4 C17 1.4445(16)
C1 C15 1.3947(17)
C1 C11 1.3954(18)
C1 C2 1.4697(17)
C2 C3 1.3450(18)
C3 C16 1.4603(17)
C3 C4 1.5058(17)
C4 C5 1.5484(18)
C4 H4A 0.9900
C4 H4B 0.9900
C5 C10 1.4889(18)
C5 C6 1.4916(19)
C6 C7 1.329(2)
C6 H6 0.9500
C7 C8 1.463(2)
C7 H7 0.9500
C8 C9 1.462(2)
C9 C10 1.3176(19)
C9 H9 0.9500
C10 H10 0.9500
C11 C12 1.382(2)
C11 H11 0.9500
C12 C13 1.384(2)
C12 H12 0.9500
C13 C14 1.383(2)
C13 H13 0.9500
C14 C15 1.3857(18)
C14 H14 0.9500
C15 H15 0.9500
C17 H17A 0.9800
C17 H17B 0.9800
C17 H17C 0.9800
loop_
_geom_hbond_atom_site_label_D
_geom_hbond_atom_site_label_H
_geom_hbond_atom_site_label_A
_geom_hbond_site_symmetry_A
_geom_hbond_distance_DH
_geom_hbond_distance_HA
_geom_hbond_distance_DA
_geom_hbond_angle_DHA
C4 H4A O1 2_656 0.99 2.58 3.2504(19) 125
C14 H14 O3 2_664 0.95 2.52 3.3884(17) 153
loop_
_geom_torsion_atom_site_label_1
_geom_torsion_atom_site_label_2
_geom_torsion_atom_site_label_3
_geom_torsion_atom_site_label_4
_geom_torsion
C5 O2 C2 C3 2.26(14)
C5 O2 C2 C1 -178.33(10)
C15 C1 C2 C3 38.1(2)
C11 C1 C2 C3 -145.95(14)
C15 C1 C2 O2 -141.12(12)
C11 C1 C2 O2 34.81(15)
O2 C2 C3 C16 -176.46(11)
C1 C2 C3 C16 4.3(2)
O2 C2 C3 C4 1.02(15)
C1 C2 C3 C4 -178.22(13)
C2 C3 C4 C5 -3.59(15)
C16 C3 C4 C5 174.03(11)
C2 O2 C5 C10 -123.48(11)
C2 O2 C5 C6 115.50(11)
C2 O2 C5 C4 -4.38(14)
C3 C4 C5 O2 4.65(14)
C3 C4 C5 C10 119.40(12)
C3 C4 C5 C6 -111.02(13)
O2 C5 C6 C7 118.32(14)
C10 C5 C6 C7 2.09(19)
C4 C5 C6 C7 -126.98(15)
C5 C6 C7 C8 -2.1(2)
C6 C7 C8 O1 -176.17(15)
C6 C7 C8 C9 2.1(2)
O1 C8 C9 C10 175.99(15)
C7 C8 C9 C10 -2.3(2)
C8 C9 C10 C5 2.6(2)
O2 C5 C10 C9 -118.93(15)
C6 C5 C10 C9 -2.3(2)
C4 C5 C10 C9 126.94(15)
C15 C1 C11 C12 -0.87(19)
C2 C1 C11 C12 -176.89(12)
C1 C11 C12 C13 1.3(2)
C11 C12 C13 C14 -0.8(2)
C12 C13 C14 C15 -0.1(2)
C13 C14 C15 C1 0.6(2)
C11 C1 C15 C14 -0.08(18)
C2 C1 C15 C14 175.81(11)
C17 O4 C16 O3 -0.14(18)
C17 O4 C16 C3 179.99(11)
C2 C3 C16 O3 3.3(2)
C4 C3 C16 O3 -173.93(14)
C2 C3 C16 O4 -176.89(12)
C4 C3 C16 O4 5.93(17)

_cod_database_fobs_code 1543478
