#------------------------------------------------------------------------------
#$Date: 2016-05-21 04:41:52 +0300 (Sat, 21 May 2016) $
#$Revision: 183068 $
#$URL: svn://www.crystallography.net/cod/cif/1/54/33/1543352.cif $
#------------------------------------------------------------------------------
#
# This file is available in the Crystallography Open Database (COD),
# http://www.crystallography.net/. The original data for this entry
# were provided by IUCr Journals, http://journals.iucr.org/.
#
# The file may be used within the scientific community so long as
# proper attribution is given to the journal article from which the
# data were obtained.
#
data_1543352
loop_
_publ_author_name
'Shashidhar Bharadwaj, S.'
'Kumara, Karthik'
'Poojary, Boja'
'Yathirajan, H. S.'
'Byrappa, K.'
'Lokanath, N. K.'
'Madan Kumar, S.'
_publ_section_title
;
 Ethyl 2-(3,5-difluorophenyl)quinoline-4-carboxylate: a second triclinic
 polymorph
;
_journal_coeditor_code           SJ4012
_journal_issue                   5
_journal_name_full               IUCrData
_journal_page_first              x160739
_journal_paper_doi               10.1107/S2414314616007392
_journal_volume                  1
_journal_year                    2016
_chemical_formula_iupac          'C18 H13 F2 N O2'
_chemical_formula_moiety         'C18 H13 F2 N O2'
_chemical_formula_sum            'C18 H13 F2 N O2'
_chemical_formula_weight         313.29
_chemical_name_systematic
;
Ethyl 2-(3,5-difluorophenyl)quinoline-4-carboxylate
;
_space_group_crystal_system      triclinic
_space_group_IT_number           2
_space_group_name_Hall           '-P 1'
_space_group_name_H-M_alt        'P -1'
_symmetry_space_group_name_Hall  '-P 1'
_symmetry_space_group_name_H-M   'P -1'
_atom_sites_solution_hydrogens   geom
_audit_creation_method
;
Olex2 1.2
(compiled 2015.09.30 svn.r3233 for OlexSys, GUI svn.r5103)
;
_cell_angle_alpha                67.15(2)
_cell_angle_beta                 72.45(3)
_cell_angle_gamma                82.91(3)
_cell_formula_units_Z            2
_cell_length_a                   8.9998(8)
_cell_length_b                   9.0314(6)
_cell_length_c                   10.2747(5)
_cell_measurement_reflns_used    3269
_cell_measurement_temperature    293(2)
_cell_measurement_theta_max      3.1
_cell_measurement_theta_min      27.5
_cell_volume                     733.76(18)
_computing_cell_refinement
;
<i>CrystalClear SM-Expert</i> (Rigaku, 2011)
;
_computing_data_collection
;
<i>CrystalClear SM-Expert</i> (Rigaku, 2011)
;
_computing_data_reduction
;
<i>CrystalClear SM-Expert</i> (Rigaku, 2011)
;
_computing_molecular_graphics
;
Mercury (Macrae <i>et al.</i>, 2008)
;
_computing_publication_material
;
<i>OLEX2</i> (Dolomanov <i>et al.</i>,  2009)
;
_computing_structure_refinement
;
SHELXL2014 (Sheldrick, 2015)
;
_computing_structure_solution
;
SHELXS97 (Sheldrick, 2008)
;
_diffrn_ambient_temperature      293.15
_diffrn_detector_area_resol_mean 28.5714
_diffrn_measured_fraction_theta_full 0.990
_diffrn_measured_fraction_theta_max 0.973
_diffrn_measurement_device       'AFC12 (Right): Kappa 3 circle'
_diffrn_measurement_device_type  'Rigaku Saturn724+'
_diffrn_measurement_method       'profile data from \w-scans'
_diffrn_radiation_type           MoK\a
_diffrn_radiation_wavelength     0.71073
_diffrn_reflns_av_R_equivalents  0.0375
_diffrn_reflns_limit_h_max       11
_diffrn_reflns_limit_h_min       -11
_diffrn_reflns_limit_k_max       8
_diffrn_reflns_limit_k_min       -11
_diffrn_reflns_limit_l_max       8
_diffrn_reflns_limit_l_min       -13
_diffrn_reflns_number            4288
_diffrn_reflns_theta_full        25.242
_diffrn_reflns_theta_max         27.476
_diffrn_reflns_theta_min         3.089
_exptl_absorpt_coefficient_mu    0.110
_exptl_absorpt_correction_T_max  0.968
_exptl_absorpt_correction_T_min  0.936
_exptl_absorpt_correction_type   multi-scan
_exptl_absorpt_process_details
;
(NUMABS; Rigaku 1999)
;
_exptl_crystal_colour            colourless
_exptl_crystal_density_diffrn    1.418
_exptl_crystal_description       block
_exptl_crystal_F_000             324
_exptl_crystal_size_max          0.6
_exptl_crystal_size_mid          0.5
_exptl_crystal_size_min          0.3
_refine_diff_density_max         0.253
_refine_diff_density_min         -0.198
_refine_ls_extinction_method     none
_refine_ls_goodness_of_fit_ref   1.046
_refine_ls_hydrogen_treatment    constr
_refine_ls_matrix_type           full
_refine_ls_number_parameters     209
_refine_ls_number_reflns         3269
_refine_ls_number_restraints     0
_refine_ls_restrained_S_all      1.046
_refine_ls_R_factor_all          0.0837
_refine_ls_R_factor_gt           0.0578
_refine_ls_shift/su_max          0.000
_refine_ls_shift/su_mean         0.000
_refine_ls_structure_factor_coef Fsqd
_refine_ls_weighting_details
'w=1/[\s^2^(Fo^2^)+(0.0867P)^2^+0.0798P] where P=(Fo^2^+2Fc^2^)/3'
_refine_ls_weighting_scheme      calc
_refine_ls_wR_factor_gt          0.1528
_refine_ls_wR_factor_ref         0.1723
_reflns_number_gt                2198
_reflns_number_total             3269
_reflns_threshold_expression     'I > 2\s(I)'
_cod_data_source_file            sj4012sup1.cif
_cod_data_source_block           I
_cod_database_code               1543352
_shelx_space_group_comment
;
The symmetry employed for this shelxl refinement is uniquely defined
by the following loop, which should always be used as a source of
symmetry information in preference to the above space-group names.
They are only intended as comments.
;
_shelx_estimated_absorpt_t_min   0.937
_shelx_estimated_absorpt_t_max   0.968
_shelx_hkl_file
;
   0   0  -2 2837.65  136.80   1 0.21108-0.16786-0.89231 0.95077-0.39903 0.26046
   0   0  -2 3268.71  173.30   1-0.29889 0.34210-0.80028 0.85882-0.51980 0.38129
   0   0  -330275.43  429.99   1 0.29252-0.22769-0.86554 0.95324-0.40651 0.19866
   0   0  -334460.32  599.64   1-0.30343 0.36824-0.77479 0.86260-0.55463 0.34686
   0   0  -446431.65  625.85   1 0.37359-0.28715-0.83153 0.94847-0.41106 0.13392
   0   0  -451629.22  856.82   1-0.30742 0.39383-0.74768 0.86476-0.58860 0.31157
   0   0  -510538.22  414.45   1 0.45426-0.34621-0.78966 0.93582-0.41241 0.06599
   0   0  -511790.69  559.29   1-0.31085 0.41886-0.71893 0.86527-0.62169 0.27541
   0   0  -661255.73 1873.85   1 0.53272-0.40291-0.74002 0.91522-0.41055-0.00562
   0   0  -669346.57 2255.54   1-0.31370 0.44331-0.68847 0.86409-0.65390 0.23836
   0   0  -7   60.88   65.16   1 0.61265-0.46119-0.67917 0.88356-0.40420-0.08133
   0   0  -7   49.89  142.28   1-0.31595 0.46716-0.65627 0.86116-0.68517 0.20038
   0   0  -8 1282.87  308.32   1-0.31827 0.49187-0.62210 0.85553-0.71532 0.16162
   0   0  -9  505.45  204.74   1-0.31927 0.51457-0.58615 0.84876-0.74463 0.12173
   0   0 -10  731.23  308.56   1-0.31958 0.53658-0.54819 0.83997-0.77288 0.08077
   0   0 -11  948.95  286.68   1-0.31915 0.55785-0.50807 0.82903-0.79999 0.03867
   0   1 -11 3258.02  499.41   1-0.31589 0.55382-0.42106 0.82775-0.85024 0.09002
   0   1 -10 4290.49  526.61   1-0.31755 0.53382-0.45643 0.83391-0.83115 0.14004
   0   1  -9  303.64  295.18   1-0.31869 0.51374-0.48874 0.83681-0.81213 0.18922
   0   1  -8 5271.10  452.78   1-0.31932 0.49267-0.51753 0.83642-0.79384 0.24015
   0  -1   727289.14  798.94   1-0.82648 0.67446 0.43747-0.72655 0.35431 0.13117
   0   1  -725404.04  983.44   1-0.31956 0.47121-0.54239 0.83210-0.77696 0.29248
   0  -1   6 1438.42  322.54   1-0.79236 0.66214 0.48772-0.74772 0.36643 0.04970
   0   1  -6 1356.48  153.73   1 0.79290-0.66353-0.48648 0.74653-0.36692-0.04906
   0   1  -6 1522.17  228.22   1-0.31954 0.44949-0.56246 0.82300-0.76257 0.34730
   0  -1   5  621.87  137.36   1-0.76766 0.65922 0.52054-0.75145 0.37380-0.02702
   0   1  -5  488.35  104.37   1 0.76798-0.66023-0.51960 0.75054-0.37443 0.02777
   0   1  -5  721.17  183.40   1-0.31942 0.42767-0.57611 0.80746-0.75237 0.40631
   0  -1   4 4345.42  446.51   1-0.75804 0.67140 0.53262-0.73445 0.37640-0.09897
   0   1  -4 5047.99  271.30   1 0.75704-0.67094-0.53269 0.73461-0.37830 0.10085
   0   1  -4 5592.93  377.67   1-0.31937 0.40591-0.58014 0.78232-0.74928 0.47244
   0  -1   3 5566.25  249.36   1-0.77217 0.70732 0.51474-0.68748 0.37253-0.16446
   0   1  -3 4883.75  226.96   1 0.77214-0.70762-0.51427 0.68698-0.37325 0.16526
   0   1  -3 5576.74  300.31   1-0.31951 0.38436-0.56763 0.74063-0.75875 0.55111
   0  -1   216627.58  546.74   1-0.82168 0.77862 0.44494-0.58860 0.35617-0.21746
   0   1  -215053.35  503.78   1 0.82147-0.77858-0.44478 0.58839-0.35684 0.21818
   0   1  -216207.30  580.84   1-0.31937 0.36252-0.52101 0.66484-0.79154 0.65311
   0   1  -1493977.0 4222.13   1-0.81936 0.84063 0.44849-0.33391 0.35705-0.42640
   0  -1   1486093.0 4162.23   1-0.90870 0.88752 0.27642-0.39109 0.31281-0.24360
   0  -1   1438310.0 3765.92   1 0.81867-0.83994-0.44907 0.33458-0.35791 0.42724
   0  -1  -3 7440.80  298.58   1-0.41281 0.47865-0.87478 0.87679-0.25364 0.04591
   0  -1  -3 8283.72  577.56   1-0.24035 0.30571-0.95016 0.95208-0.19854-0.00905
   0  -1  -447601.57  650.08   1-0.19912 0.28662-0.92590 0.95703-0.32101 0.04404
   0  -1  -453133.03  835.96   1-0.27018 0.35714-0.90099 0.93196-0.33941 0.06241
   0  -1  -5197452.3 1986.29   1-0.01671 0.12574-0.93138 0.99190-0.36365 0.01745
   0  -1  -5223781.7 2454.41   1-0.28685 0.39545-0.85421 0.91432-0.43362 0.08737
   0  -1  -6 3288.06  191.51   1 0.14097-0.01031-0.90994 0.99962-0.39003-0.02540
   0  -1  -6 3513.35  261.12   1-0.29705 0.42726-0.80942 0.89953-0.50653 0.09099
   0  -1  -7 1248.20  162.03   1 0.28290-0.13118-0.86908 0.98818-0.40578-0.07919
   0  -1  -7 1533.62  249.41   1-0.30470 0.45652-0.76670 0.88608-0.56507 0.08027
   0  -1  -8 5047.80  290.01   1 0.41331-0.23999-0.81197 0.96031-0.41214-0.14212
   0  -1  -8 5598.78  432.98   1-0.31025 0.48366-0.72444 0.87308-0.61556 0.06151
   0  -1  -910580.41  613.52   1-0.31422 0.50923-0.68190 0.85982-0.66050 0.03719
   0  -1 -10  152.11  204.23   1-0.31689 0.53351-0.63856 0.84574-0.70129 0.00872
   0  -1 -11  759.22  246.05   1-0.31911 0.55806-0.59398 0.82948-0.73847-0.02285
   0  -1 -12 -174.71  199.63   1-0.31958 0.58023-0.54775 0.81242-0.77319-0.05734
   0   2 -10 1148.21  303.81   1-0.31235 0.52831-0.36562 0.82849-0.87678 0.18567
   0   2  -9  249.65  309.97   1-0.31421 0.50851-0.39256 0.82623-0.86438 0.24238
   0   2  -8   89.71  212.47   1-0.31555 0.48819-0.41490 0.81936-0.85339 0.30050
   0   2  -7107731.7 1700.47   1-0.31644 0.46743-0.43176 0.80701-0.84465 0.36087
   0  -2   621092.83  747.61   1-0.91444 0.78639 0.26206-0.60840 0.30841 0.10686
   0   2  -620984.01  848.51   1-0.31692 0.44624-0.44169 0.78773-0.83932 0.42466
   0  -2   5 9292.71  448.28   1-0.90603 0.79941 0.28286-0.59996 0.31477 0.03129
   0   2  -5 8973.12  440.67   1-0.31694 0.42461-0.44223 0.75906-0.83903 0.49347
   0  -2   4  103.14   47.81   1-0.90684 0.82164 0.28092-0.56877 0.31418-0.03733
   0   2  -4  243.90  119.28   1-0.31631 0.40232-0.42907 0.71669-0.84607 0.56963
   0  -2   3  608.31  148.93   1-0.91872 0.85494 0.25090-0.50950 0.30494-0.09731
   0   2  -3  680.35  185.61   1-0.31431 0.37867-0.39421 0.65262-0.86359 0.65626
   0  -2   2195906.1 1961.49   1-0.94098 0.89863 0.18461-0.41396 0.28366-0.14524
   0   2  -2184995.3 2015.34   1-0.30873 0.35137-0.32216 0.55122-0.89492 0.75676
   0  -2   1254491.6 2409.73   1-0.96675 0.94582 0.07278-0.27289 0.24513-0.17592
   0   2  -1242935.2 2395.22   1-0.29322 0.31421-0.18072 0.38059-0.93880 0.86972
   0  -2   0  252.45   84.79   1-0.97894 0.97943-0.08825-0.08259 0.18406-0.18406
   0   2   0  148.13   60.64   1-0.24905 0.24836 0.08432 0.08633-0.96481 0.96481
   0  -2  -1369489.7 3335.68   1-0.95305 0.97496-0.28581 0.14420 0.10001-0.16923
   0  -2  -2209785.4 2037.18   1-0.86952 0.91445-0.49388 0.38102-0.00200-0.13637
   0  -2  -315989.47  565.30   1-0.73747 0.80420-0.66788 0.58455-0.10024-0.10744
   0  -2  -4109868.6 1271.72   1-0.57662 0.66497-0.79551 0.74132-0.18620-0.09076
   0  -2  -4118359.9 1429.74   1-0.19927 0.28670-0.97955 0.92507-0.02771-0.24908
   0  -2  -5341550.9 3264.32   1-0.40479 0.51480-0.87767 0.85260-0.25656-0.08964
   0  -2  -5363535.5 3828.47   1-0.24005 0.34913-0.95051 0.92518-0.19723-0.14876
   0  -2  -6  101.53  124.60   1-0.23343 0.36511-0.92111 0.92514-0.31154-0.10390
   0  -2  -6  198.50  122.39   1-0.26647 0.39711-0.90914 0.91279-0.32006-0.09543
   0  -2  -7  202.75  143.06   1-0.06641 0.21961-0.93312 0.96670-0.35336-0.13132
   0  -2  -7   93.39  132.33   1-0.28375 0.43603-0.86443 0.89722-0.41500-0.06974
   0  -2  -8  612.99  138.76   1 0.09262 0.08219-0.91910 0.98184-0.38297-0.17095
   0  -2  -8  874.31  190.33   1-0.29524 0.46925-0.81787 0.88100-0.49387-0.06017
   0  -2  -922969.97  797.15   1-0.30396 0.49958-0.77146 0.86387-0.55896-0.06434
   0  -2 -10 7849.85  561.15   1-0.31025 0.52747-0.72440 0.84607-0.61561-0.07695
   0  -2 -11  502.05  238.01   1-0.31463 0.55345-0.67640 0.82734-0.66594-0.09587
   0  -2 -12  659.27  312.24   1-0.31739 0.57782-0.62711 0.80732-0.71132-0.11975
   0   3 -10  509.08  316.10   1-0.30447 0.52005-0.27727 0.82519-0.91127 0.22044
   0   3  -9  157.54  247.31   1-0.30669 0.50061-0.29985 0.81858-0.90333 0.28159
   0   3  -8 1735.11  378.89   1-0.30827 0.48054-0.31704 0.80658-0.89691 0.34425
   0   3  -7   23.90  209.26   1-0.30922 0.45982-0.32779 0.78814-0.89271 0.40913
   0  -3   675452.64 1025.08   1-0.96308 0.83528 0.09338-0.52516 0.25247 0.16279
   0   3  -677487.71 1476.56   1-0.30954 0.43855-0.33019 0.76163-0.89171 0.47704
   0  -3   534020.02 1012.23   1-0.95931 0.85294 0.11218-0.51470 0.25907 0.08698
   0   3  -531920.95 1109.97   1-0.30877 0.41606-0.32271 0.72467-0.89471 0.54930
   0  -3   4  512.37  122.91   1-0.95949 0.87454 0.11133-0.48460 0.25878 0.01806
   0   3  -4  308.70  153.78   1-0.30674 0.39237-0.30038 0.67315-0.90314 0.62681
   0  -3   3  134.70  136.65   1-0.96392 0.90039 0.08888-0.43290 0.25087-0.04324
   0   3  -3  275.61  128.12   1-0.30235 0.36632-0.25710 0.60068-0.91786 0.71061
   0  -3   2 3103.38  253.66   1-0.97131 0.92920 0.04220-0.35698 0.23404-0.09561
   0   3  -2 3913.43  320.65   1-0.29345 0.33576-0.18249 0.49688-0.93839 0.80022
   0  -3   164614.62  931.15   1-0.97794 0.95726-0.03100-0.25452 0.20652-0.13731
   0   3  -164149.80  987.46   1-0.27590 0.29649-0.06075 0.34594-0.95926 0.89017
   0  -3   0  201.93   77.41   1-0.97725 0.97799-0.13096-0.12531 0.16677-0.16677
   0  -3  -1207095.5 2149.39   1-0.96047 0.98264-0.25378 0.02674 0.11436-0.18358
   0  -3  -251696.10  810.66   1-0.91922 0.96281-0.39041 0.19262 0.05101-0.18943
   0  -3  -3 4161.53  261.69   1-0.84538 0.91278-0.53365 0.36436-0.02299-0.18457
   0  -3  -4 6674.77  352.59   1-0.74507 0.83432-0.66011 0.52055-0.09549-0.18142
   0  -3  -553314.00  893.36   1-0.62277 0.73364-0.76502 0.65463-0.16398-0.18222
   0  -3  -612301.07  407.43   1-0.48454 0.61707-0.84504 0.76377-0.22607-0.18937
   0  -3  -613598.15 1055.79   1-0.22117 0.35233-0.96835 0.88663-0.11562-0.29957
   0  -3  -7 9707.64  410.89   1-0.33666 0.49086-0.89902 0.84685-0.28002-0.20466
   0  -3  -7 9854.41  636.80   1-0.25079 0.40358-0.93608 0.88352-0.24667-0.23771
   0  -3  -8   25.91   90.55   1-0.18377 0.35963-0.92765 0.90459-0.32509-0.22884
   0  -3  -8  117.14  137.11   1-0.27263 0.44695-0.89523 0.87155-0.35246-0.20154
   0  -3  -9 6511.58  362.07   1-0.02749 0.22484-0.93196 0.93860-0.36150-0.26165
   0  -3  -9 8798.45  512.56   1-0.28796 0.48392-0.85033 0.85580-0.44045-0.18279
   0  -3 -1014238.08  682.10   1-0.29854 0.51636-0.80206 0.83823-0.51725-0.17530
   0  -3 -11 1848.05  345.57   1-0.30672 0.54614-0.75281 0.81824-0.58239-0.17942
   0  -3 -12 1613.36  394.16   1-0.31253 0.57355-0.70188 0.79658-0.64006-0.19101
   0   4  -9  447.30  264.80   1-0.29698 0.49056-0.21046 0.81452-0.93140 0.30965
   0   4  -8  960.80  340.14   1-0.29858 0.47051-0.22381 0.79869-0.92776 0.37510
   0   4  -7 1689.42  386.96   1-0.29934 0.44961-0.23031 0.77599-0.92593 0.44235
   0  -4   6  -49.98  105.54   1-0.97815 0.85060-0.03532-0.48187 0.20486 0.21041
   0   4  -6   54.41  183.72   1-0.29913 0.42773-0.22843 0.74493-0.92646 0.51197
   0  -4   526556.05  675.49   1-0.97700 0.87087-0.01488-0.47306 0.21269 0.13336
   0   4  -528657.68  964.77   1-0.29765 0.40460-0.21601 0.70331-0.92991 0.58450
   0  -4   4 7153.79  345.78   1-0.97674 0.89203-0.01110-0.44759 0.21413 0.06271
   0   4  -4 7485.64  463.91   1-0.29440 0.37969-0.18982 0.64793-0.93664 0.66031
   0  -4   3 8856.33  380.99   1-0.97760 0.91431-0.02446-0.40499 0.20903-0.00140
   0   4  -3 9468.70  512.08   1-0.28887 0.35235-0.14526 0.57419-0.94628 0.73901
   0  -4   296606.88 2968.90   1-0.97883 0.93697-0.05573-0.34446 0.19692-0.05850
   0   4  -2101112.8 3159.97   1-0.27837 0.32023-0.07588 0.47560-0.95746 0.81929
   0  -4   1119645.2 1578.38   1-0.97851 0.95807-0.10554-0.26541 0.17712-0.10791
   0   4  -1120684.3 1673.42   1-0.26044 0.28068 0.02652 0.34399-0.96512 0.89603
   0  -4  -1 2707.70  244.56   1-0.95948 0.98189-0.25839-0.05406 0.11231-0.18152
   0  -4  -217678.92  724.04   1-0.93202 0.97585-0.35606 0.07285 0.06748-0.20590
   0  -4  -481118.79 1343.97   1-0.81811 0.90822-0.57327 0.34840-0.04510-0.23181
   0  -4  -5 8626.05  378.83   1-0.73306 0.84484-0.67232 0.47655-0.10296-0.24318
   0  -4  -623772.33  904.49   1-0.63019 0.76358-0.75971 0.59313-0.16025-0.25519
   0  -4  -624732.13 1115.52   1-0.17039 0.30208-0.98221 0.81513 0.07883-0.49426
   0  -4  -7  109.11  108.16   1-0.51224 0.66729-0.83158 0.69410-0.21464-0.27004
   0  -4  -7  268.27  110.04   1-0.21127 0.36450-0.97453 0.83641-0.07507-0.40931
   0  -4  -8  645.04  166.63   1-0.38235 0.55907-0.88533 0.77697-0.26453-0.28940
   0  -4  -8  767.73  186.98   1-0.24174 0.41661-0.94847 0.83951-0.20481-0.34877
   0  -4  -9  851.66  198.95   1-0.24333 0.44171-0.91949 0.84024-0.30872-0.31445
   0  -4  -9  794.02  237.06   1-0.26531 0.46167-0.91156 0.83142-0.31409-0.30915
   0  -4 -10 1100.82  274.63   1-0.28245 0.50046-0.86846 0.81747-0.40740-0.28509
   0  -4 -11   -3.25  173.79   1-0.29471 0.53472-0.82026 0.80018-0.49022-0.27160
   0  -4 -12   87.75  189.91   1-0.30422 0.56584-0.76984 0.77904-0.56105-0.27002
   0   5  -8 3502.16  554.03   1-0.28747 0.45870-0.13546 0.79574-0.94816 0.39545
   0   5  -7  487.42  221.00   1-0.28800 0.43762-0.13920 0.77028-0.94745 0.46383
   0  -5   6 6531.48  452.41   1-0.97672 0.84941-0.13881-0.46381 0.16354 0.25172
   0   5  -6 8125.00  673.53   1-0.28736 0.41535-0.13471 0.73659-0.94830 0.53377
   0  -5   5 2021.92  280.36   1-0.97809 0.87220-0.11591-0.45746 0.17292 0.17313
   0   5  -5 2342.52  404.70   1-0.28523 0.39161-0.12020 0.69287-0.95088 0.60545
   0  -5   4 1950.36  291.22   1-0.97844 0.89398-0.10744-0.43668 0.17635 0.10049
   0   5  -4 2467.32  395.77   1-0.28112 0.36588-0.09323 0.63670-0.95513 0.67877
   0  -5   3 3667.15  301.29   1-0.97821 0.91517-0.11323-0.40164 0.17401 0.03362
   0   5  -3 3702.08  380.35   1-0.27421 0.33735-0.05060 0.56486-0.96033 0.75307
   0  -5   211508.48  522.52   1-0.97710 0.93549-0.13334-0.35228 0.16579-0.02737
   0   5  -212115.79  574.96   1-0.26321 0.30473 0.01171 0.47334-0.96466 0.82648
   0  -5   1 8238.08  399.37   1-0.97411 0.95392-0.16782-0.28855 0.15146-0.08225
   0   5  -1 8426.50  453.76   1-0.24617 0.26607 0.09820 0.35764-0.96423 0.89514
   0  -5   045054.43 1553.35   1-0.96751 0.96875-0.21636-0.21076 0.13076-0.13076
   0  -5  -1 7798.72  459.62   1-0.95498 0.97764-0.27800-0.11988 0.10354-0.17275
   0  -5  -215932.77  713.51   1-0.93380 0.97788-0.35087-0.01776 0.06994-0.20836
   0  -5  -351080.42 1028.51   1-0.89817 0.96731-0.43887 0.09883 0.02597-0.23354
   0  -5  -470453.50 2280.44   1-0.85139 0.94212-0.52422 0.21311-0.01795-0.25880
   0  -5  -5 2118.66  253.03   1-0.78903 0.90167-0.61075 0.32966-0.06631-0.27983
   0  -5  -6 1458.67  234.19   1-0.71184 0.84609-0.69272 0.44082-0.11580-0.29964
   0  -5  -712249.09  586.58   1-0.61986 0.77577-0.76707 0.54428-0.16543-0.31925
   0  -5  -713143.36  709.21   1-0.16988 0.32367-0.98215 0.75871 0.08065-0.56531
   0  -5  -819769.45  706.63   1-0.51431 0.69188-0.83053 0.63685-0.21377-0.34016
   0  -5  -818545.08  875.92   1-0.20789 0.38320-0.97621 0.78169-0.06154-0.49204
   0  -5  -9 5154.07  431.16   1-0.39669 0.59592-0.88051 0.71595-0.25947-0.36371
   0  -5  -9 5510.29  920.90   1-0.23766 0.43461-0.95326 0.78790-0.18654-0.43625
   0  -5 -10 2189.65  282.82   1-0.26848 0.48938-0.91492 0.77947-0.30136-0.39106
   0  -5 -10 1491.61  287.27   1-0.26161 0.48002-0.91884 0.78224-0.29542-0.39707
   0  -5 -11  -66.74  161.62   1-0.27954 0.51959-0.87706 0.76961-0.39064-0.37110
   0  -5 -12  191.33  185.11   1-0.29269 0.55491-0.82894 0.75262-0.47664-0.35443
   0   6  -7 9581.63  834.11   1-0.27475 0.42402-0.05382 0.77022-0.96000 0.47639
   0   6  -6  137.97  204.05   1-0.27379 0.40144-0.04809 0.73529-0.96058 0.54605
   0  -6   5  -32.37  160.83   1-0.96989 0.86425-0.20110-0.45770 0.13734 0.20871
   0   6  -5  -14.19  218.70   1-0.27123 0.37726-0.03308 0.69108-0.96194 0.61650
   0  -6   4  192.34  290.94   1-0.97163 0.88742-0.18856-0.44099 0.14270 0.13414
   0   6  -4  -40.98  201.88   1-0.26663 0.35104-0.00699 0.63578-0.96377 0.68742
   0  -6   3  691.28  199.41   1-0.97166 0.90888-0.18832-0.41198 0.14280 0.06483
   0   6  -3  636.64  269.86   1-0.25932 0.32212 0.03240 0.56718-0.96524 0.75798
   0  -6   2  328.28  131.84   1-0.97003 0.92866-0.20015-0.37091 0.13775 0.00067
   0   6  -2  520.30  228.49   1-0.24836 0.28954 0.08764 0.48273-0.96469 0.82651
   0  -6   1 7184.44  455.00   1-0.96624 0.94630-0.22384-0.31797 0.12751-0.05830
   0  -6   0 7230.51  469.09   1-0.95934 0.96082-0.25905-0.25350 0.11202-0.11202
   0  -6  -1 2586.00  302.34   1-0.94792 0.97083-0.30514-0.17817 0.09121-0.16042
   0  -6  -2 7395.86  441.30   1-0.93029 0.97462-0.36098-0.09308 0.06515-0.20357
   0  -6  -330094.60 1168.41   1-0.90146 0.97147-0.43183 0.00642 0.02946-0.23703
   0  -6  -4 6082.57  431.80   1-0.86528 0.95688-0.50125 0.10477-0.00584-0.27091
   0  -6  -5 1772.38  249.03   1-0.81736 0.93086-0.57430 0.20788-0.04567-0.30047
   0  -6  -616941.59  742.40   1-0.75737 0.89254-0.64706 0.30975-0.08763-0.32774
   0  -6  -7 4110.09  381.69   1-0.68466 0.84142-0.71692 0.40883-0.13135-0.35334
   0  -6  -8  434.01  288.12   1-0.59917 0.77760-0.78113 0.50214-0.17555-0.37838
   0  -6  -8  591.79  195.70   1-0.17412 0.35000-0.98254 0.70274 0.06548-0.61939
   0  -6  -9 3276.98  348.32   1-0.50138 0.70147-0.83700 0.58712-0.21918-0.40399
   0  -6  -9 3237.23  692.72   1-0.20911 0.40650-0.97563 0.72471-0.06642-0.55636
   0  -6 -10 1183.11  276.93   1-0.39191 0.61366-0.88215 0.66138-0.26116-0.43125
   0  -6 -10 1161.41  272.16   1-0.23750 0.45653-0.95344 0.73168-0.18581-0.50617
   0  -6 -11  -63.18  148.24   1-0.26103 0.50149-0.91993 0.72687-0.29253-0.46921
   0  -6 -12 1649.44  400.40   1-0.27902 0.54111-0.87853 0.71461-0.38770-0.44329
   0   7  -6   12.43  248.80   1-0.25926 0.38656 0.03275 0.73977-0.96525 0.55072
   0  -7   5 1724.74  363.24   1-0.95541 0.85002-0.27622-0.46800 0.10434 0.24171
   0   7  -5 2092.77  383.99   1-0.25646 0.36215 0.04726 0.69605-0.96539 0.61995
   0  -7   4 2079.97  396.71   1-0.95909 0.87512-0.26021-0.45477 0.11150 0.16534
   0   7  -4 1540.21  374.04   1-0.25163 0.33570 0.07160 0.64251-0.96516 0.68881
   0  -7   3    5.94  174.73   1-0.96018 0.89764-0.25513-0.43060 0.11376 0.09387
   0  -7   2  937.68  260.04   1-0.95900 0.91789-0.26058-0.39590 0.11134 0.02707
   0  -7   1  196.79  286.23   1-0.95540 0.93571-0.27623-0.35100 0.10433-0.03512
   0  -7   0 1583.09  313.99   1-0.94886 0.95059-0.30174-0.29625 0.09277-0.09277
   0  -7  -1  675.79  276.72   1-0.93852 0.96167-0.33658-0.23215 0.07665-0.14586
   0  -7  -2   95.52  165.16   1-0.92328 0.96785-0.38001-0.15948 0.05604-0.19446
   0  -7  -3  243.93  174.69   1-0.89861 0.96950-0.43793-0.07285 0.02644-0.23401
   0  -7  -4 6990.84  481.60   1-0.86907 0.96154-0.49467 0.01283-0.00241-0.27434
   0  -7  -5   55.38  188.92   1-0.83074 0.94481-0.55555 0.10265-0.03484-0.31110
   0  -7  -6  771.25  283.13   1-0.78207 0.91809-0.61910 0.19646-0.07114-0.34423
   0  -7  -714309.05  655.02   1-0.72302 0.88071-0.68215 0.28862-0.10906-0.37554
   0  -7  -8 1833.38  340.30   1-0.65283 0.83212-0.74278 0.37849-0.14857-0.40536
   0  -7  -8 1801.00  336.70   1-0.14343 0.31977-0.97465 0.60931 0.17168-0.72559
   0  -7  -9 4910.22  511.83   1-0.57124 0.77219-0.79879 0.46361-0.18868-0.43449
   0  -7  -9 4595.63  897.58   1-0.18143 0.37926-0.98260 0.64612 0.03953-0.66232
   0  -7 -10  137.45  149.29   1-0.47829 0.70089-0.84792 0.54185-0.22859-0.46382
   0  -7 -10   -2.93  125.87   1-0.21362 0.43308-0.97324 0.66592-0.08456-0.60743
   0  -7 -11  807.98  331.20   1-0.37407 0.61834-0.88800 0.61103-0.26741-0.49424
   0  -7 -11  575.14  195.03   1-0.24034 0.48145-0.95017 0.67201-0.19851-0.56267
   0  -7 -12   98.76  189.73   1-0.26300 0.52550-0.91617 0.66665-0.30239-0.52860
   0  -8   4 1555.06  361.47   1-0.94194 0.85822-0.32566-0.47474 0.08174 0.19510
   0  -8   3 4553.25  517.18   1-0.94465 0.88236-0.31660-0.45456 0.08594 0.12169
   0  -8   2  -22.31  197.83   1-0.94455 0.90368-0.31695-0.42495 0.08577 0.05264
   0  -8   1  808.33  267.89   1-0.94173 0.92228-0.32635-0.38631 0.08142-0.01221
   0  -8   0 1418.95  332.44   1-0.93597 0.93795-0.34441-0.33900 0.07298-0.07298
   0  -8  -1 6484.12  525.37   1-0.92677 0.95017-0.37071-0.28345 0.06050-0.12971
   0  -8  -253357.26 1263.57   1-0.91339 0.95822-0.40467-0.22024 0.04406-0.18248
   0  -8  -327761.65  950.14   1-0.89155 0.96330-0.45250-0.14365 0.01914-0.22671
   0  -8  -4   14.74  217.65   1-0.86652 0.95987-0.49910-0.06811-0.00472-0.27203
   0  -8  -5  -64.43  204.24   1-0.83440 0.94934-0.55022 0.01194-0.03194-0.31400
   0  -8  -6  436.26  255.17   1-0.79391 0.93079-0.60477 0.09680-0.06287-0.35250
   0  -8  -7 9110.33  576.00   1-0.74466 0.90320-0.66053 0.18167-0.09575-0.38885
   0  -8  -8 2272.13  340.04   1-0.68585 0.86599-0.71591 0.26631-0.13069-0.42324
   0  -8  -9 1508.77  360.96   1-0.61689 0.81869-0.76914 0.34865-0.16691-0.45626
   0  -8  -9 1313.22  388.44   1-0.15661 0.35504-0.97944 0.55774 0.12709-0.75024
   0  -8 -10  213.52  240.59   1-0.53748 0.76094-0.81827 0.42688-0.20382-0.48859
   0  -8 -10  124.44  170.35   1-0.19093 0.41083-0.98159 0.58871 0.00415-0.69614
   0  -8 -11 1920.62  380.86   1-0.44736 0.69248-0.86134 0.49907-0.24071-0.52094
   0  -8 -11 1711.31  421.92   1-0.22051 0.46205-0.96883 0.60511-0.11285-0.64833
   0  -9   3  146.15  287.89   1-0.92538 0.86334-0.37444-0.48214 0.05871 0.14891
   0  -9   2 -133.46  191.36   1-0.92681 0.88618-0.37060-0.45673 0.06055 0.07786
   0  -9   1    8.94  249.90   1-0.92519 0.90599-0.37495-0.42314 0.05847 0.01073
   0  -9   013482.37  864.28   1-0.92053 0.92276-0.38708-0.38175 0.05262-0.05262
   0  -9  -1 2846.06  514.37   1-0.91257 0.93622-0.40662-0.33297 0.04310-0.11231
   0  -9  -220568.13  951.05   1-0.89764 0.94868-0.43997-0.27050 0.02542-0.16380
   0  -9  -313907.32  772.02   1-0.88110 0.95373-0.47283-0.20870 0.00883-0.21640
   0  -9  -4  317.31  311.14   1-0.85940 0.95362-0.51117-0.14141-0.01104-0.26571
   0  -9  -5  967.93  343.38   1-0.83175 0.94756-0.55409-0.06955-0.03405-0.31189
   0  -9  -6   -1.62  197.48   1-0.79716 0.93490-0.60071 0.00741-0.06055-0.35482
   0  -9  -7 3869.42  440.13   1-0.75508 0.91449-0.64953 0.08534-0.08911-0.39549
   0  -9  -8  628.93  310.27   1-0.70479 0.88579-0.69919 0.16428-0.11991-0.43402
   0  -9  -9 1077.84  404.82   1-0.64558 0.84824-0.74833 0.24253-0.15237-0.47081
   0  -9 -10  237.08  207.14   1-0.57697 0.80129-0.79529 0.31860-0.18604-0.50638
   0  -9 -10  306.06  220.05   1-0.17078 0.39131-0.98225 0.50419 0.07745-0.76984
   0  -9 -11  335.71  392.75   1-0.49850 0.74448-0.83840 0.39082-0.22037-0.54129
   0  -9 -11  415.33  185.21   1-0.20197 0.44395-0.97864 0.52936-0.03822-0.72295
   0 -10   1  480.57  333.77   1-0.90568 0.88673-0.42248-0.46103 0.03528 0.03393
   0 -10   0 2508.85  468.40   1-0.89948 0.90820-0.43609-0.41763 0.02735-0.02735
   0 -10  -1 8396.15  676.33   1-0.89262 0.92293-0.45035-0.37443 0.02022-0.08941
   0 -10  -211450.20  727.99   1-0.88213 0.93404-0.47088-0.32496 0.00982-0.14820
   0 -10  -3  711.04  331.19   1-0.86762 0.94112-0.49720-0.26970-0.00373-0.20383
   0 -10  -4 2003.59  436.43   1-0.84855 0.94364-0.52871-0.20925-0.02034-0.25641
   0 -10  -5 5757.72  600.13   1-0.82432 0.94100-0.56471-0.14431-0.03987-0.30607
   0 -10  -6  603.45  252.50   1-0.79419 0.93278-0.60441-0.07420-0.06267-0.35270
   0 -10  -7 9600.73  741.64   1-0.75752 0.91778-0.64691-0.00260-0.08753-0.39706
   0 -10  -8 1289.87  408.69   1-0.71372 0.89557-0.69096 0.07075-0.11469-0.43923
   0 -10  -9  595.98  328.13   1-0.66206 0.86557-0.73554 0.14443-0.14368-0.47949
   0 -10 -10   34.24  213.12   1-0.60200 0.82718-0.77925 0.21725-0.17418-0.51823
   0 -10 -10 -126.65  175.08   1-0.15382 0.37480-0.97860 0.41500 0.13664-0.82903
   0 -11  -1  136.41  262.45   1-0.87272 0.90390-0.48821-0.42194 0.00092-0.07011
   0 -11  -2 1787.28  511.62   1-0.86386 0.91663-0.50367-0.37754-0.00711-0.13126
   0 -11  -3 1087.80  445.62   1-0.85120 0.92557-0.52452-0.32775-0.01811-0.18945
   0 -11  -4  181.56  233.43   1-0.83436 0.93033-0.55027-0.27306-0.03196-0.24479
   0 -11  -5  507.88  326.26   1-0.81301 0.93078-0.58018-0.21287-0.04895-0.29719
   0 -11  -6  489.61  264.15   1-0.78630 0.92575-0.61406-0.14988-0.06821-0.34715
   0 -11  -7 2018.07  482.95   1-0.75384 0.91496-0.65086-0.08397-0.08990-0.39469
   0 -11  -8  -42.72  254.97   1-0.71511 0.89782-0.68966-0.01586-0.11387-0.44006
   1 -11  -7  797.02  332.13   1-0.69017 0.93405-0.71218-0.02244-0.12826-0.35642
   1 -11  -6  224.08  242.51   1-0.72546 0.94772-0.67979-0.08415-0.10759-0.30778
   1 -11  -5 2418.15  449.75   1-0.75509 0.95568-0.64952-0.14352-0.08910-0.25704
   1 -11  -4   14.45  233.33   1-0.77943 0.95834-0.62222-0.19993-0.07295-0.20395
   1 -11  -3  545.67  355.09   1-0.79886 0.95610-0.59857-0.25269-0.05933-0.14835
   1 -11  -2  548.99  417.79   1-0.81373 0.94930-0.57921-0.30116-0.04841-0.09004
   1 -11  -1   41.66  290.91   1-0.82419 0.93804-0.56489-0.34527-0.03996-0.02922
   1 -10  -9  -11.20  223.39   1-0.58850 0.87485-0.78805 0.19694-0.18064-0.44254
   1 -10  -8   65.20  233.74   1-0.64250 0.90719-0.75065 0.13043-0.15396-0.39997
   1 -10  -7  817.87  365.94   1-0.68931 0.93233-0.71293 0.06360-0.12875-0.35594
   1 -10  -6 1237.03  399.21   1-0.72929 0.95069-0.67605-0.00257-0.10526-0.31010
   1 -10  -5 4605.28  586.31   1-0.76297 0.96270-0.64094-0.06678-0.08397-0.26216
   1 -10  -4  357.37  260.66   1-0.79079 0.96885-0.60860-0.12822-0.06507-0.21184
   1 -10  -3  283.40  302.11   1-0.81322 0.96960-0.57990-0.18604-0.04879-0.15888
   1 -10  -2  805.83  330.81   1-0.83063 0.96521-0.55571-0.24013-0.03493-0.10344
   1 -10  -1 3223.08  558.83   1-0.84352 0.95650-0.53652-0.28826-0.02453-0.04465
   1 -10   0 2771.42  477.36   1-0.85217 0.94355-0.52297-0.33075-0.01729 0.01729
   1 -10   1  268.62  242.32   1-0.85672 0.92651-0.51559-0.36707-0.01338 0.08257
   1  -9 -10  137.27  208.57   1-0.49683 0.80398-0.83921 0.36252-0.22106-0.47135
   1  -9  -9   64.25  208.93   1-0.56631 0.85180-0.80176 0.29596-0.19094-0.43223
   1  -9  -9   72.76  109.48   1-0.15114 0.43295-0.97770 0.47046 0.14576-0.76890
   1  -9  -8 3221.13  478.21   1-0.62760 0.89143-0.76158 0.22667-0.16156-0.39237
   1  -9  -7  379.79  213.28   1-0.68099 0.92316-0.72003 0.15601-0.13338-0.35130
   1  -9  -6  152.41  219.02   1-0.72682 0.94736-0.67847 0.08517-0.10677-0.30860
   1  -9  -5  133.06  216.75   1-0.76555 0.96443-0.63808 0.01567-0.08227-0.26386
   1  -9  -4   54.23  245.67   1-0.79767 0.97487-0.60007-0.05143-0.06019-0.21672
   1  -9  -314476.35  781.40   1-0.82376 0.97905-0.56549-0.11604-0.04030-0.16726
   1  -9  -215341.35  855.33   1-0.84420 0.97790-0.53548-0.17498-0.02397-0.11440
   1  -9  -1 2694.91  475.72   1-0.85965 0.97175-0.51076-0.22865-0.01083-0.05835
   1  -9   0 3281.79  535.88   1-0.87055 0.96107-0.49206-0.27629-0.00106 0.00106
   1  -9   1  566.13  468.47   1-0.87724 0.94616-0.48001-0.31728 0.00515 0.06403
   1  -9   2   38.34  190.19   1-0.87985 0.92717-0.47518-0.35105 0.00763 0.13074
   1  -9   3  345.11  308.24   1-0.87827 0.90401-0.47811-0.37707 0.00613 0.20143
   1  -8 -11    4.03  190.67   1-0.36444 0.69240-0.89100 0.52872-0.27072-0.49093
   1  -8 -10  288.48  273.34   1-0.45218 0.75848-0.85934 0.46796-0.23886-0.45355
   1  -8 -10   74.86  116.51   1-0.20758 0.51042-0.97635 0.58347-0.06031-0.63167
   1  -8  -9 1219.19  318.77   1-0.53112 0.81576-0.82172 0.40123-0.20659-0.41659
   1  -8  -9 1180.20  340.14   1-0.17316 0.45452-0.98247 0.56077 0.06890-0.69205
   1  -8  -8  740.24  265.01   1-0.60135 0.86433-0.77969 0.33009-0.17450-0.37943
   1  -8  -7 2573.83  389.36   1-0.66300 0.90431-0.73479 0.25608-0.14318-0.34151
   1  -8  -6   91.37  208.75   1-0.71626 0.93594-0.68860 0.18063-0.11310-0.30227
   1  -8  -5  898.63  257.45   1-0.76148 0.95950-0.64258 0.10551-0.08495-0.26119
   1  -8  -4   16.56  189.81   1-0.79912 0.97547-0.59824 0.03206-0.05914-0.21777
   1  -8  -3 6860.62  561.84   1-0.82988 0.98430-0.55680-0.03935-0.03552-0.17204
   1  -8  -249198.66 1239.73   1-0.85403 0.98686-0.51997-0.10512-0.01569-0.12268
   1  -8  -142225.19 1166.66   1-0.87250 0.98373-0.48860-0.16543 0.00072-0.06991
   1  -8   032739.81 1010.73   1-0.88591 0.97555-0.46365-0.21933 0.01351-0.01351
   1  -8   1 7324.49  583.43   1-0.89478 0.96283-0.44592-0.26600 0.02244 0.04674
   1  -8   2 1338.08  334.09   1-0.89947 0.94593-0.43610-0.30476 0.02734 0.11103
   1  -8   3  658.40  235.03   1-0.90008 0.92494-0.43481-0.33499 0.02799 0.17957
   1  -8   4   79.93  177.41   1-0.89636 0.89963-0.44265-0.35609 0.02408 0.25267
  -1   8  -5  390.01  232.85   1-0.24762 0.27001 0.09123 0.73742-0.96455 0.61911
   1  -7 -11  -27.84  145.28   1-0.28994 0.61705-0.91048 0.63351-0.29486-0.46679
   1  -7 -11   41.03  134.22   1-0.25566 0.57970-0.92829 0.65013-0.27000-0.49118
   1  -7 -10 1269.78  346.30   1-0.38873 0.69418-0.88322 0.57714-0.26229-0.43012
   1  -7 -10  687.20  233.77   1-0.23029 0.53269-0.96081 0.65349-0.15424-0.53774
   1  -7  -9  132.95  165.97   1-0.47875 0.76253-0.84771 0.51253-0.22840-0.39477
   1  -7  -9  247.29  175.54   1-0.19880 0.47956-0.97969 0.64321-0.02589-0.59689
   1  -7  -8  916.44  275.35   1-0.55983 0.82195-0.80559 0.44130-0.19389-0.36004
   1  -7  -8  590.42  144.92   1-0.16055 0.41981-0.98048 0.61514 0.11344-0.66735
   1  -7  -7 1682.59  330.86   1-0.63182 0.87228-0.75853 0.36513-0.15943-0.32526
   1  -7  -6  483.20  232.74   1-0.69465 0.91345-0.70826 0.28575-0.12573-0.28972
   1  -7  -5 3868.80  440.16   1-0.74842 0.94558-0.65661 0.20486-0.09337-0.25277
   1  -7  -4  216.63  202.93   1-0.79344 0.96893-0.60535 0.12449-0.06320-0.21370
   1  -7  -3 5749.75  455.75   1-0.83042 0.98397-0.55602 0.04523-0.03510-0.17246
   1  -7  -2 2114.31  401.64   1-0.85948 0.99143-0.51104-0.02868-0.01098-0.12739
   1  -7  -1 8011.94  524.75   1-0.88179 0.99215-0.47154-0.09713 0.00949-0.07868
   1  -7   0 3544.54  449.63   1-0.89819 0.98696-0.43881-0.15879 0.02599-0.02599
   1  -7   114716.32  680.43   1-0.91211 0.97524-0.40771-0.21952 0.04257 0.02664
   1  -7   2 3590.84  387.67   1-0.91862 0.96032-0.39191-0.26457 0.05028 0.08813
   1  -7   322958.73  887.16   1-0.92108 0.94135-0.38570-0.30003 0.05329 0.15434
  -1   7  -323102.99  939.70   1-0.25104 0.23053 0.07455 0.61035-0.96510 0.75783
   1  -7   4 2648.92  362.17   1-0.91949 0.91834-0.38973-0.32524 0.05134 0.22550
  -1   7  -4 2865.88  438.50   1-0.25837 0.25948 0.03737 0.67674-0.96532 0.68896
   1  -7   5 2235.75  354.14   1-0.91336 0.89079-0.40474-0.33948 0.04402 0.30203
  -1   7  -5 2760.27  523.70   1-0.26316 0.28588 0.01201 0.73130-0.96467 0.61923
  -1   7  -6   27.04  232.44   1-0.26595 0.31029-0.00323 0.77576-0.96398 0.54945
   1  -6 -11  202.11  209.04   1-0.19069 0.51694-0.92689 0.73523-0.32326-0.43839
   1  -6 -11   -2.23  146.19   1-0.27500 0.59837-0.88933 0.69626-0.36532-0.39642
   1  -6 -10  376.13  243.74   1-0.30117 0.60575-0.90795 0.68719-0.29139-0.40103
   1  -6 -10  193.36  193.78   1-0.25345 0.55542-0.93192 0.71016-0.25936-0.43262
   1  -6  -9 6935.51  564.17   1-0.40353 0.68645-0.87812 0.62825-0.25701-0.36616
   1  -6  -9 6867.79  569.02   1-0.22664 0.50697-0.96406 0.71313-0.13863-0.48415
   1  -6  -858276.55 1272.74   1-0.49732 0.75859-0.83897 0.55999-0.22085-0.33307
   1  -6  -858765.88 1290.29   1-0.19244 0.45112-0.98130 0.70122-0.00153-0.55205
   1  -6  -7161487.8 2052.07   1-0.58203 0.82163-0.79214 0.48405-0.18368-0.30101
   1  -6  -7159924.8 4504.85   1-0.14963 0.38678-0.97716 0.66817 0.15088-0.63555
   1  -6  -610067.81  596.53   1-0.65714 0.87508-0.73943 0.40223-0.14630-0.26914
   1  -6  -5  -58.77  156.74   1-0.72232 0.91862-0.68283 0.31641-0.10948-0.23666
   1  -6  -4 7517.09  440.56   1-0.77747 0.95210-0.62450 0.22897-0.07429-0.20262
   1  -6  -3 2861.84  325.86   1-0.82319 0.97586-0.56629 0.14088-0.04074-0.16682
   1  -6  -2 1440.05  279.31   1-0.85915 0.99023-0.51159 0.05723-0.01127-0.12710
   1  -6  -1 1188.41  265.03   1-0.88678 0.99627-0.46196-0.02133 0.01436-0.08355
   1  -6   0 3021.34  323.36   1-0.90991 0.99421-0.41286-0.09969 0.04003-0.04003
   1  -6   125580.77  940.72   1-0.92368 0.98656-0.37894-0.16286 0.05655 0.01265
   1  -6   2 2399.27  282.99   1-0.93238 0.97383-0.35501-0.21604 0.06798 0.07044
  -1   6  -2 2336.36  437.27   1-0.25576 0.21397 0.05085 0.51953-0.96540 0.82722
   1  -6   3  167.06  221.56   1-0.93676 0.95679-0.34202-0.25828 0.07410 0.13352
  -1   6  -3   88.77  181.65   1-0.26648 0.24631-0.00617 0.60576-0.96381 0.75655
   1  -6   4 7069.97  468.43   1-0.93719 0.93579-0.34072-0.28883 0.07471 0.20213
  -1   6  -4 7297.14  592.86   1-0.27352 0.27497-0.04648 0.67527-0.96074 0.68438
   1  -6   5  -98.92  140.99   1-0.93346 0.91065-0.35186-0.30693 0.06946 0.27659
  -1   6  -5   43.32  202.72   1-0.27791 0.30098-0.07302 0.73102-0.95782 0.61238
  -1   6  -6  289.34  282.60   1-0.28034 0.32503-0.08826 0.77546-0.95583 0.54130
  -1   6  -7 4125.88  590.42   1-0.28126 0.34757-0.09414 0.81054-0.95500 0.47138
   1  -5 -11  892.39  244.42   1-0.29083 0.61426-0.83649 0.73091-0.46442-0.29740
   1  -5 -10   -0.47  139.59   1-0.18361 0.48734-0.92767 0.79221-0.32513-0.36728
   1  -5 -10   67.05  174.90   1-0.27592 0.57725-0.88694 0.75034-0.37039-0.32211
   1  -5  -9  210.68  192.51   1-0.29836 0.58043-0.90860 0.74403-0.29226-0.33091
   1  -5  -9  374.99  166.32   1-0.25430 0.53419-0.93054 0.76518-0.26345-0.35933
   1  -5  -8111718.2 1606.94   1-0.40593 0.66634-0.87726 0.68359-0.25614-0.29779
   1  -5  -8117719.8 1938.67   1-0.22651 0.48476-0.96416 0.76964-0.13808-0.41550
   1  -5  -731484.65 1092.55   1-0.50542 0.74417-0.83500 0.61222-0.21750-0.26719
   1  -5  -734218.97 1482.28   1-0.18961 0.42622-0.98181 0.75813 0.00912-0.49351
   1  -5  -632894.16 1106.91   1-0.59579 0.81288-0.78334 0.53145-0.17717-0.23828
   1  -5  -634377.14 1073.06   1-0.14130 0.35636-0.97369 0.72107 0.17875-0.59418
   1  -5  -5  409.76  208.89   1-0.67604 0.87146-0.72418 0.44318-0.13611-0.21009
   1  -5  -434586.20 1262.93   1-0.74534 0.91912-0.65982 0.34962-0.09532-0.18159
   1  -5  -3 7767.98  386.74   1-0.80323 0.95534-0.59300 0.25369-0.05617-0.15151
   1  -5  -2127206.4 3892.35   1-0.85010 0.98031-0.52627 0.15728-0.01904-0.11933
   1  -5  -1 7640.09  391.64   1-0.88577 0.99439-0.46391 0.06598 0.01337-0.08256
   1  -5   018881.04  788.68   1-0.91459 0.99864-0.40181-0.02532 0.04546-0.04546
   1  -5   110282.80  430.76   1-0.93225 0.99488-0.35538-0.10099 0.06780 0.00140
  -1   5  -111061.85  487.76   1-0.25475 0.19169 0.05596 0.39988-0.96538 0.89629
   1  -5   2 3472.15  321.74   1-0.94354 0.98475-0.32035-0.16528 0.08420 0.05421
  -1   5  -2 3562.80  378.98   1-0.27125 0.22981-0.03321 0.51827-0.96193 0.82375
   1  -5   3 2495.26  285.43   1-0.94985 0.96963-0.29810-0.21678 0.09443 0.11320
  -1   5  -3 2576.83  326.15   1-0.28161 0.26178-0.09634 0.61060-0.95467 0.74741
   1  -5   4 1802.46  262.00   1-0.95208 0.95044-0.28961-0.25451 0.09829 0.17855
  -1   5  -4 2330.45  388.51   1-0.28795 0.28975-0.13886 0.68233-0.94752 0.67116
   1  -5   5  454.99  227.98   1-0.95049 0.92742-0.29569-0.27768 0.09553 0.25053
  -1   5  -5  383.18  229.79   1-0.29117 0.31483-0.16535 0.73799-0.94226 0.59685
  -1   5  -6   87.07  225.33   1-0.29304 0.33835-0.17937 0.78120-0.93912 0.52462
  -1   5  -7 2120.88  445.59   1-0.29357 0.36054-0.18344 0.81446-0.93816 0.45459
  -1   5  -8 3477.81  517.79   1-0.29305 0.38168-0.17941 0.83962-0.93911 0.38645
   1  -4 -12  623.78  261.76   1-0.31105 0.65548-0.71701 0.72620-0.62380-0.20726
   1  -4 -11   26.18  145.38   1-0.30384 0.62668-0.77221 0.75214-0.55798-0.20383
   1  -4 -10  147.03  177.60   1-0.03043 0.33323-0.93210 0.88264-0.36091-0.33149
   1  -4 -10   94.65  172.56   1-0.29356 0.59479-0.82527 0.77592-0.48243-0.21013
   1  -4  -9  434.63  185.13   1-0.15609 0.43730-0.93019 0.85094-0.33221-0.29096
   1  -4  -9  675.16  214.96   1-0.27979 0.55908-0.87636 0.79622-0.39204-0.23120
   1  -4  -813692.33  606.45   1-0.27613 0.53568-0.91340 0.80503-0.29907-0.25486
   1  -4  -814056.20  773.29   1-0.25906 0.51687-0.92234 0.81337-0.28665-0.26693
   1  -4  -7 2841.53  340.87   1-0.39064 0.62853-0.88258 0.74510-0.26162-0.22307
   1  -4  -7 2352.13  548.48   1-0.23128 0.46745-0.95988 0.82176-0.15852-0.32587
   1  -4  -6 4838.35  349.33   1-0.49824 0.71446-0.83853 0.67195-0.22048-0.19496
   1  -4  -6 5326.66  376.53   1-0.19220 0.40673-0.98135 0.81407-0.00064-0.41454
   1  -4  -5 2876.76  241.92   1-0.59724 0.79180-0.78240 0.58671-0.17648-0.16972
   1  -4  -4 1222.45  188.25   1-0.68580 0.85870-0.71595 0.49115-0.13071-0.14625
   1  -4  -3426520.5 4268.31   1-0.76222 0.91347-0.64177 0.38779-0.08447-0.12321
   1  -4  -294090.48 1341.74   1-0.82573 0.95507-0.56271 0.27910-0.03877-0.09960
   1  -4   098947.64 1430.63   1-0.91321 0.99702-0.40510 0.06339 0.04385-0.04385
   1  -4   1 3237.16  289.69   1-0.93714 0.99953-0.34084-0.03010 0.07465-0.00544
  -1   4  -1 3536.45  294.75   1-0.27038 0.20766-0.02819 0.39871-0.96233 0.89325
   1  -4   210567.44  404.51   1-0.95209 0.99305-0.28957-0.11062 0.09831 0.04011
  -1   4  -211365.00  486.12   1-0.28691 0.24581-0.13164 0.53136-0.94886 0.81069
   1  -4   351346.44 1675.82   1-0.96048 0.98001-0.25375-0.17569 0.11437 0.09326
  -1   4  -354806.21 1879.24   1-0.29565 0.27632-0.19973 0.62865-0.93418 0.72693
   1  -4   4 2974.92  257.06   1-0.96424 0.96236-0.23487-0.22382 0.12269 0.15415
  -1   4  -4 3352.07  349.00   1-0.30073 0.30306-0.24243 0.70055-0.92237 0.64604
   1  -4   6  -25.01   86.62   1-0.96095 0.91622-0.25149-0.26570 0.11538 0.29989
  -1   4  -6   -7.84  185.68   1-0.30451 0.35016-0.27769 0.79419-0.91112 0.49663
  -1   4  -7  165.97  214.86   1-0.30458 0.37189-0.27838 0.82407-0.91089 0.42731
  -1   4  -8 1426.56  369.80   1-0.30383 0.39280-0.27106 0.84593-0.91335 0.36069
  -1   4  -9  340.67  252.91   1-0.30236 0.41298-0.25719 0.86125-0.91783 0.29609
   1  -3 -12  188.97  188.21   1-0.31662 0.66046-0.64398 0.73868-0.69644-0.13463
   1  -3 -11 2975.49  380.19   1-0.31289 0.63512-0.69796 0.76339-0.64416-0.11765
   1  -3 -10 6385.36  489.59   1-0.30701 0.60764-0.75071 0.78688-0.58494-0.10761
   1  -3  -9 1733.00  334.78   1 0.02772 0.25254-0.92779 0.93443-0.37206-0.25110
   1  -3  -9 1050.35  258.05   1-0.29846 0.57749-0.80250 0.80939-0.51663-0.10667
   1  -3  -8 2239.16  280.52   1-0.28690 0.54415-0.85403 0.83035-0.43395-0.12004
   1  -3  -722931.34  797.68   1-0.22505 0.46209-0.92239 0.87022-0.31390-0.17079
   1  -3  -726304.99  901.49   1-0.26935 0.50496-0.90287 0.85006-0.33504-0.14970
   1  -3  -6  174.12  107.97   1-0.34758 0.56296-0.89597 0.81470-0.27641-0.13903
   1  -3  -6  123.87   80.39   1-0.24279 0.45689-0.94716 0.86543-0.20960-0.20558
   1  -3  -5  644.45  149.96   1-0.46594 0.65966-0.85344 0.74306-0.23349-0.11271
   1  -3  -5  978.36  167.31   1-0.20345 0.39590-0.97809 0.86721-0.04400-0.30198
   1  -3  -4  258.21  115.24   1-0.14151 0.31236-0.97378 0.83388 0.17808-0.45503
   1  -3  -3 4473.47  294.83   1-0.68000 0.83039-0.72087 0.55227-0.13393-0.07378
   1  -3  -2    3.54  107.16   1-0.76920 0.89792-0.63399 0.43622-0.07986-0.05859
   1  -3  -1296844.3 2928.00   1-0.84259 0.94946-0.53795 0.31077-0.02530-0.04388
   1  -3   018351.65  669.64   1-0.89716 0.98244-0.44099 0.18487 0.02491-0.02491
  -1   3   018294.11  675.67   1-0.25428 0.17029 0.05833 0.19764-0.96536 0.96536
   1  -3   169446.96  979.38   1-0.93615 0.99828-0.34388 0.05835 0.07323-0.00402
  -1   3  -171548.29 1051.54   1-0.28737 0.22499-0.13478 0.41998-0.94828 0.87919
   1  -3   2580547.0 5270.09   1-0.95767 0.99839-0.26652-0.04825 0.10869 0.02973
  -1   3  -2605634.5 2745.86   1-0.30188 0.26123-0.25281 0.56720-0.91921 0.78104
   1  -3   3 6930.14  354.53   1-0.96876 0.98805-0.20857-0.13544 0.13412 0.07350
  -1   3  -3 7470.51  449.27   1-0.30872 0.28973-0.32207 0.66566-0.89496 0.68771
   1  -3   4 4583.10  246.80   1-0.97353 0.97140-0.17302-0.20024 0.14927 0.12757
  -1   3  -4 4683.90  350.72   1-0.31195 0.31472-0.36025 0.73327-0.87914 0.60270
   1  -3   5 6365.14  291.00   1-0.97481 0.95125-0.16096-0.24155 0.15434 0.19171
  -1   3  -5 6308.06  415.87   1-0.31329 0.33772-0.37881 0.78104-0.87083 0.52527
   1  -3   629826.75  882.30   1-0.97355 0.92857-0.17287-0.25890 0.14934 0.26592
  -1   3  -633372.36 1223.84   1-0.31363 0.35972-0.38380 0.81523-0.86852 0.45385
  -1   3  -7  156.30  208.76   1-0.31331 0.38105-0.37903 0.83968-0.87072 0.38695
  -1   3  -8 8859.16  642.53   1-0.31245 0.40185-0.36686 0.85671-0.87623 0.32334
  -1   3  -9 1002.34  311.93   1-0.31107 0.42213-0.34876 0.86782-0.88408 0.26208
  -1   3 -10   27.82  230.85   1-0.30907 0.44169-0.32608 0.87399-0.89339 0.20256
   1  -2 -12  203.36  273.71   1-0.31952 0.66337-0.56575 0.74496-0.76014-0.07039
   1  -2 -11  565.76  246.92   1-0.31847 0.64062-0.61670 0.76673-0.71989-0.04143
   1  -2 -10 3051.20  411.09   1-0.31532 0.61535-0.66639 0.78806-0.67564-0.01692
   1  -2  -9  776.95  225.34   1 0.24337 0.03509-0.88255 0.97459-0.40233-0.22121
   1  -2  -9  860.30  235.78   1-0.31123 0.58966-0.71523 0.80764-0.62575 0.00244
   1  -2  -8  166.56  141.78   1 0.12174 0.13599-0.91386 0.97660-0.38733-0.16658
   1  -2  -8   79.88  131.01   1-0.30513 0.56196-0.76389 0.82703-0.56864 0.01458
   1  -2  -731311.57  972.91   1-0.00209 0.23820-0.93041 0.96399-0.36650-0.11817
   1  -2  -734936.49 1100.37   1-0.29629 0.53152-0.81301 0.84688-0.50120 0.01641
   1  -2  -6 4052.39  262.22   1-0.12913 0.34365-0.93193 0.93596-0.33885-0.07659
   1  -2  -6 5077.57  332.92   1-0.28394 0.49751-0.86381 0.86745-0.41617 0.00067
   1  -2  -510948.05  485.81   1-0.25733 0.45019-0.91703 0.89196-0.30465-0.04155
   1  -2  -512345.86  542.16   1-0.26373 0.45565-0.91474 0.88924-0.30607-0.04017
   1  -2  -416033.09  645.79   1-0.38691 0.55810-0.88383 0.82965-0.26293-0.01403
   1  -2  -417095.53  626.97   1-0.22874 0.39912-0.96223 0.90774-0.14760-0.12919
   1  -2  -327224.77  548.01   1-0.51593 0.66546-0.82970 0.74641-0.21309 0.00536
   1  -2  -328439.59  484.20   1-0.16336 0.31212-0.98110 0.89756 0.10366-0.31138
   1  -2  -2113204.9 1300.96   1-0.64058 0.76845-0.75208 0.63968-0.15495 0.01647
   1  -2  -1662000.8 2073.60   1-0.75465 0.86085-0.65000 0.50845-0.08938 0.02015
   1  -2   012663.30  472.99   1-0.84999 0.93440-0.52644 0.35569-0.01913 0.01913
  -1   2   012687.74  457.99   1-0.27010 0.18645-0.02656 0.19721-0.96246 0.96246
   1  -2   1130749.1 1378.49   1-0.92012 0.98201-0.38814 0.18804 0.05211 0.01710
  -1   2  -1133697.4 1472.06   1-0.30545 0.24348-0.28704 0.48691-0.90790 0.83882
   1  -2   289236.74 1025.60   1-0.95859 0.99906-0.26244 0.03309 0.11051 0.02791
  -1   2  -294826.26 1235.25   1-0.31535 0.27511-0.41127 0.64048-0.85522 0.71700
   1  -2   335334.51  568.40   1-0.97478 0.99382-0.16133-0.09726 0.15418 0.05344
  -1   2  -335351.87  736.76   1-0.31807 0.29949-0.47028 0.72870-0.82320 0.61586
   1  -2   473355.93  908.97   1-0.97883 0.97645-0.09423-0.19360 0.18167 0.09517
  -1   2  -476767.92 1254.49   1-0.31889 0.32224-0.49634 0.78398-0.80743 0.53058
   1  -2   5 9793.85  276.33   1-0.97896 0.95515-0.06296-0.25412 0.19409 0.15197
  -1   2  -510031.91  479.78   1-0.31906 0.34411-0.50344 0.82025-0.80296 0.45690
   1  -2   633362.13  889.50   1-0.97899 0.93376-0.06591-0.28042 0.19293 0.22234
  -1   2  -636825.77 1242.61   1-0.31895 0.36570-0.49879 0.84478-0.80590 0.39063
  -1   2  -7118067.7 1799.82   1-0.31861 0.38707-0.48607 0.86124-0.81376 0.32928
  -1   2  -8 4984.62  484.33   1-0.31796 0.40767-0.46717 0.87163-0.82501 0.27212
  -1   2  -9 1126.20  300.83   1-0.31701 0.42838-0.44367 0.87733-0.83824 0.21624
  -1   2 -10 1610.77  393.05   1-0.31562 0.44865-0.41608 0.87895-0.85279 0.16168
  -1   2 -11  151.86  239.16   1-0.31370 0.46839-0.38483 0.87691-0.86803 0.10781
   1  -1 -10  900.27  292.49   1-0.31942 0.61962-0.57627 0.78259-0.75224 0.06013
   1  -1  -912339.28  624.32   1-0.31836 0.59686-0.61961 0.79675-0.71744 0.09453
   1  -1  -8 1476.23  246.64   1 0.36552-0.10912-0.83527 0.98361-0.41074-0.14351
   1  -1  -8 1436.49  223.88   1-0.31560 0.57183-0.66203 0.81067-0.67978 0.12573
   1  -1  -7  189.89  120.49   1 0.25941-0.02462-0.87729 0.99639-0.40381-0.08116
   1  -1  -7  108.66  138.85   1-0.31238 0.54701-0.70355 0.82293-0.63829 0.15350
   1  -1  -6 1453.30  168.70   1 0.14990 0.06367-0.90799 0.99767-0.39124-0.02419
   1  -1  -6 1218.57  189.91   1-0.30774 0.52077-0.74525 0.83536-0.59150 0.17596
   1  -1  -561143.13  934.92   1 0.03620 0.15574-0.92689 0.98741-0.37357 0.02737
   1  -1  -566178.52 1037.43   1-0.30110 0.49253-0.78844 0.84928-0.53636 0.19008
   1  -1  -4  115.16  158.09   1-0.08341 0.25374-0.93316 0.96453-0.34962 0.07266
   1  -1  -4  154.50   96.71   1-0.29107 0.46089-0.83553 0.86709-0.46600 0.18898
   1  -1  -321559.67  444.95   1-0.21172 0.36040-0.92428 0.92630-0.31759 0.10986
   1  -1  -324097.66  436.67   1-0.27405 0.42229-0.89173 0.89355-0.36014 0.15239
   1  -1  -2  151.94   84.47   1-0.34969 0.47671-0.89537 0.86828-0.27571 0.13722
   1  -1  -2  -14.11   41.88   1-0.22942 0.35608-0.96161 0.93437-0.15052 0.01213
   1  -1  -1371942.6 3309.50   1-0.50056 0.60591-0.83740 0.78120-0.21952 0.15028
  -1   1   0265721.6 2316.35   1-0.29643 0.21314-0.20602 0.29136-0.93256 0.93256
   1  -1   119982.99  625.04   1-0.82346 0.88546-0.56587 0.45144-0.04100 0.11023
  -1   1  -120690.21  669.10   1-0.31957 0.25807-0.54478 0.65942-0.77529 0.70608
   1  -1   221530.38  316.59   1-0.94045 0.98067-0.33048 0.18656 0.07950 0.05892
  -1   1  -223244.18  461.92   1-0.31737 0.27716-0.62779 0.77184-0.71073 0.57222
  -1   1  -3 9136.53  422.45   1-0.31630 0.29770-0.65005 0.82336-0.69092 0.48315
   1  -1   4175133.5 1637.38   1-0.97132 0.96869 0.04211-0.24453 0.23400 0.04284
  -1   1  -4185489.2 2171.92   1-0.31632 0.31931-0.64977 0.85235-0.69118 0.41415
   1  -1   5   12.67   30.23   1-0.95979 0.93574 0.10991-0.34158 0.25828 0.08777
  -1   1  -5    5.50  137.35   1-0.31690 0.34150-0.63830 0.87016-0.70152 0.35523
   1  -1   637702.47 1160.47   1-0.95822 0.91275 0.11729-0.37820 0.26085 0.15441
  -1   1  -639836.65 1448.50   1-0.31835 0.36535-0.62005 0.88058-0.71706 0.30179
  -1   1  -799372.71 2674.51   1-0.31904 0.38774-0.59707 0.88678-0.73601 0.25153
  -1   1  -8  972.94  266.24   1-0.31948 0.40989-0.57036 0.88925-0.75671 0.20301
  -1   1  -913787.15  724.74   1-0.31955 0.43165-0.54048 0.88854-0.77830 0.15540
  -1   1 -10 2371.75  371.21   1-0.31914 0.45295-0.50771 0.88495-0.80023 0.10811
  -1   1 -11 1004.72  367.06   1-0.31813 0.47313-0.47212 0.87881-0.82212 0.06190
   1   0 -11   83.71  205.20   1-0.31705 0.63822-0.44464 0.76593-0.83771 0.07749
   1   0 -10  588.78  234.01   1-0.31856 0.61851-0.48435 0.77613-0.81481 0.12269
   1   0  -9 2419.43  310.15   1-0.31937 0.59762-0.52127 0.78387-0.79137 0.16847
   1   0  -816335.70  529.37   1 0.59082-0.33469-0.69696 0.93055-0.40640-0.14850
   1   0  -818717.17  718.35   1-0.31957 0.57612-0.55541 0.78884-0.76771 0.21401
   1   0  -7 1197.73  179.19   1 0.51346-0.27896-0.75304 0.95743-0.41143-0.07411
   1   0  -7 1393.68  249.11   1-0.31926 0.55411-0.58661 0.79086-0.74427 0.25979
   1   0  -6 8683.79  376.84   1 0.43771-0.22499-0.79895 0.97435-0.41241-0.00328
   1   0  -6 9596.86  442.72   1-0.31854 0.53169-0.61445 0.78952-0.72178 0.30651
   1   0  -5 9894.15  358.25   1 0.36145-0.17034-0.83712 0.98329-0.41057 0.06416
   1   0  -511084.17  431.92   1-0.31689 0.50771-0.63868 0.78502-0.70119 0.35490
   1   0  -4 1482.38  192.53   1 0.28642-0.11691-0.86780 0.98473-0.40605 0.12892
   1   0  -4 1595.75  231.59   1-0.31596 0.48518-0.65618 0.77326-0.68526 0.40823
   1   0  -3 3610.18  215.09   1 0.21355-0.06565-0.89160 0.97930-0.39929 0.19145
   1   0  -3 3940.15  240.90   1-0.31556 0.46318-0.66269 0.75050-0.67915 0.47138
   1   0  -2390217.8 3495.80   1 0.14420-0.01803-0.90924 0.96755-0.39047 0.25199
   1   0  -2441344.5 3873.57   1-0.31673 0.44275-0.64183 0.70037-0.69837 0.55985
   1   0  -148184.42  594.99   1 0.08333 0.02121-0.92060 0.94975-0.38150 0.31226
  -1   0   154411.26  565.16   1-0.31309 0.20867-0.69568 0.66641-0.64652 0.71578
   1   0  -150698.82  534.56   1-0.31880 0.42345-0.49278 0.52195-0.80964 0.74043
  -1   0  -287508.21  992.05   1-0.27751 0.23787-0.88271 0.94099-0.37921 0.24071
  -1   0  -311107.36  456.28   1-0.28924 0.27123-0.84261 0.93041-0.45424 0.24647
   1   0   4117714.9 1067.13   1-0.75375 0.74963 0.53790-0.65423 0.37751-0.10009
  -1   0  -4106407.1  965.77   1 0.75726-0.75375-0.53305 0.64950-0.37735 0.10002
  -1   0  -4125478.4 1551.04   1-0.29734 0.30093-0.80802 0.92509-0.50861 0.23158
   1   0   577956.88  803.20   1-0.74339 0.71749 0.55035-0.69577 0.38009-0.03331
  -1   0  -570639.48  726.62   1 0.74610-0.72096-0.54660 0.69215-0.38021 0.03355
  -1   0  -582568.64 1285.49   1-0.30342 0.32861-0.77487 0.92121-0.55453 0.20824
   1   0   613635.75  477.91   1-0.77808 0.73039 0.50702-0.68151 0.37081 0.04531
  -1   0  -612493.54  421.93   1 0.78078-0.73403-0.50293 0.67760-0.37071-0.04528
  -1   0  -614470.29  690.02   1-0.30819 0.35499-0.74173 0.91734-0.59568 0.18014
  -1   0  -7  429.22  177.03   1-0.31197 0.38036-0.70788 0.91276-0.63369 0.14889
  -1   0  -8  292.34  252.91   1-0.31488 0.40488-0.67291 0.90707-0.66934 0.11529
  -1   0  -9 5081.56  503.61   1-0.31699 0.42859-0.63654 0.89996-0.70308 0.07977
  -1   0 -10 6859.59  549.52   1-0.31900 0.45306-0.59868 0.89046-0.73472 0.04260
  -1   0 -11  762.25  321.85   1-0.31956 0.47532-0.55884 0.87980-0.76522 0.00389
  -1   0 -12  463.33  264.86   1-0.31931 0.49676-0.51698 0.86712-0.79420-0.03633
   1   1 -11   63.17  207.29   1-0.31182 0.63268-0.35841 0.76510-0.87994 0.11972
   1   1 -10  848.98  297.88   1-0.31424 0.61344-0.39306 0.77054-0.86414 0.17303
   1   1  -9  818.53  312.03   1-0.31604 0.59358-0.42388 0.77215-0.84878 0.22678
  -1  -1   818028.99 1349.32   1-0.76483 0.50798 0.52412-0.84229 0.37458 0.18026
   1   1  -819174.25  759.16   1-0.31730 0.57319-0.45044 0.76950-0.83451 0.28162
  -1  -1   7 1979.52  472.64   1-0.71500 0.47994 0.58261-0.87168 0.38643 0.09905
   1   1  -7 2569.65  276.06   1 0.71421-0.48015-0.58226 0.87178-0.38841-0.09713
   1   1  -7 2709.33  348.80   1-0.31813 0.55235-0.47195 0.76180-0.82222 0.33844
   1   1  -615758.08  583.26   1 0.66766-0.45524-0.62983 0.89015-0.39689-0.01928
   1   1  -616812.34  694.39   1-0.31865 0.53155-0.48729 0.74782-0.81302 0.39775
   1   1  -5 3422.38  220.07   1 0.62688-0.43610-0.66704 0.89816-0.40257 0.05575
   1   1  -5 3983.55  274.35   1-0.31882 0.51001-0.49345 0.72481-0.80922 0.46317
   1   1  -427256.08  569.83   1 0.59483-0.42568-0.69376 0.89568-0.40602 0.12857
   1   1  -427043.95  633.46   1-0.31861 0.48810-0.48576 0.68794-0.81395 0.53710
   1   1  -3214404.3 2169.15   1 0.57609-0.42858-0.70845 0.88118-0.40768 0.19959
   1   1  -3215435.2 2264.54   1-0.31743 0.46503-0.45349 0.62651-0.83281 0.62547
   1   1  -231957.00  529.65   1 0.57811-0.45223-0.70690 0.85043-0.40751 0.26878
   1   1  -232295.65  550.53   1-0.31284 0.43878-0.37236 0.51618-0.87376 0.73554
   1   1  -122053.74  399.04   1 0.61328-0.50904-0.67863 0.79296-0.40413 0.33477
   1   1  -123136.91  394.56   1-0.29248 0.39677-0.17515 0.28967-0.94009 0.87100
  -1  -1   0202560.5 1885.28   1-0.70273 0.62020 0.59576-0.68126 0.38886-0.38886
   1   1   0181495.2 1712.15   1 0.70041-0.61781-0.59698 0.68211-0.39117 0.39117
   1   1   134128.85  434.90   1-0.78586 0.84659 0.49663-0.44022 0.36847-0.29911
  -1  -1  -133986.09  435.92   1-0.85305 0.79231 0.39332-0.44973 0.34291-0.41227
   1   1   2205427.4 1833.40   1-0.92618 0.96590 0.23040-0.20347 0.29849-0.16007
  -1  -1  -393775.12  913.56   1-0.82078 0.80384-0.56961 0.57160-0.04306-0.16461
  -1  -1  -3103635.5 1219.45   1-0.21623 0.19865-0.97168 0.97360-0.09521-0.11238
  -1  -1  -4142157.2 1335.65   1-0.43631 0.44097-0.86581 0.89694-0.24492-0.03204
  -1  -1  -4154885.5 1806.72   1-0.25125 0.25531-0.93537 0.96645-0.24887-0.02792
  -1  -1  -537431.08  772.76   1-0.27306 0.29874-0.89419 0.95429-0.35476 0.00851
  -1  -1  -6 9650.88  238.91   1 0.17701-0.12997-0.90143 0.99130-0.39508-0.02061
  -1  -1  -611135.88  466.26   1-0.28723 0.33454-0.85290 0.94215-0.43594 0.02043
  -1  -1  -710843.08  267.57   1 0.38127-0.31262-0.82791 0.94701-0.41133-0.07364
  -1  -1  -713466.43  554.67   1-0.29669 0.36568-0.81116 0.93053-0.50396 0.01917
  -1  -1  -8 1709.90  302.77   1-0.30418 0.39478-0.77010 0.91875-0.56071 0.00666
  -1  -1  -9 2708.67  319.48   1-0.30978 0.42198-0.72860 0.90651-0.61087-0.01243
  -1  -1 -10 7358.64  565.75   1-0.31387 0.44768-0.68626 0.89345-0.65613-0.03643
  -1  -1 -11 4993.43  613.25   1-0.31669 0.47209-0.64275 0.87920-0.69755-0.06427
  -1  -1 -12  -84.32  217.84   1-0.31902 0.49672-0.59799 0.86266-0.73527-0.09526
   1   2 -10  793.35  315.47   1-0.30712 0.60600-0.30443 0.76701-0.90166 0.21083
   1   2  -9  910.45  355.10   1-0.30951 0.58674-0.32981 0.76348-0.89186 0.26986
   1   2  -8 1147.26  283.88   1-0.31118 0.56675-0.35019 0.75464-0.88347 0.33058
  -1  -2   7  827.33  236.71   1-0.84743 0.61289 0.40308-0.77766 0.34549 0.13999
   1   2  -7 1078.21  285.00   1-0.31225 0.54616-0.36416 0.73941-0.87742 0.39365
  -1  -2   6  277.61   82.87   1-0.82098 0.60823 0.44602-0.79151 0.35644 0.05969
   1   2  -6  263.02  105.01   1 0.82097-0.60899-0.44555 0.79098-0.35703-0.05895
   1   2  -6  246.59  169.99   1-0.31267 0.52493-0.36997 0.71601-0.87484 0.46017
  -1  -2   5 9705.16  797.03   1-0.80072 0.60976 0.47599-0.79240 0.36368-0.01690
   1   2  -5 9118.87  397.76   1 0.80055-0.61018-0.47574 0.79205-0.36439 0.01773
   1   2  -5 8401.11  423.69   1-0.31228 0.50288-0.36467 0.68150-0.87720 0.53165
  -1  -2   4 1576.54  365.02   1-0.78922 0.62005 0.49205-0.77937 0.36742-0.09000
   1   2  -4 1628.83  180.45   1 0.78890-0.62015-0.49199 0.77919-0.36820 0.09087
   1   2  -4 1520.93  203.34   1-0.31062 0.47956-0.34321 0.63084-0.88640 0.60996
  -1  -2   314349.31  583.26   1-0.78957 0.64219 0.49157-0.74981 0.36731-0.15924
   1   2  -314450.65  597.66   1 0.78910-0.64197-0.49172 0.74981-0.36814 0.16014
   1   2  -315733.90  740.54   1-0.30640 0.45367-0.29682 0.55507-0.90443 0.69719
  -1  -2   2 5028.01  478.03   1-0.80521 0.67962 0.46954-0.69869 0.36215-0.22344
   1   2  -2 3901.38  245.68   1 0.80458-0.67907-0.46996 0.69894-0.36300 0.22434
   1   2  -2 3850.73  257.60   1-0.29676 0.42237-0.20871 0.43777-0.93186 0.79369
  -1  -2   1 3130.28  494.81   1-0.83898 0.73518 0.41733-0.61740 0.34919-0.27984
   1   2  -1 2727.96  200.19   1-0.27420 0.37810-0.05055 0.25041-0.96034 0.89125
  -1  -2   0129079.8 1410.77   1-0.88833 0.80601 0.32277-0.49362 0.32661-0.32661
  -1  -2  -1  411.10   76.01   1-0.94530 0.88440 0.16953-0.31114 0.27866-0.34787
  -1  -2  -2356817.1 3228.09   1-0.97868 0.93920-0.04992-0.06243 0.19919-0.33762
  -1  -2  -3999998.0 2304.33   1-0.94524 0.92719-0.31458 0.23147 0.08687-0.29450
  -1  -2  -4 1497.78  124.08   1-0.81526 0.82085-0.57714 0.52292-0.04726-0.22965
  -1  -2  -4 1788.95  474.35   1-0.17947 0.18405-0.98268 0.92832 0.04606-0.32302
  -1  -2  -5 1123.66  150.54   1-0.61545 0.64263-0.77014 0.74506-0.16762-0.17858
  -1  -2  -5  554.42  112.63   1-0.22244 0.24858-0.96741 0.94209-0.12091-0.22508
  -1  -2  -6 6287.44  242.88   1-0.38315 0.43199-0.88507 0.88911-0.26425-0.15119
  -1  -2  -6 7020.33  688.09   1-0.25104 0.29882-0.93569 0.93952-0.24789-0.16729
  -1  -2  -7 1274.52  140.92   1-0.14916 0.21967-0.93071 0.96385-0.33394-0.15074
  -1  -2  -7 1325.19  240.78   1-0.27180 0.34116-0.89722 0.93000-0.34801-0.13673
  -1  -2  -8 2354.86  181.20   1 0.07483 0.01706-0.92189 0.98463-0.38014-0.17378
  -1  -2  -8 2814.86  328.24   1-0.28636 0.37736-0.85588 0.91781-0.43064-0.12335
  -1  -2  -9 4783.70  449.97   1-0.29651 0.40931-0.81198 0.90439-0.50274-0.12056
  -1  -2 -10 4346.08  467.98   1-0.30457 0.43897-0.76757 0.88924-0.56396-0.12859
  -1  -2 -11  802.57  331.27   1-0.31053 0.46653-0.72186 0.87280-0.61845-0.14337
  -1  -2 -12   -3.84  193.71   1-0.31475 0.49236-0.67469 0.85490-0.66762-0.16345
   1   3  -9 2980.37  482.70   1-0.30047 0.57735-0.24012 0.75885-0.92306 0.30132
   1   3  -8  854.93  340.58   1-0.30221 0.55744-0.25584 0.74538-0.91826 0.36560
  -1  -3   718835.82  700.84   1-0.92367 0.69163 0.23746-0.69848 0.30073 0.18375
   1   3  -717408.90  780.88   1-0.30314 0.53670-0.26448 0.72483-0.91550 0.43192
  -1  -3   634699.17  841.97   1-0.90836 0.69774 0.27724-0.70901 0.31306 0.10221
   1   3  -634167.76 1000.96   1-0.30312 0.51503-0.26430 0.69546-0.91556 0.50106
  -1  -3   5150313.4 3675.85   1-0.89732 0.70812 0.30311-0.70563 0.32083 0.02522
   1   3  -5141395.6 3552.32   1-0.30186 0.49211-0.25264 0.65461-0.91926 0.57385
  -1  -3   4 2016.70  421.62   1-0.89220 0.72443 0.31444-0.68771 0.32418-0.04733
   1   3  -4 2075.69  299.56   1-0.29876 0.46735-0.22536 0.59813-0.92733 0.65100
  -1  -3   319284.49  905.51   1-0.89446 0.74811 0.30948-0.65350 0.32272-0.11508
   1   3  -318338.14  772.38   1-0.29261 0.43954-0.17608 0.51966-0.93987 0.73263
  -1  -3   2 5536.56  560.03   1-0.90501 0.78009 0.28529-0.60007 0.31550-0.17708
   1   3  -2 5153.44  447.93   1-0.28142 0.40659-0.09513 0.40953-0.95485 0.81668
  -1  -3   1 5017.66  413.72   1-0.92355 0.82005 0.23778-0.52331 0.30083-0.23161
   1   3  -1 4217.43  337.12   1-0.25973 0.36328 0.03024 0.25494-0.96520 0.89611
  -1  -3   046087.32  779.73   1-0.94733 0.86525 0.16211-0.41839 0.27617-0.27617
  -1  -3  -159809.89  902.80   1-0.96964 0.90899 0.05419-0.28123 0.23841-0.30763
  -1  -3  -257844.73  853.29   1-0.97896 0.93973-0.08639-0.11139 0.18481-0.32323
  -1  -3  -3186386.4 1968.36   1-0.96064 0.94284-0.25296 0.08442 0.11473-0.32236
  -1  -3  -419793.68  710.38   1-0.89912 0.90544-0.43686 0.29650 0.02697-0.30373
  -1  -3  -5 9269.15  475.22   1-0.79350 0.82162-0.60527 0.49483-0.06316-0.28298
  -1  -3  -5 7469.81  816.68   1-0.16172 0.18840-0.98075 0.87003 0.10938-0.45557
  -1  -3  -650700.02 1608.27   1-0.64923 0.69893-0.74555 0.66427-0.15046-0.26498
  -1  -3  -652881.32 1784.19   1-0.20493 0.25315-0.97750 0.89578-0.04983-0.36535
  -1  -3  -7   15.29  105.90   1-0.47665 0.54802-0.84867 0.79650-0.22924-0.25544
  -1  -3  -7  179.62  112.53   1-0.23631 0.30617-0.95475 0.90218-0.18056-0.30383
  -1  -3  -8  328.10  126.77   1-0.28750 0.38052-0.91101 0.88795-0.29562-0.25831
  -1  -3  -8  157.21  137.20   1-0.25948 0.35098-0.92156 0.89815-0.28877-0.26481
  -1  -3  -9  849.46  296.46   1-0.27765 0.39069-0.88233 0.88779-0.37999-0.24325
  -1  -3 -10  652.44  223.13   1-0.29026 0.42526-0.83871 0.87488-0.46076-0.23180
  -1  -3 -11 5460.04  567.79   1-0.30022 0.45682-0.79329 0.85872-0.52966-0.23215
  -1  -3 -12 1388.01  309.28   1-0.30768 0.48589-0.74569 0.84039-0.59098-0.24009
   1   4  -9   54.40  223.96   1-0.29013 0.56628-0.15426 0.75841-0.94447 0.32268
   1   4  -8  643.85  325.22   1-0.29137 0.54625-0.16677 0.74165-0.94196 0.38930
   1   4  -7 2489.59  423.49   1-0.29206 0.52529-0.17195 0.71763-0.94081 0.45723
  -1  -4   651688.72 1038.67   1-0.95438 0.74400 0.13424-0.65144 0.26671 0.14856
   1   4  -649682.92 1296.17   1-0.29157 0.50314-0.16832 0.68482-0.94161 0.52712
  -1  -4   5 9231.67  498.06   1-0.94816 0.75921 0.15900-0.64695 0.27513 0.07093
   1   4  -5 8494.86  606.76   1-0.29004 0.47972-0.15365 0.64099-0.94459 0.59915
  -1  -4   450462.88 1460.17   1-0.94518 0.77765 0.16998-0.62868 0.27881-0.00196
   1   4  -447212.43 1483.69   1-0.28593 0.45400-0.12495 0.58308-0.95006 0.67371
  -1  -4   3 2479.60  281.16   1-0.94619 0.80008 0.16633-0.59578 0.27759-0.06995
   1   4  -3 2786.60  339.75   1-0.27869 0.42513-0.07785 0.50678-0.95722 0.74995
  -1  -4   210930.84  463.73   1-0.95136 0.82668 0.14663-0.54683 0.27094-0.13251
   1   4  -2 9363.66  470.27   1-0.26657 0.39139-0.00668 0.40640-0.96379 0.82561
  -1  -4   162412.16 1089.36   1-0.95997 0.85672 0.10903-0.47998 0.25797-0.18876
   1   4  -159781.57 1075.56   1-0.24684 0.35004 0.09501 0.27551-0.96438 0.89529
  -1  -4   0178072.5 2110.50   1-0.97001 0.88818 0.05164-0.39335 0.23748-0.23748
  -1  -4  -1 2034.28  210.18   1-0.97773 0.91732-0.02681-0.28564 0.20813-0.27734
  -1  -4  -2140830.8 1725.32   1-0.97755 0.93857-0.12605-0.15715 0.16878-0.30721
  -1  -4  -324893.10  633.82   1-0.96263 0.94507-0.24322-0.01073 0.11903-0.32666
  -1  -4  -450978.08  966.88   1-0.92614 0.93001-0.37240 0.14768 0.05969-0.33654
  -1  -4  -5 1865.74  212.41   1-0.85949 0.88827-0.51102 0.31424-0.01096-0.33497
  -1  -4  -6 5428.55  302.76   1-0.76616 0.81681-0.63740 0.47073-0.08187-0.33350
  -1  -4  -6 6097.23  993.47   1-0.15536 0.20414-0.97908 0.81200 0.13135-0.54678
  -1  -4  -7 2459.28  266.09   1-0.64694 0.71916-0.74729 0.60982-0.15166-0.33303
  -1  -4  -7 2211.51  461.43   1-0.19620 0.26650-0.98043 0.84231-0.01589-0.46849
  -1  -4  -810125.64  468.09   1-0.50494 0.59882-0.83524 0.72687-0.21770-0.33623
  -1  -4  -810425.56 1562.40   1-0.22776 0.31970-0.96309 0.85413-0.14341-0.41017
  -1  -4  -9   46.37  101.64   1-0.34502 0.46056-0.89670 0.81744-0.27726-0.34591
  -1  -4  -9  105.90  116.44   1-0.25215 0.36573-0.93398 0.85417-0.25316-0.36962
  -1  -4 -10 4962.95  448.41   1-0.27185 0.40693-0.89710 0.84611-0.34826-0.34423
  -1  -4 -11  669.23  362.04   1-0.28654 0.44326-0.85528 0.83342-0.43172-0.33002
  -1  -4 -12 3850.74  486.02   1-0.29722 0.47602-0.80863 0.81782-0.50771-0.32336
   1   5  -8  975.38  329.16   1-0.27947 0.53366-0.08274 0.74302-0.95658 0.40387
   1   5  -7  581.73  278.93   1-0.27996 0.51254-0.08586 0.71693-0.95616 0.47254
  -1  -5   6 1205.44  222.93   1-0.97472 0.76460 0.01254-0.61517 0.22305 0.19221
   1   5  -6 1664.41  415.62   1-0.27912 0.49007-0.08054 0.68241-0.95687 0.54234
  -1  -5   5 2530.76  316.52   1-0.97185 0.78315 0.03798-0.61136 0.23249 0.11356
   1   5  -5 3683.49  471.68   1-0.27661 0.46595-0.06506 0.63773-0.95877 0.61333
  -1  -5   449572.53 1012.48   1-0.97015 0.80287 0.05069-0.59482 0.23714 0.03970
   1   5  -449388.13 1237.73   1-0.27193 0.43965-0.03717 0.58063-0.96159 0.68524
  -1  -5   3 7402.51  451.59   1-0.97018 0.82432 0.05046-0.56534 0.23706-0.02942
   1   5  -3 7185.45  544.31   1-0.26426 0.41036 0.00602 0.50823-0.96443 0.75716
  -1  -5   2  -50.24  128.98   1-0.97201 0.84758 0.03670-0.52233 0.23201-0.09359
   1   5  -2   26.16  176.11   1-0.25236 0.37684 0.06798 0.41707-0.96524 0.82706
  -1  -5   198754.15 3094.66   1-0.97510 0.87209 0.00862-0.46500 0.22158-0.15237
  -1  -5   073032.14 2356.00   1-0.97811 0.89653-0.03453-0.39259 0.20516-0.20516
  -1  -5  -1 1410.52  194.01   1-0.97885 0.91869-0.09318-0.30470 0.18209-0.25130
  -1  -5  -299074.17 1495.06   1-0.97420 0.93546-0.16698-0.20165 0.15182-0.29024
  -1  -5  -337080.60  835.62   1-0.96033 0.94302-0.25445-0.08494 0.11407-0.32170
  -1  -5  -487270.22 2746.93   1-0.93318 0.93729-0.35269 0.04255 0.06907-0.34592
  -1  -5  -5 3387.60  303.58   1-0.88568 0.91534-0.46409 0.18194 0.01328-0.35923
  -1  -5  -6   27.76  120.79   1-0.82052 0.87202-0.56997 0.31798-0.04326-0.37210
  -1  -5  -7  296.83  124.09   1-0.73503 0.80820-0.67035 0.44746-0.10175-0.38285
  -1  -5  -7  446.25  116.69   1-0.15587 0.22674-0.97923 0.75579 0.12963-0.61430
  -1  -5  -811498.16  547.00   1-0.62930 0.72404-0.76035 0.56668-0.16070-0.39323
  -1  -5  -813345.98  941.16   1-0.19368 0.28606-0.98104 0.78652-0.00627-0.54731
  -1  -5  -9   26.72  125.67   1-0.50463 0.62102-0.83540 0.67083-0.21783-0.40534
  -1  -5  -9  143.75  134.23   1-0.22421 0.33822-0.96605 0.80069-0.12832-0.49446
  -1  -5 -10 1484.69  292.55   1-0.36301 0.50107-0.89143 0.75597-0.27121-0.42120
  -1  -5 -10 1474.90  318.59   1-0.24864 0.38429-0.93926 0.80305-0.23656-0.45542
  -1  -5 -11  462.60  246.93   1-0.26889 0.42601-0.90391 0.79645-0.33261-0.42914
  -1  -5 -12  197.79  219.29   1-0.28430 0.46307-0.86267 0.78436-0.41827-0.41272
   1   6  -7  246.47  251.02   1-0.26631 0.49855-0.00526 0.72166-0.96387 0.48025
   1   6  -6 -326.31  206.16   1-0.26525 0.47587 0.00059 0.68660-0.96417 0.54964
  -1  -6   5  150.04  208.83   1-0.97899 0.79054-0.06584-0.59296 0.19295 0.15310
   1   6  -5 -120.50  203.31   1-0.26247 0.45147 0.01569 0.64230-0.96481 0.61937
  -1  -6   4 1612.73  325.27   1-0.97870 0.81167-0.05067-0.57888 0.19890 0.07794
   1   6  -4 1663.86  409.83   1-0.25754 0.42492 0.04168 0.58711-0.96536 0.68901
  -1  -6   3 7608.15  457.11   1-0.97860 0.83299-0.04707-0.55323 0.20030 0.00733
   1   6  -3 7884.23  560.71   1-0.24983 0.39558 0.08050 0.51907-0.96493 0.75767
  -1  -6   2  504.77  203.97   1-0.97882 0.85463-0.05516-0.51589 0.19714-0.05872
  -1  -6   114679.94  683.71   1-0.97904 0.87628-0.07521-0.46660 0.18925-0.12004
  -1  -6   0 2404.69  303.84   1-0.97844 0.89710-0.10747-0.40509 0.17634-0.17634
  -1  -6  -1 6573.71  459.33   1-0.97565 0.91574-0.15201-0.33129 0.15807-0.22728
  -1  -6  -2 7858.65  457.42   1-0.96877 0.93028-0.20854-0.24552 0.13414-0.27256
  -1  -6  -325398.85 1035.47   1-0.95543 0.93836-0.27613-0.14868 0.10438-0.31202
  -1  -6  -466493.45 2218.90   1-0.93302 0.93738-0.35315-0.04241 0.06885-0.34570
  -1  -6  -585528.12 2766.21   1-0.89562 0.92615-0.44419 0.07666 0.02331-0.36926
  -1  -6  -6   77.12  150.36   1-0.84682 0.89894-0.53143 0.19284-0.02180-0.39333
  -1  -6  -7 1829.62  247.50   1-0.78173 0.85576-0.61950 0.31129-0.07137-0.41323
  -1  -6  -8 2400.70  309.32   1-0.70061 0.79620-0.70297 0.42399-0.12233-0.43160
  -1  -6  -8 2421.04  595.54   1-0.16071 0.25368-0.98052 0.70072 0.11290-0.66680
  -1  -6  -911101.71  557.70   1-0.60271 0.71996-0.77879 0.52891-0.17384-0.44933
  -1  -6  -911441.38  951.93   1-0.19553 0.30997-0.98060 0.72968-0.01330-0.60948
  -1  -6 -10 3177.81  372.51   1-0.48845 0.62737-0.84321 0.62245-0.22449-0.46793
  -1  -6 -10 3157.71  458.16   1-0.22450 0.36059-0.96582 0.74406-0.12954-0.56244
  -1  -6 -11   95.31  149.15   1-0.24829 0.40602-0.93975 0.74714-0.23496-0.52621
  -1  -6 -12  236.48  209.89   1-0.26846 0.44763-0.90486 0.74094-0.33037-0.50062
   1   7  -6 3155.55  535.51   1-0.25065 0.46091 0.07648 0.69604-0.96505 0.55052
  -1  -7   5  181.54  169.41   1-0.97517 0.78696-0.15727-0.58695 0.15588 0.19017
   1   7  -5  115.66  221.52   1-0.24778 0.43643 0.09049 0.65283-0.96458 0.61914
  -1  -7   4  663.56  291.50   1-0.97667 0.80988-0.13950-0.57548 0.16326 0.11358
  -1  -7   3 7025.93  562.17   1-0.97717 0.83181-0.13223-0.55350 0.16625 0.04138
  -1  -7   2 1298.06  285.78   1-0.97696 0.85303-0.13530-0.52117 0.16498-0.02656
  -1  -7   1 4144.63  432.94   1-0.97594 0.87342-0.14871-0.47852 0.15944-0.09023
  -1  -7   0 1012.44  277.95   1-0.97360 0.89251-0.17247-0.42552 0.14951-0.14951
  -1  -7  -1 2957.18  335.08   1-0.96908 0.90942-0.20647-0.36226 0.13503-0.20424
  -1  -7  -2   78.90  162.66   1-0.96117 0.92293-0.25045-0.28904 0.11584-0.25426
  -1  -7  -334002.91 1172.02   1-0.94830 0.93149-0.30376-0.20648 0.09184-0.29948
  -1  -7  -4 9681.83 1348.54   1-0.92872 0.93332-0.36537-0.11562 0.06305-0.33990
  -1  -7  -5  661.09  205.85   1-0.89719 0.92859-0.44092-0.01197 0.02494-0.37089
  -1  -7  -6 8316.45  549.25   1-0.85789 0.91089-0.51367 0.08970-0.01236-0.40277
  -1  -7  -717148.42  700.66   1-0.80620 0.88108-0.58917 0.19563-0.05400-0.43060
  -1  -7  -8 9982.47  547.22   1-0.74151 0.83806-0.66378 0.29935-0.09773-0.45610
  -1  -7  -960740.83 1317.14   1-0.66284 0.78095-0.73492 0.39973-0.14326-0.47991
  -1  -7  -958854.78 3505.96   1-0.16844 0.28351-0.98197 0.64581 0.08575-0.70890
  -1  -7 -1012865.20  721.08   1-0.56963 0.70940-0.79976 0.49369-0.18942-0.50299
  -1  -7 -1014036.93  962.42   1-0.20048 0.33700-0.97916 0.67184-0.03240-0.65958
  -1  -7 -11  107.92  157.28   1-0.46173 0.62316-0.85528 0.57831-0.23515-0.52651
  -1  -7 -11  199.04  150.94   1-0.22772 0.38588-0.96313 0.68497-0.14321-0.61797
  -1  -7 -12  100.47  138.51   1-0.25052 0.43033-0.93648 0.68748-0.24542-0.58496
  -1  -8   4  315.25  277.62   1-0.96700 0.80046-0.21944-0.58096 0.12942 0.14742
  -1  -8   3  310.61  218.34   1-0.96872 0.82361-0.20881-0.56235 0.13402 0.07361
  -1  -8   2 5763.88  583.13   1-0.96892 0.84523-0.20753-0.53437 0.13457 0.00384
  -1  -8   1   91.01  220.58   1-0.96766 0.86540-0.21543-0.49723 0.13116-0.06195
  -1  -8   0  740.84  194.47   1-0.96471 0.88387-0.23237-0.45104 0.12379-0.12379
  -1  -8  -1  921.61  297.91   1-0.95953 0.90011-0.25818-0.39598 0.11241-0.18162
  -1  -8  -2  -65.00  204.02   1-0.95131 0.91331-0.29258-0.33234 0.09694-0.23537
  -1  -8  -3 2589.21  350.18   1-0.93900 0.92243-0.33509-0.26057 0.07735-0.28498
  -1  -8  -4  615.56  415.53   1-0.92135 0.92620-0.38499-0.18142 0.05363-0.33048
  -1  -8  -5   92.12  202.17   1-0.89355 0.92582-0.44846-0.08981 0.02117-0.36712
  -1  -8  -6 4712.85  481.98   1-0.86044 0.91431-0.50943 0.00009-0.01013-0.40500
  -1  -8  -7 1475.87  318.47   1-0.81763 0.89337-0.57393 0.09507-0.04546-0.43913
  -1  -8  -825931.01  916.76   1-0.76423 0.86164-0.63955 0.18979-0.08315-0.47068
  -1  -8  -939699.40 1183.37   1-0.69923 0.81819-0.70421 0.28372-0.12312-0.50005
  -1  -8  -942759.57 1302.95   1-0.14450 0.26002-0.97511 0.55341 0.16813-0.79127
  -1  -8 -10 6509.57  552.77   1-0.62170 0.76233-0.76577 0.37439-0.16452-0.52790
  -1  -8 -10 5920.19 1385.67   1-0.17819 0.31535-0.98268 0.59016 0.05075-0.74313
  -1  -8 -11 1102.32  331.00   1-0.53110 0.69339-0.82173 0.45945-0.20659-0.55506
  -1  -8 -11  633.30  285.84   1-0.20770 0.36630-0.97630 0.61258-0.06078-0.70040
  -1  -8 -12  236.11  193.61   1-0.23318 0.41342-0.95802 0.62346-0.16678-0.66360
  -1  -9   3  442.27  214.69   1-0.95466 0.80980-0.27930-0.57728 0.10295 0.10467
  -1  -9   2 2737.44  443.58   1-0.95588 0.83244-0.27423-0.55311 0.10524 0.03318
  -1  -9   111286.09  825.21   1-0.95510 0.85309-0.27747-0.52061 0.10377-0.03456
  -1  -9   0 6225.73  644.94   1-0.95228 0.87169-0.28882-0.48002 0.09865-0.09865
  -1  -9  -1   12.70  220.28   1-0.94711 0.88794-0.30804-0.43155 0.08988-0.15909
  -1  -9  -2 1547.40  388.48   1-0.93907 0.90133-0.33485-0.37549 0.07746-0.21588
  -1  -9  -3 1535.73  349.89   1-0.92744 0.91112-0.36887-0.31222 0.06138-0.26902
  -1  -9  -4  101.73  197.02   1-0.91133 0.91642-0.40956-0.24229 0.04166-0.31851
  -1  -9  -5 1109.37  356.28   1-0.88607 0.91922-0.46333-0.16031 0.01367-0.35962
  -1  -9  -6 1633.28  326.66   1-0.85728 0.91202-0.51467-0.08003-0.01289-0.40224
  -1  -9  -7  184.42  197.29   1-0.82067 0.89726-0.56976 0.00557-0.04315-0.44145
  -1  -9  -8  366.82  195.86   1-0.77524 0.87351-0.62709 0.09201-0.07580-0.47803
  -1  -9  -9 2437.39  438.99   1-0.72004 0.83998-0.68501 0.17903-0.11084-0.51221
  -1  -9 -10  197.67  199.79   1-0.65425 0.79573-0.74168 0.26499-0.14783-0.54459
  -1  -9 -10  322.07  137.20   1-0.15860 0.29622-0.97999 0.50193 0.12021-0.81259
  -1  -9 -11  284.04  344.83   1-0.57696 0.74010-0.79530 0.34771-0.18604-0.57561
  -1  -9 -11  -28.64  203.12   1-0.18934 0.34838-0.98185 0.53258 0.01016-0.77135
  -1 -10   1  271.27  324.12   1-0.93865 0.83688-0.33619-0.54733 0.07683-0.00762
  -1 -10   0  541.21  352.91   1-0.93649 0.85614-0.34283-0.51144 0.07372-0.07372
  -1 -10  -1 8478.49  716.48   1-0.93183 0.87290-0.35660-0.46841 0.06722-0.13643
  -1 -10  -218460.80  976.15   1-0.92433 0.88683-0.37723-0.41854 0.05737-0.19580
  -1 -10  -316551.15  905.85   1-0.91352 0.89744-0.40437-0.36215 0.04421-0.25184
  -1 -10  -421915.94  987.82   1-0.89538 0.90780-0.44470-0.29326 0.02305-0.29981
  -1 -10  -5  331.68  403.76   1-0.87539 0.90941-0.48339-0.22563 0.00341-0.34936
  -1 -10  -6  107.33  213.13   1-0.84981 0.90542-0.52673-0.15335-0.01929-0.39584
  -1 -10  -7  137.73  183.30   1-0.81773 0.89518-0.57380-0.07571-0.04539-0.43921
  -1 -10  -8 1657.59  438.30   1-0.77814 0.87726-0.62373 0.00332-0.07383-0.47999
  -1 -10  -9  -99.69  204.59   1-0.73024 0.85103-0.67511 0.08381-0.10469-0.51837
  -1 -10 -10  -36.71  205.12   1-0.67323 0.81557-0.72649 0.16449-0.13765-0.55477
  -1 -10 -10  100.61  212.50   1-0.14236 0.28043-0.97417 0.41057 0.17524-0.86763
  -1 -11  -1  258.03  271.85   1-0.91358 0.85490-0.40423-0.50621 0.04427-0.11348
  -1 -11  -2  690.05  417.04   1-0.90693 0.86967-0.41968-0.46152 0.03666-0.17509
  -1 -11  -3 4321.13  625.18   1-0.89379 0.88549-0.44797-0.40431 0.02142-0.22899
  -1 -11  -4 5167.17  654.35   1-0.87990 0.89320-0.47508-0.34825 0.00768-0.28444
  -1 -11  -5 1397.19  411.13   1-0.86176 0.89665-0.50723-0.28716-0.00897-0.33697
  -1 -11  -6 1576.33  450.58   1-0.83871 0.89519-0.54383-0.22162-0.02847-0.38666
  -1 -11  -7  525.84  333.13   1-0.81013 0.88843-0.58401-0.15082-0.05110-0.43350
  -1 -11  -8   40.78  253.96   1-0.77496 0.87494-0.62741-0.07832-0.07599-0.47784
   2 -11  -6  604.27  262.47   1-0.65764 0.96270-0.73903-0.02470-0.14603-0.26941
   2 -11  -5   25.80  228.23   1-0.68938 0.97277-0.71287-0.07997-0.12871-0.21749
   2 -11  -4   19.67  252.78   1-0.71579 0.97751-0.68904-0.13311-0.11338-0.16353
   2 -11  -3  -20.48  256.30   1-0.73717 0.97723-0.66819-0.18307-0.10042-0.10725
   2 -11  -2 -148.90  280.22   1-0.75374 0.97212-0.65098-0.22939-0.08997-0.04848
   2 -10  -8 -232.38  243.08   1-0.56640 0.91392-0.80171 0.18149-0.19090-0.36303
   2 -10  -7  221.86  225.13   1-0.61485 0.94072-0.77055 0.12122-0.16791-0.31677
   2 -10  -6  312.16  316.78   1-0.65697 0.96118-0.73955 0.06112-0.14639-0.26906
   2 -10  -5 -136.71  212.72   1-0.69305 0.97559-0.70967 0.00213-0.12664-0.21957
   2 -10  -4 1226.69  357.23   1-0.72337 0.98424-0.68182-0.05501-0.10885-0.16806
   2 -10  -3   72.80  188.66   1-0.74824 0.98744-0.65680-0.10914-0.09348-0.11420
   2 -10  -2  266.02  252.30   1-0.76795 0.98548-0.63540-0.15965-0.08069-0.05776
   2 -10  -1  560.79  398.00   1-0.78273 0.97858-0.61833-0.20582-0.07069 0.00146
   2 -10   0 1505.60  346.34   1-0.79272 0.96691-0.60623-0.24703-0.06371 0.06371
   2 -10   1  406.22  225.76   1-0.79796 0.95047-0.59971-0.28266-0.05998 0.12921
   2  -9  -9  178.49  220.84   1-0.48444 0.85277-0.84509 0.33929-0.22611-0.39706
   2  -9  -7   83.49  190.97   1-0.60088 0.92588-0.78000 0.21598-0.17473-0.30996
   2  -9  -6 3791.55  542.20   1-0.64879 0.95213-0.74589 0.15276-0.15069-0.26475
   2  -9  -512929.69  798.29   1-0.69012 0.97180-0.71222 0.08999-0.12829-0.21791
   2  -9  -4 4092.10  565.24   1-0.72516 0.98517-0.68008 0.02857-0.10777-0.16914
   2  -9  -3  291.23  227.85   1-0.75421 0.99255-0.65047-0.03014-0.08967-0.11801
   2  -9  -2 8294.90  657.17   1-0.77760 0.99427-0.62435-0.08536-0.07420-0.06425
   2  -9  -1 7523.55  637.02   1-0.79565 0.99064-0.60261-0.13622-0.06163-0.00759
   2  -9   0 1144.22  379.55   1-0.80860 0.98192-0.58603-0.18190-0.05223 0.05223
   2  -9   1  351.04  259.89   1-0.81659 0.96825-0.57535-0.22169-0.04625 0.11548
   2  -9   2  304.85  222.53   1-0.81961 0.94959-0.57122-0.25492-0.04396 0.18242
   2  -9   3  394.20  228.61   1-0.81736 0.92567-0.57431-0.28095-0.04567 0.25336
   2  -8 -10  553.85  296.62   1-0.36757 0.75670-0.89004 0.49865-0.26965-0.42276
   2  -8  -9   32.27  203.55   1-0.44441 0.81188-0.86255 0.44206-0.24184-0.38133
   2  -8  -8  371.72  293.97   1-0.51392 0.85973-0.83073 0.38113-0.21394-0.33999
   2  -8  -8  374.51  180.32   1-0.15435 0.49697-0.97877 0.52789 0.13481-0.68872
   2  -8  -7 1398.02  310.70   1-0.57611 0.90026-0.79582 0.31711-0.18643-0.29825
   2  -8  -612100.17  709.37   1-0.63105 0.93354-0.75909 0.25127-0.15982-0.25563
   2  -8  -5 3084.52  450.73   1-0.67886 0.95969-0.72182 0.18489-0.13456-0.21164
   2  -8  -4  791.22  290.74   1-0.71976 0.97892-0.68528 0.11909-0.11101-0.16590
   2  -8  -3 2983.69  453.32   1-0.75399 0.99148-0.65071 0.05541-0.08981-0.11787
   2  -8  -2 6481.49  505.28   1-0.78191 0.99772-0.61930-0.00509-0.07125-0.06720
   2  -8  -114873.50  739.06   1-0.80388 0.99802-0.59217-0.06133-0.05570-0.01352
   2  -8   066309.60 1506.35   1-0.82025 0.99272-0.57034-0.11227-0.04347 0.04347
   2  -8   1 1428.80  284.57   1-0.83139 0.98210-0.55462-0.15730-0.03433 0.10352
   2  -8   2 1402.50  320.24   1-0.83721 0.96633-0.54606-0.19480-0.02968 0.16806
   2  -8   3 3529.46  401.28   1-0.83772 0.94525-0.54530-0.22450-0.02927 0.23684
   2  -8   4  325.02  322.29   1-0.83242 0.91836-0.55312-0.24563-0.03351 0.31027
  -2   8  -4   10.71  210.15   1-0.24728 0.16508 0.09289 0.70655-0.96448 0.68812
  -2   8  -5 1974.26  496.43   1-0.25242 0.19184 0.06771 0.76094-0.96524 0.61980
   2  -7 -11   53.73  193.65   1-0.20967 0.61961-0.92456 0.64759-0.31815-0.44351
   2  -7 -10   55.68  180.83   1-0.30233 0.69061-0.90768 0.60161-0.29103-0.40139
   2  -7  -9   69.66  177.66   1-0.38791 0.75453-0.88349 0.54831-0.26258-0.36059
   2  -7  -9  166.17  136.19   1-0.22082 0.58452-0.96861 0.63213-0.11413-0.50865
   2  -7  -8 1716.62  300.07   1-0.46627 0.81123-0.85330 0.48900-0.23336-0.32057
   2  -7  -8 1661.57  345.66   1-0.18337 0.52543-0.98250 0.61687 0.03239-0.58598
   2  -7  -7 5195.00  491.34   1-0.53725 0.86054-0.81839 0.42499-0.20392-0.28077
   2  -7  -624448.17  913.98   1-0.60069 0.90233-0.78012 0.35761-0.17482-0.24063
   2  -7  -5    3.34  216.58   1-0.65654 0.93651-0.73990 0.28828-0.14662-0.19958
   2  -7  -4 2548.03  390.16   1-0.70481 0.96312-0.69918 0.21845-0.11990-0.15706
   2  -7  -3 3031.33  414.14   1-0.74570 0.98233-0.65945 0.14949-0.09509-0.11259
   2  -7  -2  844.21  294.81   1-0.77942 0.99438-0.62223 0.08316-0.07296-0.06549
   2  -7  -1104049.0 1710.46   1-0.80638 0.99966-0.58893 0.02075-0.05387-0.01535
   2  -7   0 8367.90  629.58   1-0.82717 0.99860-0.56068-0.03692-0.03765 0.03765
   2  -7   112814.37  617.40   1-0.84177 0.99162-0.53920-0.08735-0.02597 0.09516
   2  -7   2 5146.20  417.31   1-0.85074 0.97899-0.52525-0.13023-0.01850 0.15688
   2  -7   3  -28.88  197.14   1-0.85411 0.96077-0.51984-0.16459-0.01562 0.22319
  -2   7  -3  161.83  212.76   1-0.25576 0.15228 0.05085 0.63406-0.96540 0.75813
   2  -7   4 1148.93  328.68   1-0.85159 0.93666-0.52389-0.18949-0.01777 0.29453
  -2   7  -4 1705.94  394.40   1-0.26321 0.18135 0.01174 0.70237-0.96466 0.68831
  -2   7  -5 1344.53  374.62   1-0.26806 0.20783-0.01501 0.75833-0.96328 0.61784
  -2   7  -6 1030.36  334.86   1-0.27093 0.23231-0.03133 0.80387-0.96208 0.54756
   2  -6 -10 1624.97  342.81   1-0.21631 0.60373-0.92365 0.70289-0.31633-0.37609
   2  -6  -9 5648.00  533.93   1-0.31087 0.67663-0.90565 0.65578-0.28834-0.33483
   2  -6  -9 3812.08  887.16   1-0.24805 0.61131-0.94010 0.68918-0.23380-0.38898
   2  -6  -8 7000.54  523.70   1-0.39878 0.74288-0.87979 0.60080-0.25872-0.29521
   2  -6  -8 5379.71  902.13   1-0.21613 0.55776-0.97175 0.69167-0.09479-0.45879
   2  -6  -7 6131.26  461.51   1-0.47967 0.80211-0.84729 0.53920-0.22803-0.25665
   2  -6  -7 4932.87  904.98   1-0.17432 0.49439-0.98255 0.67357 0.06475-0.54942
   2  -6  -6  428.86  239.27   1-0.55314 0.85392-0.80948 0.47228-0.19689-0.21855
   2  -6  -5  906.02  236.90   1-0.61883 0.89795-0.76779 0.40148-0.16594-0.18026
   2  -6  -4  669.74  244.31   1-0.67648 0.93394-0.72380 0.32839-0.13587-0.14109
   2  -6  -3  298.24  152.78   1-0.72604 0.96181-0.67923 0.25459-0.10724-0.10044
   2  -6  -210591.50  582.91   1-0.76748 0.98158-0.63593 0.18218-0.08100-0.05745
   2  -6  -170215.63 1963.51   1-0.80111 0.99354-0.59572 0.11287-0.05771-0.01151
   2  -6   0 4406.57  348.84   1-0.82759 0.99815-0.56008 0.04784-0.03732 0.03732
   2  -6   118092.82  742.32   1-0.84683 0.99580-0.53141-0.00976-0.02179 0.09098
   2  -6   2 2958.58  389.94   1-0.85964 0.98702-0.51078-0.05934-0.01084 0.14922
  -2   6  -2 2590.00  425.41   1-0.26078 0.13603 0.02474 0.54564-0.96508 0.82690
   2  -6   3  986.13  220.04   1-0.86628 0.97207-0.49951-0.09954-0.00493 0.21250
  -2   6  -3 1079.07  327.07   1-0.27151 0.16838-0.03468 0.63427-0.96181 0.75454
   2  -6   414992.28  620.74   1-0.86668 0.95087-0.49884-0.12916-0.00458 0.28134
  -2   6  -415810.87  822.92   1-0.27846 0.19695-0.07646 0.70525-0.95739 0.68104
   2  -6   5 2975.27  313.69   1-0.86011 0.92271-0.50999-0.14695-0.01042 0.35637
  -2   6  -5 3377.89  488.32   1-0.28278 0.22288-0.10393 0.76193-0.95353 0.60809
  -2   6  -6   38.71  211.74   1-0.28517 0.24690-0.11981 0.80702-0.95095 0.53642
  -2   6  -7  144.24  232.39   1-0.28612 0.26947-0.12621 0.84262-0.94984 0.46622
   2  -5 -10  136.90  165.30   1-0.29091 0.67556-0.83615 0.70130-0.46498-0.22757
   2  -5  -9  240.41  252.34   1-0.20897 0.57388-0.92465 0.76008-0.31834-0.30483
   2  -5  -9   61.49  169.79   1-0.27436 0.63697-0.89094 0.72520-0.36184-0.26140
   2  -5  -8 1578.26  330.27   1-0.30615 0.64939-0.90678 0.71311-0.28983-0.26410
   2  -5  -8 1342.63  415.68   1-0.24941 0.59060-0.93813 0.74361-0.24018-0.31340
   2  -5  -7   61.19   77.10   1-0.21559 0.53514-0.97208 0.74840-0.09258-0.39180
   2  -5  -6 5213.61  468.59   1-0.48190 0.78182-0.84627 0.59437-0.22714-0.18831
   2  -5  -6 5450.81  409.28   1-0.16873 0.46670-0.98201 0.72939 0.08474-0.50017
   2  -5  -514277.63  694.38   1-0.55916 0.83741-0.80599 0.52499-0.19419-0.15201
   2  -5  -4  536.03  281.48   1-0.62844 0.88504-0.76098 0.45087-0.16114-0.11582
   2  -5  -358986.67 1986.69   1-0.68920 0.92414-0.71302 0.37380-0.12881-0.07891
   2  -5  -210501.13  479.89   1-0.74117 0.95441-0.66413 0.29571-0.09794-0.04051
   2  -5  -1 3026.54  300.55   1-0.78411 0.97568-0.61668 0.21915-0.06973 0.00050
   2  -5   031841.49 1165.97   1-0.81830 0.98820-0.57302 0.14639-0.04496 0.04496
   2  -5   159286.01 1966.18   1-0.84439 0.99249-0.53519 0.07938-0.02381 0.09300
  -2   5  -158070.31 1934.39   1-0.26038 0.11435 0.02686 0.42898-0.96513 0.89604
   2  -5   2 6367.70  371.32   1-0.86243 0.98894-0.50610 0.02134-0.00838 0.14676
  -2   5  -2 7042.70  471.45   1-0.27675 0.15235-0.06591 0.55096-0.95867 0.82050
   2  -5   3 3368.32  290.12   1-0.87324 0.97816-0.48727-0.02641 0.00141 0.20615
  -2   5  -3 3078.17  338.22   1-0.28677 0.18398-0.13064 0.64490-0.94904 0.74178
   2  -5   4 1790.52  286.59   1-0.87701 0.96033-0.48043-0.06219 0.00493 0.27182
  -2   5  -4 1101.33  284.03   1-0.29229 0.21133-0.17371 0.71716-0.94041 0.66408
   2  -5   5  255.70  207.10   1-0.87325 0.93498-0.48726-0.08431 0.00142 0.34452
  -2   5  -5   97.92  178.36   1-0.29574 0.23643-0.20044 0.77308-0.93400 0.58858
  -2   5  -6 7220.46  589.42   1-0.29747 0.25982-0.21451 0.81634-0.93031 0.51582
  -2   5  -7  715.37  307.78   1-0.29797 0.28198-0.21862 0.84964-0.92920 0.44562
  -2   5  -8  330.22  248.40   1-0.29750 0.30316-0.21471 0.87493-0.93026 0.37760
   2  -4 -10  112.25  205.31   1 0.02996 0.35576-0.92756 0.87810-0.37246-0.31994
   2  -4 -10  411.63  225.28   1-0.30522 0.68927-0.76330 0.71395-0.56939-0.12317
   2  -4  -9 1812.32  324.66   1-0.07808 0.44218-0.93318 0.85457-0.35080-0.27235
   2  -4  -9 2195.85  294.77   1-0.29465 0.65710-0.82050 0.74189-0.48984-0.13346
   2  -4  -8  203.26  117.98   1-0.18332 0.52571-0.92769 0.81933-0.32521-0.22872
   2  -4  -8  607.18  171.08   1-0.27969 0.62026-0.87665 0.76737-0.39147-0.16252
   2  -4  -7  640.84  244.13   1-0.28342 0.60415-0.91188 0.77441-0.29686-0.18783
   2  -4  -7  694.79  192.46   1-0.25585 0.57496-0.92796 0.78984-0.27095-0.21344
   2  -4  -6 6756.87  406.67   1-0.37862 0.67768-0.88655 0.71996-0.26584-0.14961
   2  -4  -6 7491.28  564.43   1-0.22135 0.51882-0.96822 0.80094-0.11635-0.29883
   2  -4  -5  428.75  210.74   1-0.46803 0.74543-0.85253 0.65683-0.23267-0.11353
   2  -4  -5  239.90   83.38   1-0.16913 0.44500-0.98206 0.78580 0.08332-0.42951
   2  -4  -426127.29 1012.29   1-0.55062 0.80636-0.81092 0.58612-0.19802-0.07894
   2  -4  -3 2566.39  251.69   1-0.62532 0.85941-0.76320 0.50930-0.16270-0.04501
   2  -4  -2 7028.56  461.33   1-0.69113 0.90355-0.71134 0.42832-0.12772-0.01076
   2  -4  -112127.74  615.51   1-0.74736 0.93808-0.65772 0.34552-0.09404 0.02481
   2  -4   0 2520.43  244.69   1-0.79335 0.96240-0.60545 0.26415-0.06326 0.06326
  -2   4   0 2792.24  276.54   1-0.24784 0.08054 0.09017 0.25114-0.96459 0.96459
   2  -4   1 6447.40  382.47   1-0.82952 0.97675-0.55731 0.18688-0.03581 0.10500
  -2   4  -1 6208.28  395.00   1-0.27698 0.13130-0.06728 0.43780-0.95851 0.88942
   2  -4   2 2370.88  215.09   1-0.85553 0.98116-0.51754 0.11817-0.01441 0.15279
  -2   4  -2 2677.47  272.22   1-0.29217 0.16822-0.17276 0.57249-0.94063 0.80246
   2  -4   324752.84  915.14   1-0.87245 0.97650-0.48868 0.06036 0.00068 0.20688
  -2   4  -323916.03  974.15   1-0.30055 0.19826-0.24085 0.66977-0.92285 0.71560
   2  -4   4 2992.79  223.07   1-0.88076 0.96321-0.47348 0.01622 0.00850 0.26825
  -2   4  -4 3467.82  366.53   1-0.30502 0.22439-0.28274 0.74085-0.90940 0.63307
   2  -4   5 4271.09  300.64   1-0.88023 0.94109-0.47447-0.01172 0.00799 0.33795
  -2   4  -5 3421.23  420.77   1-0.30729 0.24831-0.30620 0.79350-0.90100 0.55559
  -2   4  -6 6319.87  506.95   1-0.30821 0.27090-0.31635 0.83284-0.89717 0.48268
  -2   4  -7  108.40  315.28   1-0.30823 0.29257-0.31651 0.86219-0.89711 0.41353
  -2   4  -8 3339.81  469.36   1-0.30753 0.31354-0.30889 0.88376-0.90000 0.34734
  -2   4  -9 3330.28  518.33   1-0.30622 0.33388-0.29494 0.89900-0.90511 0.28337
   2  -3 -10  102.02  127.47   1 0.18802 0.19679-0.89878 0.93457-0.39603-0.29637
   2  -3 -10   38.80  165.15   1-0.31440 0.69785-0.67946 0.71562-0.66293-0.02963
   2  -3  -9  382.90  215.64   1 0.07955 0.28363-0.92118 0.92782-0.38090-0.24226
   2  -3  -9  368.79  157.52   1-0.30910 0.67095-0.73436 0.74125-0.60429-0.01901
   2  -3  -8  304.52  149.42   1-0.02712 0.36869-0.93194 0.90943-0.36157-0.19234
   2  -3  -8  383.62  163.01   1-0.30091 0.64115-0.78954 0.76717-0.53485-0.01919
   2  -3  -7 1752.62  284.52   1-0.13269 0.45256-0.93174 0.87958-0.33799-0.14670
   2  -3  -7 1665.83  207.67   1-0.28847 0.60712-0.84546 0.79382-0.44941-0.03538
   2  -3  -681919.71 2151.38   1-0.23487 0.53307-0.92088 0.83961-0.31113-0.10431
   2  -3  -690126.18 2230.97   1-0.26965 0.56653-0.90220 0.82024-0.33660-0.07889
   2  -3  -5 3146.13  276.71   1-0.33385 0.61040-0.89978 0.78939-0.28094-0.06526
   2  -3  -5 3394.81  280.17   1-0.23690 0.51230-0.95410 0.84322-0.18316-0.16282
   2  -3  -4 9087.49  497.08   1-0.42865 0.68353-0.86882 0.72933-0.24779-0.02917
   2  -3  -410465.20  927.10   1-0.18102 0.43477-0.98262 0.84258 0.04104-0.31784
   2  -3  -3106810.2 1517.91   1-0.51799 0.75121-0.82864 0.66004-0.21222 0.00449
   2  -3  -210858.22  506.36   1-0.60033 0.81189-0.78037 0.58266-0.17499 0.03651
   2  -3  -1198212.1 2188.79   1-0.67399 0.86389-0.72587 0.49905-0.13724 0.06799
   2  -3   015125.00  599.92   1-0.73753 0.90572-0.66783 0.41185-0.10020 0.10020
  -2   3   015088.06  571.76   1-0.26341 0.09646 0.01063 0.24534-0.96462 0.96462
  -2   3  -1  466.55  145.02   1-0.29427 0.14900-0.18885 0.47406-0.93687 0.86779
   2  -3   218863.40  735.96   1-0.82929 0.95406-0.55764 0.24364-0.03599 0.17437
  -2   3  -220779.50  835.71   1-0.30718 0.18357-0.30506 0.61945-0.90142 0.76326
   2  -3   351855.58 1629.86   1-0.85669 0.95986-0.51564 0.17270-0.01340 0.22097
  -2   3  -352906.11 1754.26   1-0.31271 0.21089-0.37052 0.71434-0.87459 0.66726
   2  -3   4 2704.36  188.25   1-0.87241 0.95399-0.48876 0.11688 0.00064 0.27611
  -2   3  -4 3243.51  325.26   1-0.31503 0.23487-0.40591 0.77894-0.85789 0.58145
   2  -3   5  719.01  121.42   1-0.87638 0.93636-0.48159 0.08077 0.00434 0.34160
  -2   3  -5 1014.06  242.65   1-0.31595 0.25744-0.42212 0.82435-0.84969 0.50414
  -2   3  -6  566.42  177.52   1-0.31612 0.27927-0.42544 0.85688-0.84797 0.43331
  -2   3  -7 5245.82  552.64   1-0.31581 0.30062-0.41955 0.88020-0.85102 0.36724
  -2   3  -8  536.21  332.75   1-0.31508 0.32155-0.40669 0.89655-0.85750 0.30461
  -2   3  -9  827.35  230.50   1-0.31393 0.34206-0.38826 0.90732-0.86642 0.24442
  -2   3 -10  201.89  252.64   1-0.31232 0.36211-0.36514 0.91341-0.87699 0.18588
   2  -2 -11  769.70  332.15   1-0.31954 0.72464-0.53885 0.68888-0.77943 0.01811
   2  -2 -10  263.06  255.16   1-0.31922 0.70261-0.58893 0.70978-0.74246 0.05035
   2  -2  -9  200.92  141.28   1 0.25753 0.10399-0.87792 0.96996-0.40364-0.21990
   2  -2  -9   95.22  159.67   1-0.31690 0.67815-0.63834 0.73074-0.70148 0.07817
   2  -2  -8 1874.48  334.61   1 0.15595 0.18470-0.90663 0.96937-0.39204-0.16188
   2  -2  -8 1970.69  237.74   1-0.31381 0.65346-0.68700 0.75014-0.65539 0.10133
   2  -2  -7 2357.37  267.88   1 0.05443 0.26459-0.92471 0.95829-0.37674-0.10793
   2  -2  -7 2568.05  412.71   1-0.30886 0.62690-0.73636 0.77023-0.60197 0.11717
   2  -2  -6 1973.15  213.73   1-0.04668 0.34409-0.93272 0.93714-0.35756-0.05788
   2  -2  -6 1963.47  204.73   1-0.30120 0.59765-0.78788 0.79248-0.53712 0.12158
   2  -2  -5 7924.70  371.31   1-0.14801 0.42370-0.93079 0.90571-0.33423-0.01197
   2  -2  -5 8498.70  328.18   1-0.28893 0.56377-0.84376 0.81909-0.45229 0.10601
   2  -2  -4  585.63  180.71   1-0.24748 0.50151-0.91879 0.86460-0.30752 0.03055
   2  -2  -4  731.08  109.88   1-0.26746 0.52067-0.90703 0.85239-0.32518 0.04818
   2  -2  -352145.40  924.65   1-0.34523 0.57760-0.89664 0.81335-0.27719 0.06946
   2  -2  -359882.42  788.31   1-0.21789 0.44957-0.97062 0.88698-0.10202-0.10556
   2  -2  -232930.38  661.17   1-0.44020 0.65090-0.86426 0.75186-0.24345 0.10496
   2  -2  -165614.69  934.56   1-0.53078 0.71983-0.82190 0.68039-0.20673 0.13749
   2  -2   037817.50  629.78   1-0.61481 0.78220-0.77058 0.59996-0.16793 0.16793
  -2   2   038749.28  558.85   1-0.28376 0.11715-0.11037 0.28103-0.95252 0.95252
   2  -2   1 2012.67  162.97   1-0.68955 0.83527-0.71272 0.51299-0.12861 0.19785
  -2   2  -1 1664.20  140.75   1-0.31230 0.16747-0.36485 0.56486-0.87712 0.80801
   2  -2   224218.75  455.71   1-0.75234 0.87633-0.65246 0.42360-0.09087 0.22933
  -2   2  -225149.13  570.77   1-0.31826 0.19509-0.47602 0.70523-0.81981 0.68159
   2  -2   3452605.1 4065.51   1-0.79985 0.90217-0.59731 0.33934-0.05862 0.26630
  -2   2  -3469837.2 4546.95   1-0.31943 0.21813-0.52594 0.78441-0.78825 0.58061
   2  -2   4 7185.10  219.10   1-0.83032 0.91103-0.55616 0.26964-0.03517 0.31193
  -2   2  -4 7637.03  384.36   1-0.31957 0.23997-0.54584 0.83348-0.77454 0.49769
   2  -2   5 9274.43  235.90   1-0.84179 0.90090-0.53917 0.22371-0.02595 0.37190
  -2   2  -510307.27  473.07   1-0.31958 0.26168-0.54916 0.86598-0.77219 0.42613
  -2   2  -6   77.24  165.76   1-0.31956 0.28336-0.54210 0.88810-0.77717 0.36190
  -2   2  -722861.24  852.48   1-0.31945 0.30496-0.52788 0.90305-0.78694 0.30246
  -2   2  -8 2705.47  384.86   1-0.31915 0.32636-0.50827 0.91262-0.79987 0.24618
  -2   2  -9 1754.22  328.25   1-0.31856 0.34747-0.48430 0.91783-0.81483 0.19193
  -2   2 -10    6.54  195.17   1-0.31755 0.36765-0.45648 0.91935-0.83112 0.14002
  -2   2 -11  321.74  254.51   1-0.31612 0.38788-0.42544 0.91752-0.84797 0.08775
   2  -1 -11  362.38  254.40   1-0.31738 0.72180-0.45232 0.68821-0.83346 0.07324
   2  -1 -10   87.40  156.48   1-0.31889 0.70204-0.49642 0.70274-0.80738 0.11526
   2  -1  -9 3177.40  362.72   1 0.44210-0.08103-0.79652 0.97409-0.41242-0.21112
   2  -1  -9 3736.78  378.25   1-0.31954 0.68099-0.53811 0.71525-0.77995 0.15704
   2  -1  -833679.47  871.97   1 0.35248-0.01301-0.84113 0.98947-0.41017-0.14409
   2  -1  -837739.06  922.54   1-0.31940 0.65915-0.57764 0.72560-0.75119 0.19750
   2  -1  -7  293.86  111.94   1 0.26291 0.05494-0.87610 0.99521-0.40412-0.08085
   2  -1  -7  271.26  179.17   1-0.31852 0.63656-0.61523 0.73401-0.72113 0.23665
   2  -1  -6 4186.54  286.94   1 0.17340 0.12309-0.90248 0.99216-0.39426-0.02117
   2  -1  -6 4862.58  321.84   1-0.31621 0.61205-0.65180 0.74191-0.68931 0.27377
   2  -1  -5  145.03  147.24   1 0.08413 0.19073-0.92047 0.98100-0.38163 0.03543
   2  -1  -4122993.5 1583.95   1-0.00493 0.25818-0.93061 0.96198-0.36595 0.08899
   2  -1  -4135675.4 1520.48   1-0.31077 0.56341-0.71962 0.75119-0.62093 0.34390
   2  -1  -3  582.48  157.18   1-0.09360 0.32522-0.93305 0.93527-0.34733 0.13960
   2  -1  -3  750.67   99.20   1-0.30664 0.53768-0.75340 0.75570-0.58167 0.37390
   2  -1  -2  205.96   86.95   1-0.18221 0.39206-0.92781 0.90072-0.32550 0.18701
   2  -1  -2  206.04   39.52   1-0.30023 0.50966-0.79326 0.76628-0.52971 0.39120
   2  -1  -128513.75  523.42   1-0.26883 0.45702-0.91486 0.85866-0.30126 0.23201
   2  -1   0 1155.27   77.74   1-0.30094 0.46717-0.78937 0.70386-0.53509 0.53509
  -2   1   0 1083.29   72.35   1-0.31521 0.14904-0.40900 0.49440-0.85636 0.85636
   2  -1   172375.49  855.00   1-0.43303 0.57789-0.86711 0.75269-0.24615 0.31540
  -2   1  -178048.61  887.09   1-0.31644 0.17181-0.64759 0.76237-0.69316 0.62391
   2  -1   223369.84  377.97   1-0.50523 0.62843-0.83510 0.69157-0.21758 0.35607
  -2   1  -225135.10  487.68   1-0.31299 0.18997-0.69677 0.84082-0.64539 0.50688
   2  -1   334713.12  443.97   1-0.56274 0.66428-0.80388 0.63125-0.19257 0.40030
  -2   1  -338100.93  715.18   1-0.31223 0.21081-0.70509 0.87840-0.63667 0.42890
  -2   1  -4 4034.34  341.38   1-0.31290 0.23307-0.69786 0.90045-0.64426 0.36723
  -2   1  -522438.05  907.53   1-0.31416 0.25594-0.68256 0.91442-0.65984 0.31356
  -2   1  -650520.32 1767.83   1-0.31559 0.27898-0.66212 0.92325-0.67969 0.26415
  -2   1  -723397.02  957.33   1-0.31692 0.30191-0.63789 0.92828-0.70188 0.21708
  -2   1  -845972.24 1189.45   1-0.31866 0.32612-0.61082 0.92971-0.72480 0.17111
  -2   1  -9  200.80  217.29   1-0.31936 0.34851-0.58073 0.92880-0.74883 0.12593
  -2   1 -10  285.77  207.95   1-0.31958 0.37043-0.54808 0.92533-0.77295 0.08084
  -2   1 -11  -59.35  214.71   1-0.31924 0.39180-0.51294 0.91936-0.79685 0.03552
   2   0 -11    2.91  196.32   1-0.31242 0.71652-0.36653 0.68781-0.87638 0.11616
   2   0 -10  226.79  178.90   1-0.31496 0.69741-0.40477 0.69685-0.85845 0.16734
   2   0  -9 3787.91  440.15   1-0.31681 0.67759-0.43931 0.70218-0.84061 0.21861
   2   0  -8 3963.29  376.16   1 0.53933-0.20015-0.73542 0.96901-0.41019-0.14471
   2   0  -8 3727.22  396.29   1-0.31805 0.65718-0.46982 0.70348-0.82347 0.27058
   2   0  -7 4623.08  390.46   1 0.46885-0.15145-0.78115 0.98578-0.41228-0.07269
   2   0  -7 5344.04  368.14   1-0.31888 0.63667-0.49585 0.70010-0.80773 0.32325
   2   0  -6  848.04  178.66   1 0.39902-0.10322-0.81924 0.99465-0.41184-0.00385
   2   0  -6  652.94  172.35   1-0.31929 0.61538-0.51559 0.69065-0.79512 0.37985
   2   0  -513901.66  617.66   1 0.33131-0.05713-0.85022 0.99639-0.40906 0.06265
   2   0  -514686.34  621.68   1-0.31944 0.59383-0.52655 0.67244-0.78784 0.44178
   2   0  -4363792.7 3602.06   1 0.26664-0.01407-0.87482 0.99176-0.40444 0.12731
   2   0  -4370117.7 3562.80   1-0.31939 0.57209-0.52286 0.63957-0.79031 0.51346
   2   0  -3135967.2 1625.39   1 0.20594 0.02476-0.89393 0.98140-0.39807 0.19035
   2   0  -3139453.6 1514.06   1-0.31871 0.54971-0.48947 0.57700-0.81168 0.60405
   2   0  -2 2618.53  204.36   1 0.15228 0.05681-0.90746 0.96577-0.39155 0.25307
   2   0  -2 2921.08  168.14   1-0.31307 0.52225-0.37563 0.43405-0.87228 0.73406
   2   0  -121680.13  447.55   1 0.10892 0.07854-0.91627 0.94543-0.38545 0.31621
  -2   0   122957.50  300.84   1-0.31938 0.13179-0.52211 0.49293-0.79081 0.86002
   2   0  -122354.11  299.77   1-0.25521 0.44276 0.05362-0.02441-0.96539 0.89630
   2   0   010120.84  393.34   1 0.08292 0.08292-0.92066 0.92066-0.38144 0.38144
  -2   0  -361536.32  592.02   1-0.63116 0.53047-0.75901 0.84634-0.15976-0.04796
   2   0   357368.46  558.77   1 0.48066-0.37948-0.77387 0.68628-0.41239 0.62048
  -2   0  -366521.82  936.56   1-0.27809 0.17717-0.88111 0.96854-0.38247 0.17472
  -2   0  -427033.75  612.73   1-0.28847 0.20925-0.84547 0.96255-0.44939 0.17236
  -2   0  -5   50.67  166.85   1-0.29651 0.23888-0.81202 0.95836-0.50269 0.15640
  -2   0  -6 8388.94  434.18   1-0.30277 0.26675-0.77881 0.95443-0.54933 0.13379
  -2   0  -774647.71 2087.37   1-0.30775 0.29334-0.74513 0.95001-0.59165 0.10686
  -2   0  -843408.50 1478.66   1-0.31171 0.31889-0.71052 0.94467-0.63086 0.07681
  -2   0  -9 7550.48  505.93   1-0.31475 0.34354-0.67466 0.93808-0.66764 0.04433
  -2   0 -10 1741.55  391.84   1-0.31695 0.36734-0.63734 0.93003-0.70237 0.00980
  -2   0 -11  578.67  264.89   1-0.31900 0.39181-0.59870 0.91966-0.73470-0.02662
  -2   0 -12  698.67  342.23   1-0.31957 0.41407-0.55781 0.90794-0.76597-0.06456
   2   1 -10  -33.85  182.52   1-0.30819 0.69036-0.31613 0.69337-0.89725 0.20643
   2   1  -9  -33.67  177.30   1-0.31072 0.67120-0.34444 0.69271-0.88589 0.26389
  -2  -1   8  306.32  163.42   1-0.69787 0.35797 0.60086-0.91902 0.38978 0.16506
   2   1  -8  115.07  167.31   1 0.69700-0.35826-0.60054 0.91926-0.39182-0.16308
   2   1  -8  329.37  195.22   1-0.31250 0.65131-0.36754 0.68660-0.87592 0.32304
   2   1  -7 4358.12  396.03   1 0.64436-0.32726-0.65156 0.94108-0.40032-0.08522
   2   1  -7 4052.75  365.01   1-0.31365 0.63081-0.38404 0.67389-0.86840 0.38463
   2   1  -6 6159.64  371.28   1 0.59484-0.29937-0.69376 0.95408-0.40602-0.01015
   2   1  -6 6523.68  417.89   1-0.31416 0.60966-0.39185 0.65249-0.86472 0.45006
   2   1  -5  897.88  168.22   1 0.54978-0.27595-0.72799 0.95911-0.40957 0.06275
   2   1  -5 1191.17  205.64   1-0.31386 0.58771-0.38727 0.61870-0.86689 0.52134
   2   1  -466242.66 2097.31   1 0.51288-0.26077-0.75358 0.95605-0.41116 0.13403
   2   1  -466271.49 2100.43   1-0.31219 0.56437-0.36333 0.56555-0.87779 0.60135
   2   1  -3105232.7 1412.67   1 0.48310-0.25259-0.77254 0.94577-0.41204 0.20419
   2   1  -3109692.9 1431.44   1-0.30726 0.53782-0.30595 0.47886-0.90109 0.69385
   2   1  -215374.05  610.45   1 0.46611-0.25722-0.78276 0.92676-0.41231 0.27375
   2   1  -216398.29  596.06   1-0.29372 0.50263-0.18460 0.32832-0.93789 0.79973
   2   1  -1  705.21  112.83   1 0.46805-0.28076-0.78162 0.89638-0.41229 0.34301
   2   1  -1  915.68  108.20   1-0.25337 0.44057 0.06292 0.05160-0.96531 0.89623
   2   1   0290304.6 2740.39   1 0.49869-0.33301-0.76278 0.84831-0.41165 0.41165
   2   1   1700120.8 1919.44   1 0.57233-0.42832-0.71132 0.76725-0.40798 0.47734
  -2  -1  -2356284.7 3157.29   1-0.71352 0.59153 0.58422-0.61155 0.38673-0.52544
   2   1   2319045.5 2853.46   1 0.71151-0.58914-0.58518 0.61192-0.38896 0.52769
  -2  -1  -3 7410.13  278.36   1-0.90504 0.80392 0.28523-0.28291 0.31548-0.52312
  -2  -1  -3 8640.35  391.40   1-0.20224 0.10172-0.97854 0.98046-0.03925-0.16834
  -2  -1  -4 3603.06  145.42   1-0.94261 0.86292-0.32344 0.35501 0.08277-0.35962
  -2  -1  -4 4170.24  261.38   1-0.23851 0.15963-0.95230 0.98338-0.19032-0.08646
  -2  -1  -5 1647.82  225.06   1-0.26232 0.20508-0.91749 0.97760-0.29897-0.04727
  -2  -1  -6 1865.58  214.24   1-0.27838 0.24278-0.88032 0.96957-0.38409-0.03140
  -2  -1  -7 3318.12  316.02   1-0.28955 0.27573-0.84143 0.96080-0.45622-0.02856
  -2  -1  -8 2587.26  473.29   1-0.29844 0.30623-0.80257 0.95121-0.51652-0.03752
  -2  -1  -9 4913.59  427.66   1-0.30528 0.33466-0.76290 0.94082-0.56988-0.05342
  -2  -1 -10 5445.93  535.45   1-0.31049 0.36148-0.72221 0.92939-0.61805-0.07450
  -2  -1 -11  445.49  250.88   1-0.31434 0.38693-0.68025 0.91670-0.66214-0.09967
  -2  -1 -12 5464.86  597.26   1-0.31697 0.41117-0.63677 0.90249-0.70287-0.12820
   2   2 -10  969.71  306.11   1-0.29939 0.68123-0.23074 0.69332-0.92580 0.23498
   2   2  -9   23.37  179.31   1-0.30207 0.66225-0.25454 0.68793-0.91867 0.29693
  -2  -2   8   52.51   81.45   1-0.81646 0.47708 0.45290-0.85655 0.35813 0.19671
   2   2  -8  132.21  214.20   1-0.30394 0.64246-0.27210 0.67630-0.91300 0.36034
  -2  -2   7 8694.52  727.29   1-0.77989 0.46230 0.50462-0.87920 0.37028 0.11520
   2   2  -7 8935.41  514.68   1 0.77973-0.46316-0.50432 0.87886-0.37102-0.11429
   2   2  -7 7906.43  511.78   1-0.30496 0.62182-0.28212 0.65713-0.90961 0.42604
  -2  -2   624989.57  860.25   1-0.74684 0.45104 0.54624-0.89173 0.37925 0.03688
   2   2  -623381.79  710.82   1 0.74553-0.45051-0.54663 0.89208-0.38126-0.03491
   2   2  -625321.87  791.86   1-0.30499 0.60019-0.28245 0.62827-0.90950 0.49500
  -2  -2   552617.20 1471.74   1-0.71890 0.44489 0.57833-0.89473 0.38562-0.03884
   2   2  -550326.44 1416.79   1 0.71732-0.44393-0.57887 0.89512-0.38775 0.04093
   2   2  -550148.30 1476.12   1-0.30368 0.57723-0.26964 0.58627-0.91381 0.56840
  -2  -2   4 6653.85  387.71   1-0.69798 0.44576 0.60074-0.88807 0.38976-0.11234
   2   2  -4 5691.45  331.32   1 0.69616-0.44441-0.60141 0.88846-0.39198 0.11452
   2   2  -4 5889.04  368.59   1-0.30023 0.55211-0.23799 0.52543-0.92369 0.64736
   2   2  -320801.39  551.07   1 0.68448-0.45437-0.61332 0.87117-0.39409 0.18600
   2   2  -321625.81  566.69   1-0.29285 0.52308-0.17793 0.43618-0.93945 0.73220
   2   2  -222019.82  641.23   1 0.68536-0.47688-0.61244 0.84109-0.39394 0.25521
  -2  -2   1 1397.15  151.98   1-0.70481 0.51796 0.59357-0.79364 0.38846-0.31911
   2   2  -1 1271.54  168.40   1 0.70257-0.51573-0.59472 0.79418-0.39075 0.32139
  -2  -2   0184113.3 2022.12   1-0.74242 0.57736 0.55149-0.72249 0.38033-0.38033
   2   2   0166459.5 1801.73   1 0.74019-0.57498-0.55294 0.72320-0.38257 0.38257
  -2  -2  -3 1746.26  130.23   1-0.95486 0.85398 0.13220-0.21531 0.26601-0.47364
  -2  -2  -4  485.40   73.79   1-0.97509 0.89564-0.15813 0.10426 0.15552-0.43237
  -2  -2  -4  705.05  171.52   1-0.16851 0.09017-0.98198 0.92762 0.08552-0.36247
  -2  -2  -576547.82  903.33   1-0.87016 0.81453-0.49275 0.46672-0.00142-0.34452
  -2  -2  -582246.09 1331.20   1-0.21067 0.15387-0.97485 0.94952-0.07265-0.27334
  -2  -2  -6  877.54   93.38   1-0.61880 0.58481-0.76780 0.77184-0.16596-0.24949
  -2  -2  -6 1528.21  373.55   1-0.24012 0.20496-0.95042 0.95426-0.19754-0.21764
  -2  -2  -7118883.7 3466.51   1-0.27614 0.26381-0.91340 0.94654-0.29907-0.18562
  -2  -2  -7138976.2 4280.35   1-0.26221 0.24865-0.91771 0.95049-0.29840-0.18634
  -2  -2  -8 2991.88  344.48   1-0.27819 0.28627-0.88084 0.94277-0.38303-0.17096
  -2  -2  -9 2972.92  395.62   1-0.28979 0.31977-0.84051 0.93291-0.45776-0.16554
  -2  -2 -10 1388.59  338.12   1-0.29913 0.35071-0.79906 0.92073-0.52155-0.17101
  -2  -2 -11  199.05  212.90   1-0.30629 0.37948-0.75592 0.90687-0.57857-0.18324
  -2  -2 -12  -61.33  227.84   1-0.31165 0.40644-0.71111 0.89132-0.63022-0.20085
   2   3  -9 2833.66  481.37   1-0.29170 0.65154-0.16923 0.68796-0.94141 0.31967
   2   3  -8  133.43  250.29   1-0.29351 0.63169-0.18295 0.67249-0.93828 0.38562
  -2  -3   7  118.81  153.90   1-0.87188 0.55702 0.35612-0.81714 0.33614 0.14834
   2   3  -7   39.99  205.34   1-0.29427 0.61079-0.18883 0.64918-0.93687 0.45330
  -2  -3   6 3972.41  804.69   1-0.85069 0.55541 0.39745-0.82843 0.34401 0.07212
   2   3  -6 3596.68  415.39   1-0.29377 0.58864-0.18499 0.61615-0.93780 0.52330
  -2  -3   513717.54 1125.19   1-0.83321 0.55972 0.42676-0.82866 0.35161-0.00483
   2   3  -512831.01  673.78   1-0.29162 0.56482-0.16863 0.57060-0.94155 0.59613
  -2  -3   4 3447.90  709.77   1-0.82156 0.56986 0.44513-0.81795 0.35622-0.07879
   2   3  -4 3549.29  296.61   1 0.82109-0.56972-0.44537 0.81796-0.35699 0.07966
   2   3  -4 3610.91  330.36   1-0.28746 0.53883-0.13545 0.50825-0.94816 0.67181
  -2  -3   3 4195.77  886.75   1-0.81736 0.58745 0.45154-0.79528 0.35780-0.14973
   2   3  -3 3642.57  281.48   1 0.81678-0.58703-0.45195 0.79542-0.35862 0.15062
   2   3  -3 3831.06  300.13   1-0.27897 0.50872-0.07961 0.42321-0.95699 0.74972
  -2  -3   2 8952.12  564.81   1-0.82226 0.61414 0.44405-0.75870 0.35595-0.21724
   2   3  -2 8221.40  448.37   1 0.82156-0.61343-0.44465 0.75901-0.35681 0.21814
   2   3  -2 8398.39  450.10   1-0.26402 0.47215 0.00734 0.30704-0.96448 0.82631
  -2  -3   1 1342.61  328.89   1-0.83766 0.65133 0.41950-0.70507 0.34975-0.28040
  -2  -3   0  284.79   94.96   1-0.86411 0.69958 0.37331-0.62980 0.33753-0.33753
  -2  -3  -197661.39 1315.52   1-0.89837 0.75490 0.30072-0.52776 0.32013-0.38934
  -2  -3  -272902.00 1035.16   1-0.93832 0.81627 0.19345-0.39124 0.28657-0.42500
  -2  -3  -315326.41  588.22   1-0.97068 0.87005 0.04688-0.21542 0.23575-0.44339
  -2  -3  -4  173.19   84.07   1-0.97679 0.89759-0.13777-0.00151 0.16397-0.44082
  -2  -3  -539157.23  701.17   1-0.93481 0.87703-0.34788 0.23784 0.07134-0.41741
  -2  -3  -541544.10  889.93   1-0.15220 0.09596-0.97807 0.86734 0.14216-0.48836
  -2  -3  -689565.59 2693.83   1-0.82379 0.79076-0.56542 0.48408-0.04075-0.37462
  -2  -3  -698050.88 3133.26   1-0.19408 0.15935-0.98095 0.89923-0.00777-0.40741
  -2  -3  -7 8503.50  297.63   1-0.65058 0.63911-0.74451 0.69235-0.14976-0.33493
  -2  -3  -7 9966.03 1019.54   1-0.22565 0.21257-0.96488 0.91232-0.13442-0.34996
  -2  -3  -8 1724.80  176.99   1-0.42505 0.43524-0.87020 0.84714-0.24913-0.30480
  -2  -3  -8 1546.61  371.59   1-0.24970 0.25826-0.93770 0.91429-0.24157-0.31202
  -2  -3  -9  571.32  217.84   1-0.26902 0.29914-0.90362 0.90908-0.33330-0.28994
  -2  -3 -10 1244.04  304.48   1-0.28349 0.33525-0.86525 0.89986-0.41347-0.27902
  -2  -3 -11  310.99  298.02   1-0.29415 0.36794-0.82270 0.88813-0.48644-0.27537
  -2  -3 -12    1.88  220.43   1-0.30284 0.39822-0.77841 0.87311-0.54986-0.28121
  -2  -3 -13  837.69  337.78   1-0.30941 0.42640-0.73176 0.85574-0.60726-0.29306
  -2  -4   7  231.78  216.10   1-0.93034 0.61573 0.21829-0.76474 0.29462 0.18985
   2   4  -7  788.22  383.47   1-0.28263 0.59851-0.10295 0.64870-0.95368 0.47007
  -2  -4   613987.20 1003.18   1-0.91622 0.62303 0.25745-0.77465 0.30698 0.10828
   2   4  -614787.62  784.57   1-0.28173 0.57599-0.09712 0.61367-0.95456 0.54003
  -2  -4   577733.21 1339.33   1-0.90496 0.63319 0.28544-0.77339 0.31554 0.03051
   2   4  -576846.53 1456.97   1-0.27901 0.55165-0.07986 0.56720-0.95696 0.61152
  -2  -4   4 1693.62  319.60   1-0.89772 0.64737 0.30221-0.76091 0.32057-0.04372
   2   4  -4 1449.79  296.86   1-0.27381 0.52483-0.04821 0.50634-0.96057 0.68422
  -2  -4   3 6851.14  513.64   1-0.89553 0.66661 0.30712-0.73657 0.32202-0.11438
   2   4  -3 5675.52  415.41   1-0.26505 0.49445 0.00171 0.42721-0.96423 0.75696
  -2  -4   2  137.78  110.91   1-0.89917 0.69168 0.29890-0.69911 0.31958-0.18116
   2   4  -2  178.07  148.54   1-0.25102 0.45881 0.07462 0.32509-0.96509 0.82692
  -2  -4   126069.16 1807.01   1-0.90900 0.72293 0.27567-0.64663 0.31258-0.24337
  -2  -4   026249.23  716.82   1-0.92456 0.75991 0.23497-0.57667 0.29994-0.29994
  -2  -4  -110608.84  548.80   1-0.94406 0.80083 0.17396-0.48642 0.28013-0.34935
  -2  -4  -2 1055.77  214.04   1-0.96371 0.84191 0.09002-0.37323 0.25128-0.38970
  -2  -4  -3 6284.95  411.72   1-0.97722 0.87684-0.01829-0.23567 0.21140-0.41903
  -2  -4  -428170.40  657.57   1-0.97584 0.89689-0.14978-0.07492 0.15900-0.43585
  -2  -4  -5  113.03  115.62   1-0.94953 0.89199-0.29929 0.10382 0.09389-0.43995
  -2  -4  -6194902.7 5751.84   1-0.88597 0.85368-0.46354 0.29569 0.01356-0.42870
  -2  -4  -6203629.6 1872.31   1-0.14639 0.11224-0.97590 0.80882 0.16181-0.57724
  -2  -4  -7 1729.90  205.19   1-0.78394 0.77344-0.61688 0.47933-0.06985-0.41475
  -2  -4  -7 1695.44  332.19   1-0.18593 0.17329-0.98229 0.84417 0.02289-0.50728
  -2  -4  -8  174.07  121.05   1-0.64298 0.65402-0.75029 0.64193-0.15371-0.40022
  -2  -4  -8  108.35  121.74   1-0.21740 0.22640-0.97094 0.86197-0.10001-0.45357
  -2  -4  -9   51.77   88.01   1-0.46614 0.49884-0.85336 0.77410-0.23342-0.38976
  -2  -4  -9  218.08  137.72   1-0.24238 0.27302-0.94767 0.86787-0.20774-0.41504
  -2  -4 -10 5323.05  466.35   1-0.26301 0.31517-0.91616 0.86516-0.30243-0.39006
  -2  -4 -1114144.51  776.87   1-0.27882 0.35262-0.87910 0.85725-0.38655-0.37519
  -2  -4 -12  991.02  383.99   1-0.29076 0.38674-0.83677 0.84596-0.46397-0.36710
  -2  -4 -13  465.96  314.10   1-0.30050 0.41808-0.79180 0.83026-0.53174-0.36859
   2   5  -7 1767.87  409.26   1-0.26952 0.58506-0.02327 0.65434-0.96271 0.47909
  -2  -5   6  459.61  301.57   1-0.95494 0.66200 0.13183-0.73446 0.26588 0.14939
   2   5  -6 1204.38  447.18   1-0.26839 0.56230-0.01684 0.61871-0.96316 0.54863
  -2  -5   5 2250.22  367.99   1-0.94798 0.67646 0.15969-0.73307 0.27536 0.07069
   2   5  -5 1990.51  387.33   1-0.26539 0.53768-0.00013 0.57279-0.96414 0.61870
  -2  -5   469840.92 1285.32   1-0.94332 0.69322 0.17657-0.72070 0.28100-0.00415
   2   5  -469860.84 1441.39   1-0.25998 0.51066 0.02893 0.51452-0.96517 0.68882
  -2  -5   3 2168.35  404.06   1-0.94168 0.71301 0.18221-0.69709 0.28287-0.07523
   2   5  -3 4468.44  491.31   1-0.25137 0.48043 0.07289 0.44136-0.96514 0.75787
  -2  -5   2 4741.89  394.30   1-0.94350 0.73626 0.17592-0.66155 0.28078-0.14236
  -2  -5   1  363.83  216.89   1-0.94878 0.76296 0.15664-0.61303 0.27433-0.20512
  -2  -5   0 2928.60  298.89   1-0.95694 0.79254 0.12311-0.55025 0.26287-0.26287
  -2  -5  -1  211.18  153.40   1-0.96655 0.82357 0.07395-0.47184 0.24555-0.31476
  -2  -5  -214226.33  656.39   1-0.97515 0.85359 0.00806-0.37670 0.22137-0.35980
  -2  -5  -3 2500.99  267.34   1-0.97904 0.87891-0.07497-0.26441 0.18935-0.39698
  -2  -5  -4 3912.77  304.97   1-0.97338 0.89467-0.17435-0.13579 0.14872-0.42557
  -2  -5  -5 1155.03  172.54   1-0.95262 0.89534-0.28747 0.00658 0.09926-0.44532
  -2  -5  -663752.17 2074.13   1-0.91124 0.87538-0.40976 0.15811 0.04156-0.45684
  -2  -5  -7  631.72  142.44   1-0.84080 0.83098-0.54067 0.31640-0.02676-0.45756
  -2  -5  -7  755.63  221.18   1-0.14702 0.13497-0.97615 0.75271 0.15969-0.64436
  -2  -5  -8 1997.23  222.68   1-0.74440 0.75643-0.66080 0.46703-0.09591-0.45791
  -2  -5  -8 2892.61  593.31   1-0.18374 0.19317-0.98248 0.78796 0.03104-0.58463
  -2  -5  -9   74.78  116.61   1-0.62040 0.65396-0.76669 0.60212-0.16517-0.45801
  -2  -5  -9  242.16  147.54   1-0.21409 0.24516-0.97297 0.80761-0.08646-0.53633
  -2  -5 -10 3443.86  828.95   1-0.23895 0.29166-0.95180 0.81560-0.19226-0.49972
  -2  -5 -11 6062.71  537.93   1-0.25921 0.33356-0.92206 0.81502-0.28740-0.47378
  -2  -5 -12 4873.19  642.65   1-0.27642 0.37227-0.88564 0.80732-0.37313-0.45786
  -2  -5 -13  190.40  224.93   1-0.28905 0.40723-0.84333 0.79628-0.45303-0.44730
   2   6  -7  306.07  273.88   1-0.25562 0.57082 0.05153 0.66486-0.96540 0.48178
   2   6  -6  188.08  259.73   1-0.25441 0.54798 0.05769 0.62950-0.96537 0.55084
  -2  -6   5  178.29  205.86   1-0.97060 0.69932 0.04746-0.70626 0.23596 0.11009
   2   6  -5  207.83  206.26   1-0.25134 0.52329 0.07307 0.58492-0.96513 0.61969
  -2  -6   4 1668.24  327.04   1-0.96792 0.71807 0.06556-0.69511 0.24253 0.03431
  -2  -6   3  859.38  269.94   1-0.96669 0.73826 0.07314-0.67345 0.24526-0.03762
  -2  -6   2  890.95  276.84   1-0.96721 0.76021 0.06995-0.64101 0.24411-0.10569
  -2  -6   146284.14 1462.24   1-0.96946 0.78388 0.05546-0.59727 0.23887-0.16966
  -2  -6   011676.64  614.55   1-0.97294 0.80879 0.02903-0.54159 0.22918-0.22918
  -2  -6  -1 9185.63  511.04   1-0.97665 0.83392-0.00999-0.47332 0.21456-0.28377
  -2  -6  -2   76.05  200.23   1-0.97894 0.85763-0.06207-0.39198 0.19443-0.33286
  -2  -6  -3  198.87  160.16   1-0.97748 0.87759-0.12731-0.29750 0.16827-0.37590
  -2  -6  -411063.77  545.97   1-0.96929 0.89083-0.20510-0.19046 0.13562-0.41247
  -2  -6  -514224.16  730.84   1-0.95094 0.89390-0.29398-0.07234 0.09631-0.44237
  -2  -6  -6 5004.45  391.58   1-0.91883 0.88321-0.39140 0.05432 0.05053-0.46580
  -2  -6  -7  441.58  164.04   1-0.86582 0.85687-0.50031 0.19066-0.00535-0.47897
  -2  -6  -8 1192.99  272.99   1-0.79522 0.80810-0.60314 0.32404-0.06194-0.49189
  -2  -6  -8 1153.29  239.36   1-0.15180 0.16185-0.97793 0.69813 0.14352-0.69743
  -2  -6  -9   39.23  152.01   1-0.70350 0.73792-0.70037 0.45049-0.12066-0.50251
  -2  -6  -9   50.61   76.83   1-0.18573 0.21724-0.98231 0.73139 0.02363-0.64642
  -2  -6 -10  462.33  242.46   1-0.58924 0.64531-0.78758 0.56681-0.18029-0.51213
  -2  -6 -10  532.12  234.25   1-0.21454 0.26770-0.97271 0.75094-0.08832-0.60366
  -2  -6 -11  767.13  225.88   1-0.23870 0.31350-0.95208 0.75948-0.19118-0.57000
  -2  -6 -12  -67.01  201.33   1-0.25878 0.35521-0.92284 0.75939-0.28528-0.54510
  -2  -6 -13  128.42  206.11   1-0.27610 0.39399-0.88648 0.75170-0.37137-0.52887
  -2  -7   5    6.93  178.94   1-0.97878 0.70775-0.05351-0.69072 0.19779 0.14826
  -2  -7   4  386.81  218.06   1-0.97807 0.72847-0.03363-0.68134 0.20551 0.07133
  -2  -7   3  674.84  253.18   1-0.97755 0.74937-0.02359-0.66214 0.20937-0.00173
  -2  -7   2  300.86  201.09   1-0.97753 0.77078-0.02336-0.63312 0.20946-0.07103
  -2  -7   117635.00  740.63   1-0.97805 0.79272-0.03313-0.59410 0.20570-0.13649
  -2  -7   0  194.86  267.13   1-0.97877 0.81486-0.05318-0.54481 0.19792-0.19792
  -2  -7  -1 2605.28  357.65   1-0.97899 0.83651-0.08378-0.48495 0.18585-0.25506
  -2  -7  -2  534.43  250.94   1-0.97761 0.85655-0.12512-0.41437 0.16916-0.30759
  -2  -7  -3 4320.75  395.33   1-0.97306 0.87342-0.17712-0.33311 0.14754-0.35518
  -2  -7  -4 3719.11  392.22   1-0.96339 0.88517-0.23936-0.24163 0.12073-0.39758
  -2  -7  -524794.51  991.44   1-0.94631 0.88951-0.31088-0.14086 0.08857-0.43463
  -2  -7  -614013.05  702.07   1-0.91933 0.88396-0.39013-0.03236 0.05114-0.46642
  -2  -7  -7 1485.64  292.52   1-0.87627 0.86819-0.48178 0.08676 0.00424-0.48857
  -2  -7  -8 4478.92  419.91   1-0.82109 0.83483-0.56918 0.20475-0.04283-0.51100
  -2  -7  -9 6492.21  470.91   1-0.74956 0.78498-0.65540 0.32008-0.09264-0.53041
  -2  -7  -9 7070.75  690.21   1-0.15939 0.19154-0.98019 0.64403 0.11747-0.74062
  -2  -7 -10 8840.07  548.76   1-0.66018 0.71711-0.73703 0.43096-0.14468-0.54773
  -2  -7 -10 9301.98 1417.64   1-0.19074 0.24433-0.98162 0.67430 0.00486-0.69685
  -2  -7 -11  144.85  197.91   1-0.55173 0.63032-0.81029 0.53332-0.19753-0.56413
  -2  -7 -11  -49.78  229.31   1-0.21788 0.29311-0.97063 0.69247-0.10197-0.65921
  -2  -7 -12  211.93  132.33   1-0.24103 0.33790-0.94934 0.70033-0.20162-0.62876
  -2  -8   4   60.28  196.66   1-0.97769 0.72834-0.12361-0.67679 0.16978 0.10706
  -2  -8   3  695.14  289.18   1-0.97830 0.75037-0.11096-0.66020 0.17493 0.03270
  -2  -8   2   96.01  242.06   1-0.97844 0.77194-0.10735-0.63456 0.17639-0.03796
  -2  -8   1 3317.35  475.26   1-0.97823 0.79314-0.11275-0.59991 0.17420-0.10499
  -2  -8   0  364.63  225.35   1-0.97749 0.81382-0.12722-0.55619 0.16830-0.16830
  -2  -8  -1  575.31  289.42   1-0.97575 0.83352-0.15082-0.50334 0.15857-0.22778
  -2  -8  -2  -23.89  201.08   1-0.97227 0.85146-0.18358-0.44134 0.14481-0.28324
  -2  -8  -3 1499.51  287.35   1-0.96598 0.86659-0.22535-0.37031 0.12685-0.33449
  -2  -8  -4 3650.60  483.46   1-0.95551 0.87754-0.27580-0.29062 0.10453-0.38138
  -2  -8  -5  398.59  225.35   1-0.93927 0.88272-0.33425-0.20292 0.07774-0.42380
  -2  -8  -6 2632.18  395.48   1-0.91547 0.88035-0.39966-0.10826 0.04651-0.46178
  -2  -8  -7  201.11  198.34   1-0.87853 0.87132-0.47764-0.00275 0.00637-0.49070
  -2  -8  -822212.10  849.76   1-0.83340 0.84778-0.55169 0.10024-0.03274-0.52077
  -2  -8  -9  257.57  248.25   1-0.77488 0.81115-0.62750 0.20685-0.07604-0.54701
  -2  -8 -10  948.11  287.18   1-0.70230 0.76009-0.70146 0.31007-0.12136-0.57106
  -2  -8 -10 1177.83  284.09   1-0.16896 0.22321-0.98204 0.58952 0.08391-0.77629
  -2  -8 -11  196.26  218.38   1-0.61393 0.69339-0.77118 0.40891-0.16837-0.59329
  -2  -8 -11  -41.41  216.41   1-0.19797 0.27363-0.97994 0.61622-0.02268-0.73850
  -2  -8 -12  307.56  243.14   1-0.22342 0.32072-0.96667 0.63211-0.12500-0.70538
  -2  -9   3  188.70  224.04   1-0.97128 0.74359-0.19123-0.66535 0.14156 0.06607
  -2  -9   2  295.61  232.68   1-0.97217 0.76591-0.18442-0.64291 0.14445-0.00603
  -2  -9   1   39.37  233.51   1-0.97198 0.78715-0.18586-0.61222 0.14384-0.07463
  -2  -9   0 1732.03  431.43   1-0.97070 0.80728-0.19547-0.57337 0.13975-0.13975
  -2  -9  -1 2463.97  398.69   1-0.96803 0.82604-0.21318-0.52641 0.13213-0.20135
  -2  -9  -2   89.60  210.99   1-0.96347 0.84291-0.23892-0.47142 0.12092-0.25934
  -2  -9  -3 2248.78  452.73   1-0.95628 0.85714-0.27253-0.40857 0.10600-0.31364
  -2  -9  -4 1639.64  356.86   1-0.94550 0.86778-0.31369-0.33816 0.08728-0.36413
  -2  -9  -5  334.03  180.05   1-0.92996 0.87366-0.36190-0.26070 0.06471-0.41077
  -2  -9  -6  265.15  277.68   1-0.90836 0.87348-0.41642-0.17693 0.03827-0.45355
  -2  -9  -7 1589.05  315.43   1-0.87541 0.86907-0.48336-0.08240 0.00343-0.48776
  -2  -9  -8   95.39  175.74   1-0.83674 0.85199-0.54677 0.00994-0.03006-0.52345
  -2  -9  -9   12.94  189.92   1-0.78742 0.82455-0.61270 0.10673-0.06743-0.55562
  -2  -9 -10  961.55  305.10   1-0.72646 0.78525-0.67882 0.20196-0.10699-0.58530
  -2  -9 -10 1314.10  386.25   1-0.15003 0.20473-0.97730 0.49924 0.14954-0.84192
  -2  -9 -11  606.14  259.08   1-0.65252 0.73283-0.74302 0.29544-0.14874-0.61292
  -2  -9 -11 1158.11  429.05   1-0.17998 0.25633-0.98267 0.53379 0.04420-0.80582
  -2 -10   1  444.22  360.55   1-0.96039 0.77580-0.25415-0.62936 0.11420-0.04498
  -2 -10   0  -80.04  241.16   1-0.95924 0.79607-0.25950-0.59477 0.11182-0.11182
  -2 -10  -1 4572.83  562.30   1-0.95637 0.81462-0.27218-0.55283 0.10615-0.17536
  -2 -10  -2 1402.34  405.33   1-0.95144 0.83112-0.29207-0.50370 0.09717-0.23560
  -2 -10  -3 6036.34  600.72   1-0.94396 0.84506-0.31896-0.44756 0.08485-0.29248
  -2 -10  -420273.55 1022.08   1-0.93322 0.85574-0.35258-0.38469 0.06913-0.34598
  -2 -10  -5 1244.49  299.65   1-0.91837 0.86232-0.39253-0.31549 0.04998-0.39604
  -2 -10  -6  319.88  213.63   1-0.89499 0.86793-0.44550-0.23457 0.02265-0.43779
  -2 -10  -7 -103.67  158.37   1-0.86826 0.86280-0.49608-0.15505-0.00315-0.48117
  -2 -10  -8  849.54  324.29   1-0.83417 0.85030-0.55056-0.07163-0.03212-0.52139
  -2 -10  -9 5320.09  586.52   1-0.79141 0.82939-0.60785 0.01655-0.06464-0.55842
  -2 -10 -10  117.66  194.31   1-0.73883 0.79849-0.66651 0.10431-0.09939-0.59289
  -2 -11  -2  439.22  335.41   1-0.93624 0.81617-0.34360-0.53759 0.07336-0.21178
  -2 -11  -3 5400.91  664.34   1-0.92890 0.83025-0.36486-0.48709 0.06330-0.27094
  -2 -11  -4 5773.31  654.68   1-0.91850 0.84127-0.39221-0.43049 0.05013-0.32698
  -2 -11  -5  822.49  355.82   1-0.90118 0.85340-0.43246-0.36193 0.02915-0.37510
  -2 -11  -6  162.69  233.13   1-0.88213 0.85594-0.47089-0.29455 0.00982-0.42496
  -2 -11  -7  118.50  294.14   1-0.85773 0.85313-0.51394-0.22257-0.01250-0.47182
  -2 -11  -8 1422.90  424.90   1-0.82706 0.84406-0.56084-0.14673-0.03774-0.51577
   3 -10  -7  189.52  242.71   1-0.53610 0.94480-0.81902 0.16969-0.20442-0.28026
   3 -10  -6  631.49  401.18   1-0.57917 0.96620-0.79393 0.11549-0.18501-0.23043
   3 -10  -5  468.28  330.82   1-0.61650 0.98188-0.76941 0.06187-0.16710-0.17910
   3 -10  -4  -47.26  207.42   1-0.64826 0.99198-0.74629 0.00964-0.15097-0.12599
   3 -10  -3 1776.12  387.90   1-0.67461 0.99667-0.72536-0.04039-0.13689-0.07082
   3 -10  -2  500.66  303.71   1-0.69568 0.99607-0.70736-0.08750-0.12514-0.01333
   3 -10  -1   -9.88  251.40   1-0.71155 0.99028-0.69299-0.13098-0.11597 0.04673
   3 -10   0  418.40  277.35   1-0.72227 0.97927-0.68287-0.17039-0.10951 0.10951
   3 -10   1 3128.93  502.30   1-0.72763 0.96296-0.67767-0.20469-0.10627 0.17550
   3  -9  -9 1667.77  465.80   1-0.40165 0.85281-0.87878 0.37298-0.25769-0.36548
   3  -9  -8 2056.15  554.90   1-0.46254 0.89205-0.85492 0.32001-0.23483-0.31910
   3  -9  -7  -13.72  194.85   1-0.51719 0.92503-0.82905 0.26503-0.21255-0.27213
   3  -9  -6 1068.23  399.11   1-0.56567 0.95186-0.80214 0.20901-0.19123-0.22421
   3  -9  -5   42.10  208.09   1-0.60810 0.97262-0.77517 0.15293-0.17123-0.17497
   3  -9  -4 2125.85  410.84   1-0.64458 0.98744-0.74908 0.09774-0.15288-0.12408
   3  -9  -311755.33  774.21   1-0.67527 0.99647-0.72481 0.04436-0.13653-0.07118
   3  -9  -2 1188.60  393.68   1-0.70031 0.99985-0.70324-0.00631-0.12250-0.01598
   3  -9  -1 1637.40  458.87   1-0.71987 0.99768-0.68517-0.05365-0.11094 0.04172
   3  -9   0  643.31  388.95   1-0.73391 0.99005-0.67147-0.09646-0.10244 0.10244
   3  -9   1 2583.94  422.66   1-0.74241 0.97688-0.66285-0.13419-0.09716 0.16639
   3  -9   2  561.06  322.24   1-0.74516 0.95796-0.66001-0.16614-0.09543 0.23389
   3  -9   3  -14.04  224.63   1-0.74164 0.93276-0.66364-0.19161-0.09764 0.30533
   3  -8  -9   25.10  210.55   1-0.35847 0.80877-0.89280 0.47231-0.27276-0.35042
   3  -8  -8  -32.47  209.65   1-0.42591 0.85455-0.86987 0.42027-0.24882-0.30511
   3  -8  -7  851.27  306.56   1-0.48701 0.89400-0.84389 0.36518-0.22507-0.25961
   3  -8  -6  223.24  268.24   1-0.54176 0.92708-0.81590 0.30809-0.20194-0.21350
   3  -8  -5  800.31  314.70   1-0.59016 0.95383-0.78699 0.25006-0.17985-0.16635
   3  -8  -414666.75  838.63   1-0.63226 0.97426-0.75821 0.19218-0.15920-0.11776
   3  -8  -315664.59  827.81   1-0.66814 0.98848-0.73066 0.13551-0.14041-0.06730
   3  -8  -2 1208.02  367.05   1-0.69791 0.99659-0.70538 0.08113-0.12387-0.01460
   3  -8  -1 1205.17  331.92   1-0.72177 0.99873-0.68335 0.02985-0.10981 0.04058
   3  -8   0  361.76  197.14   1-0.73967 0.99495-0.66566-0.01695-0.09887 0.09887
   3  -8   1 3084.69  438.40   1-0.75168 0.98529-0.65317-0.05854-0.09129 0.16052
   3  -8   2  765.27  337.28   1-0.75765 0.96959-0.64676-0.09406-0.08745 0.22590
   3  -8   3   42.15  178.87   1-0.75718 0.94745-0.64727-0.12265-0.08775 0.29544
  -3   8  -4  286.74  244.16   1-0.25007 0.08491 0.07931 0.72013-0.96497 0.68862
  -3   8  -5   74.68  273.05   1-0.25552 0.11198 0.05205 0.77660-0.96539 0.61995
   3  -7 -10  236.91  217.63   1-0.21956 0.69067-0.92319 0.61712-0.31543-0.37699
   3  -7  -9  243.64  267.87   1-0.30006 0.74952-0.90821 0.57302-0.29173-0.33144
   3  -7  -8  412.55  315.22   1-0.37451 0.80230-0.88786 0.52357-0.26726-0.28666
   3  -7  -7 3350.98  443.52   1-0.44274 0.84887-0.86323 0.46983-0.24248-0.24221
   3  -7  -6  187.89  217.66   1-0.50461 0.88907-0.83541 0.41290-0.21784-0.19760
   3  -7  -5 1033.40  325.54   1-0.55997 0.92278-0.80551 0.35389-0.19382-0.15238
   3  -7  -4 1234.47  327.42   1-0.60875 0.94990-0.77472 0.29400-0.17091-0.10605
   3  -7  -3  808.32  238.88   1-0.65090 0.97039-0.74427 0.23443-0.14959-0.05813
   3  -7  -2  833.41  283.64   1-0.68645 0.98427-0.71539 0.17645-0.13035-0.00812
   3  -7  -167138.78 1371.31   1-0.71545 0.99162-0.68934 0.12129-0.11367 0.04443
   3  -7   017301.05  731.11   1-0.73811 0.99254-0.66724 0.06995-0.09984 0.09984
   3  -7   113104.16  662.20   1-0.75425 0.98700-0.65043 0.02404-0.08965 0.15888
   3  -7   2  904.62  253.25   1-0.76387 0.97495-0.63995-0.01554-0.08339 0.22184
  -3   7  -2  714.17  318.68   1-0.24709 0.03904 0.09378 0.56192-0.96444 0.82626
   3  -7   3  974.12  242.97   1-0.76665 0.95606-0.63686-0.04774-0.08155 0.28924
  -3   7  -3 1101.47  267.60   1-0.25850 0.07206 0.03671 0.64820-0.96531 0.75804
   3  -7   4 1620.65  412.54   1-0.76182 0.92956-0.64221-0.07150-0.08473 0.36165
  -3   7  -4  996.27  286.80   1-0.26625 0.10143-0.00490 0.71902-0.96388 0.68753
  -3   7  -5  183.72  195.29   1-0.27131 0.12811-0.03356 0.77688-0.96190 0.61646
  -3   7  -6  413.38  247.90   1-0.27434 0.15277-0.05138 0.82391-0.96025 0.54572
   3  -6 -10 1348.52  343.43   1-0.13679 0.60704-0.93151 0.71074-0.33699-0.35542
   3  -6  -9 2957.30  422.86   1-0.22373 0.67232-0.92259 0.67271-0.31427-0.30890
   3  -6  -8 1079.99  301.18   1-0.30516 0.73210-0.90702 0.62803-0.29014-0.26379
   3  -6  -7  699.33  326.53   1-0.38084 0.78611-0.88583 0.57774-0.26506-0.21962
   3  -6  -7  149.03   91.26   1-0.20671 0.60964-0.97674 0.66750-0.05688-0.42751
   3  -6  -6 6188.73  572.81   1-0.45044 0.83406-0.86006 0.52286-0.23953-0.17592
   3  -6  -6 5319.10  450.72   1-0.15441 0.53575-0.97879 0.64062 0.13462-0.55005
   3  -6  -5  737.96  276.49   1-0.51367 0.87563-0.83085 0.46454-0.21404-0.13216
   3  -6  -4  380.16  241.91   1-0.57025 0.91054-0.79939 0.40398-0.18914-0.08782
   3  -6  -3   16.45  190.15   1-0.61993 0.93856-0.76701 0.34249-0.16540-0.04232
   3  -6  -215793.19  722.50   1-0.66258 0.95954-0.73513 0.28149-0.14340 0.00492
   3  -6  -1 9659.34 1324.96   1-0.69810 0.97341-0.70521 0.22247-0.12376 0.05452
   3  -6   098935.78 2633.36   1-0.72662 0.98019-0.67866 0.16670-0.10689 0.10689
   3  -6   197468.57 2607.77   1-0.74787 0.97977-0.65718 0.11611-0.09372 0.16295
  -3   6  -192978.28 2480.41   1-0.24664 0.01731 0.09596 0.44521-0.96434 0.89525
   3  -6   210600.87  589.26   1-0.76189 0.97212-0.64213 0.07196-0.08468 0.22314
  -3   6  -212002.38  662.49   1-0.26351 0.05580 0.01011 0.56027-0.96460 0.82642
   3  -6   3 1269.28  244.69   1-0.76838 0.95693-0.63491 0.03563-0.08040 0.28809
  -3   6  -3 1445.68  290.25   1-0.27455 0.08846-0.05261 0.65220-0.96013 0.75286
   3  -6   4 3940.82  367.97   1-0.76660 0.93348-0.63691 0.00852-0.08158 0.35850
  -3   6  -4 4133.11  507.39   1-0.28165 0.11717-0.09659 0.72539-0.95464 0.67829
   3  -6   5  264.52  170.40   1-0.75504 0.90025-0.64958-0.00791-0.08914 0.43528
  -3   6  -5  547.12  281.56   1-0.28603 0.14318-0.12562 0.78362-0.94994 0.60450
  -3   6  -6  112.13  229.09   1-0.28850 0.16727-0.14269 0.82989-0.94678 0.53225
  -3   6  -7  138.05  238.11   1-0.28954 0.18992-0.15005 0.86645-0.94532 0.46171
   3  -5 -10  182.36  216.84   1-0.03398 0.50353-0.93226 0.79754-0.36018-0.33221
   3  -5  -9  194.63  166.94   1-0.12708 0.57482-0.93203 0.76747-0.33934-0.28383
   3  -5  -8 2219.47  324.26   1-0.21466 0.64074-0.92388 0.73021-0.31678-0.23715
   3  -5  -7 5032.97  465.11   1-0.29730 0.70172-0.90884 0.68606-0.29259-0.19210
   3  -5  -7 4385.67  438.41   1-0.24781 0.65029-0.94044 0.71676-0.23269-0.25170
   3  -5  -614686.95  770.37   1-0.37461 0.75736-0.88783 0.63594-0.26723-0.14821
   3  -5  -612791.66  871.98   1-0.20570 0.58655-0.97718 0.72434-0.05287-0.36232
   3  -5  -5 3349.70  370.55   1-0.44610 0.80719-0.86186 0.58086-0.24120-0.10500
   3  -5  -5 3677.11  241.16   1-0.14394 0.50318-0.97487 0.69307 0.17000-0.51619
   3  -5  -444625.31 1419.92   1-0.51128 0.85071-0.83206 0.52196-0.21505-0.06191
   3  -5  -3 6643.16  474.90   1-0.56968 0.88745-0.79973 0.46052-0.18940-0.01832
   3  -5  -2 5103.26  388.43   1-0.62087 0.91698-0.76635 0.39803-0.16493 0.02644
   3  -5  -1 2784.42  307.92   1-0.66451 0.93896-0.73358 0.33615-0.14237 0.07313
   3  -5   0 1383.23  245.30   1-0.70033 0.95312-0.70322 0.27668-0.12249 0.12249
   3  -5   121650.95  810.89   1-0.72832 0.95936-0.67700 0.22126-0.10586 0.17508
  -3   5  -121359.48  820.33   1-0.26310 0.03412 0.01230 0.44354-0.96468 0.89559
   3  -5   2 4856.80  347.21   1-0.74793 0.95730-0.65713 0.17228-0.09368 0.23214
  -3   5  -2 5424.36  419.87   1-0.27991 0.07254-0.08552 0.57057-0.95620 0.81803
   3  -5   3 8571.09  424.08   1-0.75892 0.94662-0.64538 0.13142-0.08662 0.29431
  -3   5  -3 9355.12 1303.27   1-0.28996 0.10421-0.15304 0.66730-0.94472 0.73745
   3  -5   4 9806.25  437.84   1-0.76050 0.92653-0.64366 0.10060-0.08559 0.36251
  -3   5  -411055.01  615.37   1-0.29539 0.13147-0.19767 0.74112-0.93470 0.65837
   3  -5   512698.98  503.54   1-0.75092 0.89527-0.65398 0.08181-0.09178 0.43793
  -3   5  -513209.41  706.48   1-0.29877 0.15650-0.22541 0.79805-0.92732 0.58190
  -3   5  -611292.17  709.51   1-0.30048 0.17987-0.24020 0.84203-0.92304 0.50855
  -3   5  -7 1552.08  414.48   1-0.30101 0.20206-0.24492 0.87594-0.92163 0.43805
  -3   5  -8   82.91  217.13   1-0.30063 0.22334-0.24158 0.90179-0.92263 0.36997
   3  -4 -10  398.38  258.51   1 0.08685 0.38179-0.92004 0.87058-0.38206-0.31033
   3  -4  -9  646.16  257.92   1-0.00819 0.45521-0.93084 0.85223-0.36532-0.25783
   3  -4  -8  634.15  265.52   1-0.09979 0.52518-0.93294 0.82517-0.34591-0.20800
   3  -4  -8 1015.48  226.96   1-0.29933 0.72298-0.79804 0.69016-0.52299-0.03105
   3  -4  -752922.30 1164.36   1-0.18851 0.59207-0.92713 0.78966-0.32384-0.16085
   3  -4  -756483.31  905.79   1-0.28424 0.68609-0.86285 0.72443-0.41794-0.06680
   3  -4  -6289983.636607.87   1-0.27215 0.65405-0.91420 0.74762-0.30026-0.11518
   3  -4  -6301946.9 6913.26   1-0.25743 0.63784-0.92524 0.75796-0.27865-0.13653
   3  -4  -530273.75 1068.13   1-0.35107 0.71131-0.89497 0.69928-0.27525-0.07096
   3  -4  -532067.83  927.87   1-0.21330 0.57207-0.97342 0.77698-0.08329-0.26270
   3  -4  -420414.05  918.81   1-0.42462 0.76319-0.87037 0.64557-0.24930-0.02766
   3  -4  -3 5518.71  361.07   1-0.49210 0.80902-0.84148 0.58757-0.22300 0.01527
   3  -4  -236303.60 1325.41   1-0.55279 0.84805-0.80968 0.52666-0.19705 0.05857
   3  -4  -1  221.29  206.09   1-0.60597 0.87957-0.77660 0.46448-0.17226 0.10302
   3  -4   015901.37  693.01   1-0.65096 0.90290-0.74422 0.40299-0.14956 0.14956
  -3   4   016845.50  666.25   1-0.25014-0.00011 0.07899 0.26231-0.96498 0.96498
   3  -4   1  759.34  157.70   1-0.68715 0.91742-0.71479 0.34444-0.12996 0.19920
  -3   4  -1  805.29  142.88   1-0.28046 0.05182-0.08903 0.45955-0.95572 0.88663
   3  -4   219353.45  780.00   1-0.71393 0.92254-0.69077 0.29132-0.11457 0.25306
  -3   4  -220262.17  826.08   1-0.29552 0.08861-0.19866 0.59839-0.93445 0.79628
   3  -4   310395.49  397.51   1-0.73087 0.91772-0.67449 0.24586-0.10430 0.31199
  -3   4  -310574.59  475.01   1-0.30354 0.11829-0.26831 0.69724-0.91425 0.70700
   3  -4   4 2879.68  243.37   1-0.73617 0.90134-0.66920 0.21147-0.10105 0.37796
  -3   4  -4 2693.54  310.46   1-0.30770 0.14411-0.31073 0.76884-0.89931 0.62298
   3  -4   5  906.21  216.56   1-0.72765 0.87115-0.67766 0.19081-0.10626 0.45241
  -3   4  -5  409.12  213.86   1-0.30986 0.16812-0.33403 0.82166-0.89017 0.54461
  -3   4  -6  534.17  261.41   1-0.31071 0.19062-0.34429 0.86113-0.88595 0.47129
  -3   4  -7  924.27  281.15   1-0.31074 0.21230-0.34462 0.89066-0.88581 0.40204
  -3   4  -8 1591.25  394.10   1-0.31013 0.23336-0.33725 0.91250-0.88886 0.33597
  -3   4  -9 5339.87  601.49   1-0.30889 0.25360-0.32408 0.92815-0.89417 0.27243
   3  -3 -10  141.45  187.14   1 0.22281 0.24385-0.88889 0.92463-0.40028-0.29254
   3  -3  -9  480.35  209.87   1 0.12935 0.31676-0.91235 0.91899-0.38842-0.23474
   3  -3  -8  209.46  155.52   1-0.31341 0.73647-0.69194 0.66957-0.65036 0.09631
   3  -3  -748354.48 1070.69   1-0.05214 0.45500-0.93287 0.88119-0.35641-0.12826
   3  -3  -750574.75  865.51   1-0.30711 0.70856-0.75001 0.69837-0.58579 0.10099
   3  -3  -667707.39 1914.93   1-0.13964 0.52068-0.93134 0.85006-0.33630-0.07915
   3  -3  -672322.10 1815.47   1-0.29641 0.67627-0.81246 0.73155-0.50202 0.08648
   3  -3  -511833.36  530.72   1-0.22296 0.58234-0.92270 0.81232-0.31448-0.03172
   3  -3  -512913.55  354.14   1-0.27773 0.63590-0.88211 0.77100-0.38045 0.03419
   3  -3  -4 7233.09  432.87   1-0.30234 0.64006-0.90768 0.76819-0.29102 0.01405
   3  -3  -4 7313.87  466.23   1-0.23724 0.57393-0.95373 0.81370-0.18465-0.09214
   3  -3  -3 1600.45  209.19   1-0.37702 0.69308-0.88706 0.71846-0.26639 0.05867
   3  -3  -3 1417.57  283.90   1-0.14687 0.46191-0.97609 0.80701 0.16019-0.36791
   3  -3  -281100.39 1318.32   1-0.44610 0.74050-0.86186 0.66415-0.24120 0.10271
   3  -3  -1258009.1 2870.59   1-0.50854 0.78127-0.83345 0.60663-0.21620 0.14696
  -3   3   0 2856.45  240.98   1-0.26735 0.01743-0.01102 0.26701-0.96353 0.96353
   3  -3   1 7480.09  420.10   1-0.60874 0.83816-0.77473 0.48970-0.17091 0.24015
  -3   3  -1 9268.69  455.59   1-0.29829 0.07005-0.22131 0.50651-0.92846 0.85938
   3  -3   2  356.25  105.67   1-0.64383 0.85158-0.74965 0.43551-0.15327 0.29176
  -3   3  -2  436.22  132.80   1-0.31023 0.10382-0.33846 0.65307-0.88836 0.75014
   3  -3   3108463.4 3254.11   1-0.66670 0.85279-0.73182 0.38857-0.14119 0.34892
  -3   3  -3109207.5 3367.51   1-0.31487 0.13012-0.40326 0.74708-0.85920 0.65186
   3  -3   415109.58  585.51   1-0.67477 0.83920-0.72523 0.35287-0.13681 0.41378
  -3   3  -415508.80  743.24   1-0.31672 0.15363-0.43755 0.81057-0.84156 0.56512
   3  -3   528208.04  798.95   1-0.66320 0.80597-0.73463 0.33316-0.14307 0.48928
  -3   3  -529904.52 1078.27   1-0.31741 0.17597-0.45293 0.85516-0.83312 0.48757
  -3   3  -6 1328.08  302.58   1-0.31752 0.19775-0.45575 0.88718-0.83154 0.41687
  -3   3  -7 1208.99  307.05   1-0.31727 0.21915-0.44965 0.91029-0.83495 0.35117
  -3   3  -8 1048.27  342.96   1-0.31669 0.24023-0.43681 0.92667-0.84195 0.28907
  -3   3  -9 3258.58  453.76   1-0.31576 0.26095-0.41860 0.93767-0.85150 0.22950
  -3   3 -10 1499.69  434.62   1-0.31442 0.28128-0.39587 0.94414-0.86279 0.17169
   3  -2  -9 1019.67  301.66   1 0.28037 0.16422-0.86999 0.96203-0.40558-0.21796
   3  -2  -9 1381.66  249.31   1-0.31950 0.76415-0.53306 0.62474-0.78342 0.16052
   3  -2  -8  227.58  137.41   1 0.19291 0.23066-0.89749 0.96023-0.39660-0.15732
   3  -2  -8  457.98  164.08   1-0.31940 0.74234-0.57777 0.64027-0.75110 0.19741
   3  -2  -716306.73  669.77   1 0.10678 0.29517-0.91666 0.95024-0.38513-0.09954
   3  -2  -716244.25  516.65   1-0.31830 0.71954-0.62143 0.65475-0.71589 0.23141
   3  -2  -6 4159.55  363.73   1 0.02251 0.35781-0.92831 0.93274-0.37111-0.04432
   3  -2  -6 4330.71  265.28   1-0.31535 0.69461-0.66596 0.67055-0.67605 0.26051
   3  -2  -5 1266.52  232.95   1-0.05952 0.41823-0.93302 0.90829-0.35484 0.00864
   3  -2  -5  994.02  134.74   1-0.31162 0.66927-0.71142 0.68675-0.62989 0.28360
   3  -2  -4 1071.48  182.33   1-0.13965 0.47651-0.93134 0.87716-0.33629 0.05932
   3  -2  -4 1185.03  108.73   1-0.30519 0.64124-0.76348 0.70954-0.56915 0.29213
   3  -2  -311279.45  567.86   1-0.21563 0.53083-0.92375 0.84046-0.31651 0.10879
   3  -2  -312500.44  418.26   1-0.29060 0.60505-0.83739 0.75418-0.46295 0.25518
   3  -2  -1454360.9 4358.83   1-0.35370 0.62559-0.89421 0.75270-0.27436 0.20512
   3  -2   0 6179.05  334.74   1-0.41312 0.66334-0.87466 0.70405-0.25353 0.25353
  -3   2   0 6611.37  278.63   1-0.29051 0.04094-0.15703 0.32769-0.94389 0.94389
   3  -2   145800.96  792.32   1-0.46362 0.69218-0.85446 0.65473-0.23441 0.30365
  -3   2  -145450.23  690.64   1-0.31543 0.08768-0.41284 0.61284-0.85443 0.78532
   3  -2   3119992.0 1358.56   1-0.52537 0.71061-0.82478 0.56684-0.20906 0.41679
  -3   2  -3127634.9 1658.73   1-0.31955 0.13530-0.56223 0.82069-0.76274 0.55511
   3  -2   410127.37  279.79   1-0.52526 0.68883-0.82484 0.53779-0.20911 0.48608
  -3   2  -410650.27  429.98   1-0.31938 0.15683-0.57929 0.86694-0.74993 0.47309
   3  -2   528204.21  895.46   1-0.48559 0.62750-0.84455 0.52839-0.22565 0.57186
  -3   2  -530424.09 1173.65   1-0.31935 0.17851-0.58098 0.89780-0.74864 0.40258
  -3   2  -616500.56  739.59   1-0.31946 0.20031-0.57306 0.91906-0.75468 0.33941
  -3   2  -7 1731.54  310.04   1-0.31956 0.22212-0.55846 0.93364-0.76549 0.28101
  -3   2  -8 6490.70  545.18   1-0.31954 0.24380-0.53882 0.94318-0.77945 0.22576
  -3   2  -9 2660.03  378.89   1-0.31928 0.26523-0.51508 0.94861-0.79545 0.17254
  -3   2 -10  -72.10  181.59   1-0.31866 0.28632-0.48780 0.95051-0.81271 0.12059
  -3   2 -11  123.71  243.45   1-0.31758 0.30641-0.45720 0.94928-0.83072 0.07050
   3  -1  -9  873.60  278.19   1 0.43608 0.00806-0.79984 0.97742-0.41240-0.21114
   3  -1  -9  908.95  281.32   1-0.31649 0.76052-0.43264 0.61011-0.84418 0.22219
   3  -1  -8  455.78  198.82   1 0.35709 0.06544-0.83908 0.98742-0.41038-0.14388
   3  -1  -8  587.20  197.45   1-0.31793 0.74030-0.46622 0.61449-0.82556 0.27267
   3  -1  -7  660.81  242.58   1 0.27950 0.12142-0.87030 0.98941-0.40551-0.07946
   3  -1  -7  430.76  156.80   1-0.31886 0.71986-0.49527 0.61405-0.80809 0.32361
   3  -1  -6 3553.58  351.25   1 0.20361 0.17581-0.89458 0.98426-0.39782-0.01762
   3  -1  -6 3958.01  258.07   1-0.31932 0.69861-0.51753 0.60713-0.79384 0.37857
   3  -1  -5   33.08  119.44   1 0.12991 0.22788-0.91224 0.97276-0.38850 0.04229
   3  -1  -5  194.80   99.83   1-0.31947 0.67707-0.52974 0.59016-0.78568 0.43963
   3  -1  -4 6945.60  386.09   1 0.05886 0.27730-0.92413 0.95550-0.37749 0.10053
   3  -1  -4 7050.69  241.29   1-0.31939 0.65528-0.52264 0.55388-0.79046 0.51361
   3  -1  -344950.21  967.12   1-0.00876 0.32330-0.93088 0.93309-0.36521 0.15749
   3  -1  -345078.87  584.35   1-0.31777 0.63185-0.46212 0.46435-0.82792 0.62058
   3  -1  -279276.95 1323.59   1-0.07189 0.36481-0.93317 0.90622-0.35217 0.21369
   3  -1  -158235.10  924.38   1-0.12960 0.40062-0.93190 0.87570-0.33874 0.26950
   3  -1   0157418.5 1747.73   1-0.17827 0.42763-0.92822 0.84291-0.32653 0.32653
  -3   1   0163580.9 1477.34   1-0.31942 0.07033-0.52526 0.61072-0.78870 0.78870
   3  -1   1 5908.49  298.36   1-0.21478 0.44248-0.92386 0.80945-0.31675 0.38599
  -3   1  -1 6544.64  272.73   1-0.31253 0.08509-0.70189 0.81667-0.64004 0.57079
   3  -1   2 2381.21  170.70   1-0.23262 0.43866-0.92123 0.77771-0.31177 0.45025
  -3   1  -2 2556.55  190.75   1-0.30896 0.10312-0.73556 0.87960-0.60290 0.46438
   3  -1   3371654.1 3351.41   1-0.21886 0.40324-0.92329 0.75066-0.31562 0.52335
  -3   1  -3413530.4 3964.79   1-0.30864 0.12440-0.73814 0.91145-0.59990 0.39213
  -3   1  -4157944.3 1967.94   1-0.30980 0.14716-0.72840 0.93098-0.61110 0.33408
  -3   1  -523812.80  945.09   1-0.31156 0.17053-0.71198 0.94383-0.62928 0.28300
  -3   1  -637939.51 1404.75   1-0.31347 0.19404-0.69114 0.95226-0.65118 0.23564
  -3   1  -716606.61  765.34   1-0.31528 0.21745-0.66694 0.95733-0.67511 0.19031
  -3   1  -8  238.75  232.67   1-0.31683 0.24060-0.63991 0.95957-0.70008 0.14603
  -3   1  -9 5275.97  488.86   1-0.31866 0.26487-0.61081 0.95888-0.72481 0.10191
  -3   1 -10   99.17  202.78   1-0.31938 0.28729-0.57882 0.95607-0.75029 0.05818
  -3   1 -11  272.14  300.74   1-0.31957 0.30917-0.54447 0.95089-0.77551 0.01418
   3   0  -9  418.73  263.90   1 0.58257-0.13871-0.70344 0.96623-0.40714-0.21713
   3   0  -9  435.44  257.13   1-0.31016 0.75388-0.33755 0.60042-0.88873 0.26673
   3   0  -810183.77  645.63   1 0.51630-0.09422-0.75132 0.98519-0.41102-0.14323
   3   0  -8 9478.85  552.02   1-0.31211 0.73416-0.36225 0.59592-0.87826 0.32538
   3   0  -7  189.20  184.71   1 0.45114-0.05067-0.79143 0.99607-0.41242-0.07256
   3   0  -7  190.96  141.75   1-0.31334 0.71374-0.37949 0.58395-0.87051 0.38673
   3   0  -6 8988.25 1250.45   1 0.38826-0.00940-0.82454 0.99994-0.41155-0.00414
   3   0  -6 8432.72  410.76   1-0.31381 0.69255-0.38644 0.56169-0.86728 0.45261
   3   0  -5  -14.38  167.63   1 0.32835 0.02889-0.85145 0.99762-0.40889 0.06248
   3   0  -5  -18.41   91.47   1-0.31321 0.67029-0.37760 0.52364-0.87138 0.52583
   3   0  -4  611.13  151.91   1 0.27235 0.06328-0.87284 0.98977-0.40492 0.12779
   3   0  -4  634.71  107.47   1-0.31045 0.64588-0.34112 0.45796-0.88726 0.61082
   3   0  -3 3519.24  276.88   1 0.22154 0.09248-0.88926 0.97696-0.40015 0.19230
   3   0  -3 3109.64  198.36   1-0.30132 0.61518-0.24770 0.33528-0.92078 0.71353
   3   0  -215805.82  711.42   1 0.17747 0.11454-0.90147 0.95979-0.39476 0.25628
   3   0  -214744.13  517.67   1-0.26806 0.56018-0.01499 0.07340-0.96328 0.82510
   3   0  -1 4885.90  292.40   1 0.14371 0.12667-0.90935 0.93851-0.39041 0.32117
   3   0   0144040.8 1632.36   1 0.12438 0.12438-0.91334 0.91334-0.38771 0.38771
   3   0   1 2079.45  186.65   1 0.12713 0.10000-0.91280 0.88364-0.38810 0.45734
  -3   0  -1 2256.98  311.61   1-0.21858-0.00859-0.97016 0.99932-0.10485 0.03565
   3   0   267390.36  852.55   1 0.16617 0.03933-0.90424 0.84593-0.39335 0.53183
  -3   0  -279818.75  981.14   1-0.25215 0.04662-0.93397 0.99229-0.25317 0.11477
   3   0   340903.27  563.10   1 0.27119-0.08681-0.87325 0.78554-0.40483 0.61268
  -3   0  -348767.60  790.08   1-0.27078 0.08693-0.89962 0.98704-0.34257 0.13482
   3   0   4 2383.35  132.45   1 0.52641-0.36382-0.74436 0.62757-0.41086 0.68832
  -3   0  -4 2233.06  228.97   1-0.28286 0.12066-0.86720 0.98376-0.40981 0.13281
  -3   0  -5 6605.47  414.54   1-0.29126 0.15082-0.83479 0.98113-0.46721 0.12093
  -3   0  -690145.70 2883.54   1-0.29836 0.17952-0.80300 0.97861-0.51590 0.10036
  -3   0  -7 5072.88  441.09   1-0.30410 0.20687-0.77058 0.97546-0.56010 0.07531
  -3   0  -8137340.3 1962.37   1-0.30876 0.23313-0.73715 0.97130-0.60105 0.04699
  -3   0  -941991.70 1168.23   1-0.31248 0.25845-0.70246 0.96588-0.63944 0.01613
  -3   0 -10   74.84  209.84   1-0.31533 0.28290-0.66631 0.95900-0.67571-0.01684
  -3   0 -11  686.25  275.79   1-0.31734 0.30651-0.62850 0.95045-0.71012-0.05169
  -3   0 -12 1313.77  401.81   1-0.31921 0.33076-0.58942 0.93955-0.74208-0.08845
   3   1  -9  192.45  167.02   1-0.30141 0.74488-0.24848 0.59653-0.92054 0.29880
   3   1  -8   14.09  140.68   1 0.65606-0.23428-0.64081 0.95953-0.39866-0.15624
   3   1  -8  227.34  273.81   1-0.30338 0.72520-0.26676 0.58562-0.91476 0.36210
   3   1  -7 1794.44  276.27   1 0.60427-0.20412-0.68611 0.97563-0.40509-0.08045
   3   1  -7 1643.00  252.61   1-0.30438 0.70454-0.27640 0.56607-0.91156 0.42798
   3   1  -6   14.29  125.61   1 0.55548-0.17696-0.72387 0.98419-0.40920-0.00697
   3   1  -6  487.00  259.36   1-0.30419 0.68269-0.27451 0.53499-0.91219 0.49770
   3   1  -5  799.38  197.25   1 0.51222-0.15543-0.75402 0.98572-0.41118 0.06477
   3   1  -5  802.16  166.45   1-0.30224 0.65908-0.25608 0.48737-0.91818 0.57277
   3   1  -433027.04 1216.44   1 0.47287-0.13769-0.77875 0.98121-0.41222 0.13509
   3   1  -432272.55 1128.48   1-0.29718 0.63236-0.21210 0.41420-0.93096 0.65463
   3   1  -317371.46  748.20   1 0.44063-0.12706-0.79733 0.97056-0.41242 0.20457
   3   1  -316880.08  655.41   1-0.28602 0.59942-0.12553 0.29848-0.94996 0.74269
   3   1  -212003.10  615.35   1 0.41800-0.12603-0.80953 0.95353-0.41221 0.27365
   3   1  -213515.88  599.39   1-0.25925 0.55103 0.03279 0.11094-0.96525 0.82707
   3   1  -1126862.0 1582.22   1 0.40853-0.13818-0.81443 0.92920-0.41205 0.34277
   3   1   0 2089.74  184.94   1 0.41751-0.16876-0.80978 0.89532-0.41221 0.41221
   3   1   1174704.3 1857.83   1 0.45282-0.22568-0.79047 0.84677-0.41241 0.48169
   3   1   3 4393.31  234.09   1 0.65298-0.46919-0.64367 0.64120-0.39911 0.60720
  -3  -1  -3 4790.02  368.10   1-0.19718 0.01372-0.98016 0.98208-0.01966-0.18793
  -3  -1  -4 2227.72  323.37   1-0.84131 0.67985 0.41345-0.38261 0.34819-0.62562
  -3  -1  -4 2230.83  572.30   1-0.23157 0.06975-0.95960 0.99067-0.15979-0.11700
  -3  -1  -510244.07  501.34   1-0.25469 0.11451-0.92990 0.99014-0.26533-0.08065
  -3  -1  -668576.94 2246.58   1-0.27203 0.15350-0.89667 0.98592-0.34924-0.06625
  -3  -1  -724381.85 1015.52   1-0.28460 0.18772-0.86170 0.98009-0.42008-0.06466
  -3  -1  -862071.43 1858.75   1-0.29371 0.21868-0.82459 0.97324-0.48349-0.07055
  -3  -1  -9   68.22  216.41   1-0.30134 0.24791-0.78712 0.96503-0.53817-0.08513
  -3  -1 -10  815.40  279.39   1-0.30733 0.27550-0.74838 0.95557-0.58775-0.10480
  -3  -1 -11 1074.30  355.19   1-0.31193 0.30170-0.70824 0.94469-0.63330-0.12851
  -3  -1 -12  126.19  230.04   1-0.31531 0.32669-0.66652 0.93224-0.67551-0.15556
   3   2  -9   -3.06  187.75   1-0.29159 0.73435-0.16486 0.59836-0.94222 0.32043
  -3  -2   8  151.40  205.62   1-0.77155 0.34912 0.51554-0.91920 0.37270 0.18213
   3   2  -8  435.88  240.99   1 0.77056-0.34922-0.51567 0.91952-0.37457-0.18033
   3   2  -8  -10.02  161.89   1-0.29299 0.71447-0.17898 0.58318-0.93921 0.38655
  -3  -2   7  297.93  105.83   1-0.73238 0.33175 0.56317-0.93774 0.38267 0.10281
   3   2  -7  522.16  243.89   1 0.73112-0.33141-0.56343 0.93807-0.38471-0.10083
   3   2  -7  403.90  186.60   1-0.29365 0.69347-0.18406 0.55907-0.93802 0.45444
  -3  -2   6  154.33  112.59   1-0.69640 0.31755 0.60238-0.94787 0.39005 0.02607
   3   2  -6   58.85  116.45   1 0.69489-0.31682-0.60273 0.94818-0.39221-0.02396
   3   2  -6   22.02  127.19   1-0.29283 0.67099-0.17776 0.52358-0.93949 0.52499
   3   2  -5  194.80  241.96   1 0.66307-0.30664-0.63421 0.95046-0.39761 0.05079
   3   2  -5  165.42  148.92   1-0.29037 0.64666-0.15598 0.47266-0.94411 0.59867
   3   2  -4  105.78  182.12   1 0.63709-0.30230-0.65808 0.94513-0.40129 0.12383
   3   2  -4  157.76   98.95   1-0.28416 0.61883-0.11305 0.40052-0.95208 0.67573
   3   2  -3  787.20  161.91   1 0.61873-0.30557-0.67404 0.93189-0.40352 0.19543
   3   2  -3  995.78  176.53   1-0.27232 0.58537-0.03941 0.29768-0.96139 0.75413
   3   2  -262670.56 1088.54   1 0.61024-0.31872-0.68117 0.90983-0.40446 0.26574
   3   2  -264974.43 1003.24   1-0.25034 0.54177 0.07799 0.15106-0.96500 0.82683
   3   2  -1166403.6 2004.74   1 0.61450-0.34462-0.67761 0.87706-0.40400 0.33464
   3   2   0 4011.26  305.66   1 0.63507-0.38682-0.65987 0.83013-0.40155 0.40155
   3   2   160955.95  932.41   1 0.67594-0.44933-0.62179 0.76285-0.39555 0.46492
  -3  -2  -2 3327.28  653.82   1-0.74252 0.53799 0.55138-0.66421 0.38030-0.51901
   3   2   2 2817.05  202.75   1 0.74044-0.53546-0.55265 0.66451-0.38251 0.52124
  -3  -2  -333702.82  596.34   1-0.82944 0.64671 0.43279-0.51653 0.35313-0.56120
   3   2   331153.91  575.48   1 0.82816-0.64482-0.43436 0.51779-0.35422 0.56222
  -3  -2  -469679.27  907.61   1-0.92204 0.75978 0.24194-0.29580 0.30214-0.57899
  -3  -2  -540321.86  596.08   1-0.97868 0.83783-0.04970 0.02509 0.19928-0.54534
  -3  -2  -544762.05  925.56   1-0.20447 0.06473-0.97769 0.95237-0.04800-0.29799
  -3  -2  -6 2784.33  136.55   1-0.89745 0.78075-0.44037 0.44327 0.02522-0.44036
  -3  -2  -6 3618.45  956.39   1-0.23321 0.11511-0.95799 0.96182-0.16692-0.24827
  -3  -2  -7 8256.77 1173.94   1-0.25473 0.15827-0.92983 0.96283-0.26553-0.21886
  -3  -2  -8 2700.35  344.52   1-0.27199 0.19714-0.89677 0.95870-0.34901-0.20498
  -3  -2  -9 1472.21  288.23   1-0.28492 0.23172-0.86066 0.95173-0.42198-0.20126
  -3  -2 -10  -26.04  193.40   1-0.29448 0.26325-0.82126 0.94293-0.48867-0.20388
  -3  -2 -11   60.08  188.71   1-0.30245 0.29282-0.78073 0.93167-0.54679-0.21503
  -3  -2 -12 2711.53  482.82   1-0.30862 0.32059-0.73831 0.91852-0.59970-0.23137
   3   3  -9  891.13  404.75   1-0.28005 0.72247-0.08638 0.60520-0.95609 0.33429
   3   3  -8  540.19  280.76   1-0.28181 0.70261-0.09765 0.58728-0.95448 0.40178
  -3  -3   7  517.45  306.35   1-0.82893 0.42881 0.43360-0.89367 0.35334 0.13214
   3   3  -7  705.99  303.82   1-0.28221 0.68139-0.10024 0.56066-0.95410 0.47048
  -3  -3   6 5315.92  925.41   1-0.80294 0.42461 0.47282-0.90381 0.36293 0.05319
   3   3  -6 5826.86  478.29   1 0.80256-0.42499-0.47287 0.90368-0.36370-0.05228
   3   3  -6 6846.35  548.09   1-0.28095 0.65852-0.09216 0.52337-0.95528 0.54075
  -3  -3   5  141.18   79.26   1-0.78090 0.42436 0.50328-0.90519 0.36998-0.02320
   3   3  -5  -18.57  131.45   1 0.78042-0.42447-0.50341 0.90511-0.37082 0.02416
   3   3  -5   82.38  175.11   1-0.27751 0.63346-0.07057 0.47258-0.95812 0.61268
  -3  -3   4 1387.92  279.65   1-0.76410 0.42936 0.52504-0.89786 0.37477-0.09735
   3   3  -4  847.52  201.00   1 0.76233-0.42798-0.52611 0.89829-0.37688 0.09942
   3   3  -4 1102.76  236.97   1-0.27094 0.60527-0.03144 0.40424-0.96208 0.68572
  -3  -3   3 2186.44  383.18   1-0.75397 0.44101 0.53763-0.88136 0.37745-0.16939
   3   3  -3 2129.34  271.57   1 0.75204-0.43932-0.53881 0.88180-0.37961 0.17152
   3   3  -3 2198.34  277.83   1-0.25965 0.57236 0.03069 0.31290-0.96521 0.75794
  -3  -3   259141.88 1974.48   1-0.75208 0.46091 0.53993-0.85459 0.37794-0.23923
   3   3  -252930.42 1775.43   1 0.75002-0.45894-0.54125 0.85503-0.38013 0.24140
  -3  -3   193656.84 1527.28   1-0.76012 0.49074 0.53004-0.81561 0.37585-0.30649
   3   3  -187151.96 1351.96   1 0.75800-0.48855-0.53151 0.81610-0.37805 0.30868
  -3  -3   049734.54  942.99   1-0.77969 0.53211 0.50489-0.76138 0.37034-0.37034
   3   3   046942.90  973.90   1 0.77878-0.53093-0.50558 0.76173-0.37131 0.37131
  -3  -3  -127760.22  694.94   1-0.81178 0.58598 0.45991-0.68731 0.35984-0.42919
  -3  -3  -226049.32  641.44   1-0.85569 0.65169 0.38864-0.58696 0.34167-0.48038
  -3  -3  -310980.67  486.26   1-0.90523 0.72179 0.28478-0.45332 0.31535-0.52298
  -3  -3  -4 8386.81  433.14   1-0.95355 0.79153 0.13769-0.27698 0.26789-0.54474
  -3  -3  -620632.26  732.91   1-0.95148 0.83231-0.29191 0.21112 0.09725-0.51252
  -3  -3  -623832.01 1165.01   1-0.18823 0.07056-0.98202 0.90029 0.01432-0.42951
  -3  -3  -7 6450.45  251.61   1-0.83545 0.74122-0.54867 0.49514-0.03109-0.45323
  -3  -3  -7 6882.28  675.85   1-0.21884 0.12282-0.96999 0.91742-0.10592-0.37846
  -3  -3  -815814.37 1839.02   1-0.24279 0.16841-0.94715 0.92375-0.20961-0.34397
  -3  -3  -9  137.22  185.46   1-0.26246 0.20967-0.91722 0.92268-0.29969-0.32355
  -3  -3 -10 5696.97  526.90   1-0.27755 0.24639-0.88260 0.91721-0.37943-0.31306
  -3  -3 -11  241.81  203.09   1-0.28901 0.27998-0.84347 0.90890-0.45279-0.30902
  -3  -3 -12  415.26  233.43   1-0.29850 0.31107-0.80227 0.89697-0.51696-0.31411
   3   4  -8  607.29  304.79   1-0.26926 0.68972-0.02177 0.59673-0.96282 0.41011
  -3  -4   7 -148.78  150.48   1-0.89671 0.49928 0.30447-0.85092 0.32124 0.16324
   3   4  -7    6.87  209.99   1-0.26952 0.66836-0.02324 0.56899-0.96271 0.47909
  -3  -4   6 1110.42  292.72   1-0.87826 0.50225 0.34355-0.86075 0.33259 0.08267
   3   4  -6  899.48  291.33   1-0.26805 0.64527-0.01494 0.53148-0.96328 0.54876
  -3  -4   5  899.46  235.98   1-0.86369 0.50768 0.37409-0.86149 0.33774 0.00903
   3   4  -5  729.18  223.75   1-0.26441 0.62002 0.00518 0.48214-0.96439 0.61895
  -3  -4   442505.85 1461.11   1-0.85244 0.51821 0.39440-0.85271 0.34320-0.06577
   3   4  -440186.32 1059.06   1-0.25789 0.59188 0.03985 0.41827-0.96534 0.68899
  -3  -4   3 1761.06  371.04   1-0.84632 0.53388 0.40499-0.83423 0.34599-0.13792
   3   4  -3 2035.06  319.13   1-0.24738 0.55975 0.09238 0.33654-0.96450 0.75723
  -3  -4   2 7854.21  452.30   1-0.84632 0.55567 0.40499-0.80514 0.34599-0.20728
  -3  -4   1   -2.50   88.52   1-0.85328 0.58443 0.39291-0.76397 0.34280-0.27345
  -3  -4   0 8633.96  792.53   1-0.86768 0.62062 0.36662-0.70860 0.33570-0.33570
  -3  -4  -133860.24  837.13   1-0.88770 0.66166 0.32410-0.63656 0.32700-0.39621
  -3  -4  -2 9685.04  513.27   1-0.91484 0.71022 0.26103-0.54424 0.30809-0.44651
  -3  -4  -355175.31 1010.03   1-0.94405 0.76085 0.17400-0.42797 0.28015-0.48779
  -3  -4  -417953.67  741.51   1-0.96878 0.80701 0.05998-0.28470 0.24051-0.51736
  -3  -4  -5131461.8 3948.75   1-0.97901 0.83866-0.08188-0.11358 0.18660-0.53267
  -3  -4  -6  166.19  130.18   1-0.96162 0.84270-0.24823 0.08201 0.11682-0.53209
  -3  -4  -6   16.66  137.09   1-0.14266 0.02560-0.97431 0.80723 0.17425-0.58968
  -3  -4  -711014.04  392.84   1-0.89950 0.80613-0.43605 0.29715 0.02737-0.51170
  -3  -4  -712474.52 1345.99   1-0.18012 0.08470-0.98267 0.84477 0.04371-0.52838
  -3  -4  -8  617.38  143.24   1-0.78379 0.71215-0.61706 0.50861-0.06995-0.48387
  -3  -4  -8 1404.40  224.45   1-0.21061 0.13667-0.97488 0.86591-0.07243-0.48115
  -3  -4  -9 3190.04  640.95   1-0.23539 0.18308-0.95574 0.87594-0.17646-0.44632
  -3  -4 -10 4428.95  769.86   1-0.25550 0.22484-0.92856 0.87791-0.26924-0.42274
  -3  -4 -11  124.80  206.07   1-0.27260 0.26348-0.89530 0.87345-0.35229-0.40945
  -3  -4 -12 2088.63  475.89   1-0.28583 0.29835-0.85765 0.86494-0.42745-0.40354
  -3  -4 -13  575.91  306.53   1-0.29582 0.33059-0.81521 0.85367-0.49791-0.40242
   3   5  -7  119.31  206.65   1-0.25619 0.65469 0.04861 0.58245-0.96540 0.48178
  -3  -5   6 4451.23 1160.99   1-0.92921 0.55345 0.22162-0.82424 0.29569 0.11957
   3   5  -6 5370.36  591.61   1-0.25469 0.63157 0.05627 0.54559-0.96538 0.55085
  -3  -5   5 2497.27  614.54   1-0.91861 0.56428 0.25118-0.82456 0.30503 0.04102
   3   5  -5 3615.66  524.07   1-0.25109 0.60635 0.07431 0.49834-0.96510 0.61966
  -3  -5   442341.83 2003.98   1-0.91079 0.57787 0.27126-0.81539 0.31123-0.03438
  -3  -5   342457.64 1215.85   1-0.90652 0.59503 0.28169-0.79657 0.31441-0.10677
  -3  -5   220890.43 1732.42   1-0.90644 0.61638 0.28188-0.76751 0.31447-0.17604
  -3  -5   1   27.56   83.85   1-0.91094 0.64230 0.27088-0.72727 0.31112-0.24191
  -3  -5   0 1944.63  325.38   1-0.92003 0.67281 0.24739-0.67452 0.30385-0.30385
  -3  -5  -136166.11 1376.87   1-0.93317 0.70737 0.20975-0.60764 0.29188-0.36109
  -3  -5  -2  191.33  142.98   1-0.94891 0.74454 0.15616-0.52480 0.27417-0.41259
  -3  -5  -334027.34 1249.91   1-0.96466 0.78171 0.08486-0.42426 0.24945-0.45709
  -3  -5  -4 4197.84  313.49   1-0.97630 0.81477-0.00533-0.30481 0.21632-0.49317
  -3  -5  -516854.15  724.50   1-0.97815 0.83805-0.11445-0.16644 0.17351-0.51957
  -3  -5  -6  383.59  147.24   1-0.96315 0.84447-0.24057-0.01107 0.12019-0.53547
  -3  -5  -7 8196.89  404.64   1-0.92358 0.82633-0.37921 0.15681 0.05642-0.54091
  -3  -5  -7 8886.09 1237.23   1-0.14273 0.04777-0.97434 0.75090 0.17401-0.65868
  -3  -5  -8 1547.67  207.84   1-0.84843 0.77753-0.52889 0.33356-0.02044-0.53307
  -3  -5  -8 1751.32  452.50   1-0.17776 0.10445-0.98268 0.78841 0.05229-0.60620
  -3  -5  -9   62.98  139.28   1-0.73705 0.68794-0.66832 0.50365-0.10050-0.52255
  -3  -5  -9  314.96  204.84   1-0.20724 0.15537-0.97651 0.81114-0.05896-0.56382
  -3  -5 -10 1872.38  408.33   1-0.23187 0.20165-0.95930 0.82310-0.16111-0.53087
  -3  -5 -11 2038.15  479.60   1-0.25233 0.24375-0.93370 0.82665-0.25401-0.50717
  -3  -5 -12  604.01  271.74   1-0.27001 0.28294-0.90137 0.82305-0.33854-0.49245
  -3  -5 -13  -19.69  218.14   1-0.28389 0.31845-0.86399 0.81481-0.41583-0.48441
  -3  -6   6  118.01  195.96   1-0.96026 0.58474 0.10767-0.79572 0.25750 0.15777
  -3  -6   513228.08  764.62   1-0.95353 0.59944 0.13778-0.79659 0.26792 0.07813
  -3  -6   412088.87  801.02   1-0.94830 0.61564 0.15846-0.78802 0.27494 0.00190
  -3  -6   3 1211.49  344.49   1-0.94524 0.63400 0.16974-0.77005 0.27873-0.07109
  -3  -6   221494.03  876.50   1-0.94480 0.65498 0.17134-0.74240 0.27926-0.14084
  -3  -6   1  768.93  306.29   1-0.94717 0.67878 0.16270-0.70451 0.27637-0.20716
  -3  -6   0 4700.18  447.48   1-0.95225 0.70527 0.14304-0.65561 0.26972-0.26972
  -3  -6  -145850.09 1466.68   1-0.95947 0.73392 0.11145-0.59476 0.25882-0.32803
  -3  -6  -2 9456.78 1323.08   1-0.96770 0.76358 0.06692-0.52099 0.24302-0.38145
  -3  -6  -323800.00 1018.51   1-0.97510 0.79239 0.00862-0.43344 0.22158-0.42922
  -3  -6  -4 1669.75  280.23   1-0.97897 0.81769-0.06396-0.33160 0.19369-0.47054
  -3  -6  -5  527.89  169.61   1-0.97577 0.83591-0.15065-0.21567 0.15864-0.50470
  -3  -6  -6 6232.13  426.50   1-0.96121 0.84278-0.25025-0.08682 0.11593-0.53120
  -3  -6  -7 4752.93  415.81   1-0.93054 0.83353-0.36027 0.05244 0.06548-0.54997
  -3  -6  -8 3171.49  323.60   1-0.87545 0.80543-0.48328 0.20257 0.00347-0.55699
  -3  -6  -8 3592.51  400.14   1-0.14693 0.07407-0.97612 0.69631 0.15999-0.71389
  -3  -6  -9 2239.92  284.67   1-0.79695 0.74870-0.60097 0.35098-0.06070-0.56236
  -3  -6  -9 2430.39  473.84   1-0.17952 0.12830-0.98268 0.73206 0.04590-0.66904
  -3  -6 -10  121.76  185.63   1-0.69027 0.66351-0.71209 0.49133-0.12820-0.56421
  -3  -6 -10  182.35  130.04   1-0.20759 0.17780-0.97635 0.75459-0.06034-0.63164
  -3  -6 -11  302.12  183.61   1-0.23155 0.22340-0.95962 0.76701-0.15971-0.60147
  -3  -6 -12  791.73  237.95   1-0.25181 0.26530-0.93451 0.77106-0.25154-0.57884
  -3  -7   5  347.01  232.29   1-0.97248 0.61864 0.03291-0.77714 0.23062 0.11543
  -3  -7   4   90.13  188.71   1-0.96955 0.63713 0.05481-0.76980 0.23864 0.03820
  -3  -7   3 5314.88  614.28   1-0.96758 0.65659 0.06766-0.75340 0.24329-0.03565
  -3  -7   2 5570.63  537.65   1-0.96698 0.67740 0.07141-0.72789 0.24464-0.10621
  -3  -7   1 6363.26  605.02   1-0.96788 0.69973 0.06579-0.69303 0.24261-0.17340
  -3  -7   014678.93  736.73   1-0.97019 0.72346 0.05039-0.64839 0.23703-0.23703
  -3  -7  -131071.82  970.17   1-0.97344 0.74814 0.02471-0.59345 0.22759-0.29680
  -3  -7  -2 1541.41  275.31   1-0.97678 0.77290-0.01177-0.52772 0.21388-0.35230
  -3  -7  -310849.79  628.29   1-0.97890 0.79645-0.05948-0.45075 0.19545-0.40309
  -3  -7  -4 7369.49  524.21   1-0.97796 0.81692-0.11861-0.36238 0.17182-0.44867
  -3  -7  -5 2364.28  336.87   1-0.97158 0.83197-0.18893-0.26281 0.14254-0.48860
  -3  -7  -617013.65  709.48   1-0.95696 0.83877-0.26964-0.15286 0.10729-0.52257
  -3  -7  -7  441.39  238.52   1-0.93091 0.83415-0.35921-0.03403 0.06598-0.55047
  -3  -7  -8 1485.75  287.76   1-0.88669 0.81754-0.46213 0.09605 0.01428-0.56780
  -3  -7  -9 4316.84  389.74   1-0.82714 0.77958-0.56072 0.22358-0.03767-0.58503
  -3  -7  -9 4535.94 1083.56   1-0.15396 0.10320-0.97864 0.64248 0.13616-0.75931
  -3  -7 -10  181.75  153.41   1-0.74584 0.72011-0.65930 0.35309-0.09500-0.59728
  -3  -7 -10  298.81  198.80   1-0.18421 0.15486-0.98244 0.67512 0.02927-0.72126
  -3  -7 -11 2047.19  494.18   1-0.21078 0.20307-0.97479 0.69663-0.07310-0.68808
  -3  -7 -12  111.34  303.70   1-0.23379 0.24772-0.95740 0.70839-0.16947-0.66091
  -3  -8   4  143.19  216.53   1-0.97838 0.64621-0.04086-0.75954 0.20271 0.07413
  -3  -8   3  108.50  288.66   1-0.97769 0.66694-0.02605-0.74511 0.20842-0.00079
  -3  -8   2  239.41  251.90   1-0.97732 0.68799-0.01982-0.72209 0.21081-0.07239
  -3  -8   1 3510.64  513.05   1-0.97747 0.70956-0.02221-0.69045 0.20989-0.14068
  -3  -8   0  -11.24  217.79   1-0.97806 0.73158-0.03341-0.65000 0.20559-0.20559
  -3  -8  -1  600.91  257.91   1-0.97878 0.75372-0.05364-0.60052 0.19774-0.26695
  -3  -8  -2  494.70  230.74   1-0.97900 0.77537-0.08317-0.54174 0.18609-0.32451
  -3  -8  -3  285.45  221.41   1-0.97777 0.79556-0.12219-0.47348 0.17036-0.37800
  -3  -8  -4 4725.20  461.21   1-0.97379 0.81301-0.17070-0.39571 0.15025-0.42710
  -3  -8  -517989.08  811.45   1-0.96541 0.82605-0.22851-0.30866 0.12548-0.47154
  -3  -8  -615091.31  732.52   1-0.95066 0.83273-0.29502-0.21290 0.09583-0.51110
  -3  -8  -7 8937.39  562.91   1-0.92731 0.83080-0.36923-0.10944 0.06121-0.54570
  -3  -8  -8   13.90  135.67   1-0.88950 0.82121-0.45661 0.00516 0.01707-0.57059
  -3  -8  -9   88.24  166.23   1-0.84092 0.79423-0.54048 0.11797-0.02666-0.59604
  -3  -8 -10 1555.84  323.80   1-0.77602 0.75115-0.62619 0.23465-0.07528-0.61701
  -3  -8 -10 1430.22  412.72   1-0.16302 0.13435-0.98103 0.58851 0.10486-0.79724
  -3  -8 -11 4423.10 1108.77   1-0.19115 0.18388-0.98155 0.61783 0.00331-0.76450
  -3  -8 -12  595.64  251.12   1-0.21617 0.23053-0.97172 0.63716-0.09494-0.73543
  -3  -9   2  290.41  229.06   1-0.97856 0.68948-0.10410-0.72323 0.17770-0.03927
  -3  -9   1 1238.67  405.38   1-0.97858 0.71093-0.10330-0.69479 0.17802-0.10881
  -3  -9   0  -44.19  206.29   1-0.97832 0.73209-0.11053-0.65831 0.17510-0.17510
  -3  -9  -1  141.12  212.67   1-0.97757 0.75276-0.12586-0.61373 0.16886-0.23807
  -3  -9  -2 1557.96  397.11   1-0.97588 0.77249-0.14938-0.56096 0.15917-0.29759
  -3  -9  -3   -1.81  214.09   1-0.97258 0.79061-0.18113-0.49996 0.14585-0.35349
  -3  -9  -4 3318.31  453.67   1-0.96672 0.80618-0.22107-0.43078 0.12872-0.40557
  -3  -9  -5 2792.01  494.83   1-0.95711 0.81800-0.26896-0.35363 0.10760-0.45366
  -3  -9  -6  959.00  275.42   1-0.94233 0.82464-0.32438-0.26897 0.08233-0.49761
  -3  -9  -7  170.69  166.54   1-0.92073 0.82446-0.38659-0.17751 0.05286-0.53735
  -3  -9  -8 7594.80  603.82   1-0.88695 0.81954-0.46162-0.07520 0.01453-0.56805
  -3  -9  -9   12.10  166.76   1-0.84553 0.79971-0.53343 0.02554-0.02287-0.59983
  -3  -9 -1023636.28  989.65   1-0.79140 0.76739-0.60785 0.13099-0.06464-0.62764
  -3  -9 -1025136.22 1137.68   1-0.14471 0.11650-0.97520 0.49714 0.16742-0.85981
  -3  -9 -1111581.99 1032.21   1-0.17357 0.16701-0.98250 0.53362 0.06744-0.82906
  -3 -10   0 2365.88  471.30   1-0.97240 0.72642-0.18255-0.67172 0.14525-0.14525
  -3 -10  -1  572.09  356.00   1-0.97097 0.74641-0.19348-0.63154 0.14060-0.20981
  -3 -10  -2  577.88  280.49   1-0.96826 0.76512-0.21177-0.58399 0.13274-0.27117
  -3 -10  -3  121.57  182.36   1-0.96377 0.78205-0.23739-0.52913 0.12159-0.32923
  -3 -10  -4  106.77  204.72   1-0.95683 0.79653-0.27021-0.46706 0.10704-0.38389
  -3 -10  -5 1429.39  415.96   1-0.94655 0.80768-0.31004-0.39799 0.08896-0.43502
  -3 -10  -6  -28.78  177.28   1-0.93186 0.81442-0.35650-0.32227 0.06727-0.48254
  -3 -10  -7  406.63  278.81   1-0.91154 0.81552-0.40906-0.24047 0.04190-0.52639
  -3 -10  -8 1819.63  398.76   1-0.88047 0.81393-0.47402-0.14817 0.00822-0.56174
  -3 -10  -9 4391.61  609.93   1-0.84397 0.79902-0.53583-0.05742-0.02416-0.59854
  -3 -10 -10 5632.66  687.13   1-0.79730 0.77414-0.60053 0.03834-0.06045-0.63184
  -3 -11  -2  719.51  344.26   1-0.95657 0.75368-0.27132-0.60988 0.10654-0.24496
  -3 -11  -3 1339.29  438.79   1-0.95155 0.77008-0.29165-0.56030 0.09736-0.30500
  -3 -11  -4  255.50  232.31   1-0.94410 0.78406-0.31847-0.50423 0.08507-0.36192
  -3 -11  -5 1120.38  428.18   1-0.93357 0.79494-0.35156-0.44189 0.06961-0.41567
  -3 -11  -6  536.91  247.38   1-0.91913 0.80194-0.39063-0.37358 0.05090-0.46618
  -3 -11  -7  224.08  232.75   1-0.89649 0.80923-0.44238-0.29413 0.02421-0.50854
  -3 -11  -8 -150.26  215.38   1-0.87070 0.80503-0.49180-0.21577-0.00092-0.55259
  -3 -11  -9  -52.94  225.06   1-0.83778 0.79370-0.54521-0.13341-0.02922-0.59348
   4 -10  -5  320.29  334.34   1-0.53538 0.98360-0.81941 0.11187-0.20473-0.14147
   4 -10  -4  152.67  357.32   1-0.56761 0.99416-0.80098 0.06433-0.19035-0.08661
   4 -10  -3 4000.26  602.14   1-0.59449 0.99938-0.78419 0.01843-0.17779-0.02993
   4 -10  -2 2431.47  506.82   1-0.61603 0.99926-0.76973-0.02513-0.16733 0.02885
   4 -10  -1   61.41  263.01   1-0.63220 0.99377-0.75826-0.06571-0.15923 0.08999
   4 -10   0  899.15  482.79   1-0.64284 0.98275-0.75039-0.10268-0.15378 0.15378
   4  -9  -7  738.51  399.22   1-0.43190 0.92258-0.86755 0.30353-0.24658-0.23811
   4  -9  -6  -65.33  219.29   1-0.47981 0.94883-0.84723 0.25410-0.22798-0.18747
   4  -9  -5 1265.12  361.78   1-0.52210 0.96945-0.82650 0.20427-0.21047-0.13574
   4  -9  -4 4967.93  553.42   1-0.55878 0.98447-0.80621 0.15487-0.19436-0.08260
   4  -9  -3  528.78  299.10   1-0.58986 0.99390-0.78718 0.10673-0.17999-0.02773
   4  -9  -2  -68.98  245.38   1-0.61536 0.99773-0.77020 0.06064-0.16767 0.02918
   4  -9  -1  461.08  382.23   1-0.63521 0.99592-0.75606 0.01739-0.15770 0.08846
   4  -9   0  -62.08  234.50   1-0.64932 0.98837-0.74548-0.02228-0.15042 0.15042
   4  -9   1 1115.40  372.49   1-0.65743 0.97482-0.73920-0.05768-0.14615 0.21539
   4  -9   2 8127.39  643.81   1-0.65911 0.95484-0.73787-0.08811-0.14525 0.28374
   4  -8  -9 8329.95  770.92   1-0.27430 0.80745-0.91377 0.49328-0.29962-0.32356
   4  -8  -8 1717.27  487.67   1-0.33889 0.85037-0.89841 0.44881-0.27929-0.27464
   4  -8  -7   66.54  190.83   1-0.39784 0.88767-0.88011 0.40140-0.25905-0.22563
   4  -8  -6  494.58  336.53   1-0.45111 0.91927-0.85979 0.35197-0.23927-0.17617
   4  -8  -5  782.84  405.98   1-0.49864 0.94514-0.83833 0.30141-0.22031-0.12589
   4  -8  -4 2082.27  380.61   1-0.54037 0.96521-0.81667 0.25064-0.20255-0.07441
   4  -8  -3  -48.03  196.13   1-0.57626 0.97944-0.79572 0.20058-0.18636-0.02135
   4  -8  -2 -119.38  228.61   1-0.60626 0.98778-0.77640 0.15215-0.17212 0.03364
   4  -8  -1 1170.62  353.66   1-0.63031 0.99016-0.75963 0.10627-0.16019 0.09095
   4  -8   0 3716.36  436.58   1-0.64828 0.98647-0.74628 0.06381-0.15096 0.15096
   4  -8   1 1174.77  453.18   1-0.65995 0.97648-0.73721 0.02564-0.14481 0.21405
   4  -8   2  756.24  284.51   1-0.66491 0.95978-0.73326-0.00741-0.14216 0.28064
   4  -8   3  497.42  335.49   1-0.66245 0.93565-0.73523-0.03455-0.14348 0.35120
  -4   8  -4  356.72  303.43   1-0.25106 0.00294 0.07445 0.72499-0.96510 0.68875
   4  -7  -9 2054.91  410.95   1-0.21573 0.74802-0.92373 0.58855-0.31649-0.30669
   4  -7  -8  188.48  226.51   1-0.28575 0.79638-0.91139 0.54710-0.29615-0.25778
   4  -7  -7 2551.88  395.21   1-0.35034 0.83931-0.89518 0.50178-0.27549-0.20920
   4  -7  -6  955.57  309.26   1-0.40935 0.87665-0.87604 0.45353-0.25490-0.16054
   4  -7  -5 1126.70  300.62   1-0.46262 0.90827-0.85489 0.40327-0.23480-0.11140
   4  -7  -436637.71 1170.58   1-0.51000 0.93398-0.83271 0.35198-0.21558-0.06137
   4  -7  -3  304.29  326.64   1-0.55135 0.95367-0.81050 0.30067-0.19770-0.01002
   4  -7  -2 4493.15  473.80   1-0.58653 0.96719-0.78931 0.25036-0.18157 0.04308
   4  -7  -1  485.34  239.40   1-0.61540 0.97440-0.77017 0.20212-0.16764 0.09840
   4  -7   076138.55 1529.99   1-0.63780 0.97513-0.75415 0.15699-0.15638 0.15638
   4  -7   1  756.73  370.79   1-0.65346 0.96914-0.74229 0.11602-0.14824 0.21749
   4  -7   2  268.06  143.03   1-0.66197 0.95598-0.73561 0.08023-0.14373 0.28221
  -4   7  -2  435.65  196.34   1-0.24702-0.04398 0.09413 0.56158-0.96442 0.82624
   4  -7   3 2358.97  367.68   1-0.66260 0.93495-0.73511 0.05062-0.14339 0.35112
  -4   7  -3 2671.14  426.57   1-0.25926-0.01012 0.03272 0.65219-0.96525 0.75798
   4  -7   4  -68.12  201.61   1-0.65412 0.90481-0.74178 0.02819-0.14790 0.42487
  -4   7  -4  116.14  189.48   1-0.26755 0.01978-0.01215 0.72628-0.96346 0.68711
  -4   7  -5  317.49  320.78   1-0.27299 0.04683-0.04333 0.78666-0.96103 0.61560
  -4   7  -6 1265.97  482.19   1-0.27630 0.07176-0.06317 0.83570-0.95899 0.54446
   4  -6 -10  575.65  324.26   1-0.06091 0.61429-0.93305 0.71308-0.35454-0.33785
   4  -6  -9  663.21  357.18   1-0.14175 0.67318-0.93121 0.68133-0.33578-0.28739
   4  -6  -8 3253.24  446.67   1-0.21683 0.72661-0.92358 0.64460-0.31618-0.23775
   4  -6  -7 3747.84  467.42   1-0.28690 0.77501-0.91114 0.60305-0.29580-0.18889
   4  -6  -6  296.85  191.74   1-0.35170 0.81815-0.89479 0.55759-0.27504-0.14041
   4  -6  -520116.00  881.29   1-0.41097 0.85575-0.87545 0.50914-0.25432-0.09189
   4  -6  -4 3298.12  466.02   1-0.46443 0.88756-0.85410 0.45869-0.23409-0.04287
   4  -6  -3 1693.08  456.47   1-0.51181 0.91327-0.83180 0.40727-0.21483 0.00710
   4  -6  -2 1047.02  289.12   1-0.55283 0.93264-0.80965 0.35602-0.19703 0.05855
   4  -6  -1 5813.09  510.74   1-0.58724 0.94538-0.78886 0.30611-0.18123 0.11199
   4  -6   096367.07 1633.92   1-0.61473 0.95121-0.77063 0.25878-0.16797 0.16797
   4  -6   161092.31 1236.73   1-0.63496 0.94978-0.75624 0.21528-0.15783 0.22707
   4  -6   222787.48  743.27   1-0.64740 0.94056-0.74694 0.17688-0.15142 0.28990
  -4   6  -223827.64  814.24   1-0.26393-0.02673 0.00783 0.56254-0.96450 0.82633
   4  -6   3  993.63  236.06   1-0.65126 0.92275-0.74400 0.14482-0.14940 0.35713
  -4   6  -3  651.81  226.16   1-0.27567 0.00662-0.05936 0.65895-0.95941 0.75215
   4  -6   4 6742.91  439.63   1-0.64513 0.89497-0.74867 0.12038-0.15260 0.42957
  -4   6  -4 6907.38  500.76   1-0.28317 0.03574-0.10652 0.73531-0.95313 0.67678
  -4   6  -5 2252.46  394.34   1-0.28781 0.06200-0.13788 0.79588-0.94770 0.60226
  -4   6  -6  906.60  284.46   1-0.29047 0.08628-0.15675 0.84395-0.94395 0.52942
  -4   6  -7  717.38  325.77   1-0.29120 0.10895-0.16555 0.88191-0.94222 0.45865
   4  -5 -10  -91.58  192.04   1 0.03297 0.51949-0.92724 0.79253-0.37300-0.31940
   4  -5  -9  357.87  259.04   1-0.05031 0.58116-0.93282 0.76895-0.35680-0.26636
   4  -5  -8  539.66  248.49   1-0.13036 0.63927-0.93187 0.73819-0.33855-0.21537
   4  -5  -710067.35  632.16   1-0.20509 0.69234-0.92515 0.70237-0.31940-0.16529
   4  -5  -6 4197.99  453.69   1-0.27512 0.74071-0.91360 0.66171-0.29937-0.11607
   4  -5  -5 6410.82  502.07   1-0.34008 0.78401-0.89808 0.61708-0.27890-0.06730
   4  -5  -4 1475.36  349.47   1-0.39957 0.82184-0.87951 0.56940-0.25843-0.01853
   4  -5  -3  829.66  230.87   1-0.45318 0.85378-0.85892 0.51970-0.23847 0.03075
   4  -5  -2   86.27  159.32   1-0.50044 0.87939-0.83745 0.46913-0.21957 0.08108
   4  -5  -1 6971.82  451.98   1-0.54092 0.89820-0.81637 0.41894-0.20231 0.13307
   4  -5   027646.57 1010.71   1-0.57410 0.90973-0.79705 0.37050-0.18736 0.18736
   4  -5   1164360.5 4005.11   1-0.59944 0.91340-0.78095 0.32530-0.17542 0.24466
  -4   5  -1166484.9 4009.00   1-0.26282-0.04912 0.01382 0.44202-0.96474 0.89565
   4  -5   252460.08 1545.06   1-0.61619 0.90850-0.76962 0.28486-0.16725 0.30574
  -4   5  -253582.26 1592.92   1-0.28079-0.00952-0.09114 0.57620-0.95542 0.81725
   4  -5   3 7730.52  463.23   1-0.62330 0.89394-0.76465 0.25078-0.16372 0.37145
  -4   5  -3 8212.29  519.83   1-0.29134 0.02263-0.16304 0.67729-0.94262 0.73535
   4  -5   4 1073.77  241.01   1-0.61901 0.86799-0.76766 0.22468-0.16586 0.44283
  -4   5  -4  411.85  189.29   1-0.29698 0.05009-0.21045 0.75390-0.93140 0.65507
   4  -5   5 2761.69  290.60   1-0.60027 0.82759-0.78040 0.20831-0.17502 0.52123
  -4   5  -5 3256.92  414.95   1-0.30048 0.07525-0.24017 0.81281-0.92305 0.57764
  -4   5  -6  510.48  275.28   1-0.30228 0.09871-0.25646 0.85829-0.91806 0.50357
  -4   5  -7  329.35  250.29   1-0.30292 0.12101-0.26240 0.89342-0.91617 0.43260
  -4   5  -8  181.94  233.55   1-0.30268 0.14242-0.26013 0.92034-0.91690 0.36424
   4  -4 -10  -79.10  167.99   1 0.14132 0.41024-0.90986 0.86041-0.39008-0.30231
   4  -4  -9  161.34  219.01   1 0.05660 0.47333-0.92443 0.84582-0.37711-0.24604
   4  -4  -8 7239.07  603.51   1-0.02471 0.53303-0.93182 0.82405-0.36206-0.19186
   4  -4  -7  714.73  241.10   1-0.10240 0.58909-0.93288 0.79595-0.34531-0.13936
   4  -4  -6  422.34  187.26   1-0.17703 0.64177-0.92834 0.76176-0.32685-0.08859
   4  -4  -5 1024.52  277.05   1-0.24640 0.68948-0.91897 0.72328-0.30783-0.03837
   4  -4  -4 1557.18  257.40   1-0.31092 0.73233-0.90564 0.68084-0.28832 0.01135
   4  -4  -3 2917.80  331.88   1-0.37003 0.76979-0.88927 0.63536-0.26881 0.06108
   4  -4  -2  540.88  188.94   1-0.42312 0.80121-0.87094 0.58792-0.24985 0.11137
   4  -4  -1 4756.09  393.01   1-0.46948 0.82591-0.85188 0.53976-0.23210 0.16285
   4  -4   080447.53 2581.45   1-0.50835 0.84311-0.83354 0.49231-0.21628 0.21628
   4  -4   1 7947.76  427.05   1-0.53881 0.85191-0.81754 0.44719-0.20324 0.27248
  -4   4  -1 7294.26  353.69   1-0.28087-0.03072-0.09162 0.46214-0.95536 0.88627
   4  -4   211731.92  578.74   1-0.55971 0.85116-0.80566 0.40621-0.19394 0.33242
  -4   4  -211540.27  520.99   1-0.29673 0.00686-0.20845 0.60818-0.93193 0.79376
   4  -4   3 1554.19  224.49   1-0.56945 0.83924-0.79987 0.37131-0.18951 0.39723
  -4   4  -3 1553.59  260.53   1-0.30493 0.03672-0.28184 0.71077-0.90971 0.70246
   4  -4   4  447.85  191.48   1-0.56548 0.81360-0.80226 0.34459-0.19132 0.46829
  -4   4  -4  119.68  156.29   1-0.30910 0.06254-0.32641 0.78453-0.89325 0.61692
   4  -4   515491.44  484.30   1-0.54324 0.76970-0.81508 0.32830-0.20129 0.54750
  -4   4  -516217.34  702.32   1-0.31126 0.08658-0.35117 0.83880-0.88305 0.53750
  -4   4  -6 9666.23  626.23   1-0.31213 0.10911-0.36252 0.87936-0.87815 0.46348
  -4   4  -7  303.58  201.73   1-0.31222 0.13086-0.36377 0.90982-0.87759 0.39382
  -4   4  -8  264.35  235.40   1-0.31173 0.15203-0.35726 0.93251-0.88044 0.32755
  -4   4  -9 -107.66  218.46   1-0.31073 0.17268-0.34451 0.94897-0.88586 0.26386
   4  -3 -10  318.31  242.24   1 0.26058 0.28915-0.87689 0.91264-0.40391-0.28891
   4  -3  -9  585.02  265.24   1 0.17783 0.35119-0.90138 0.90802-0.39480-0.22835
   4  -3  -8   52.43  144.44   1 0.09698 0.41041-0.91837 0.89585-0.38364-0.17027
   4  -3  -7 1380.88  282.14   1 0.01902 0.46676-0.92864 0.87697-0.37047-0.11421
   4  -3  -6 8913.61  613.54   1-0.05575 0.51990-0.93295 0.85212-0.35565-0.05979
   4  -3  -529917.73 1103.28   1-0.12777 0.56999-0.93200 0.82161-0.33918-0.00702
   4  -3  -4  580.83  297.60   1-0.19483 0.61538-0.92641 0.78692-0.32216 0.04519
   4  -3  -312244.82  543.76   1-0.25713 0.65603-0.91707 0.74847-0.30471 0.09699
   4  -3  -222740.59  931.67   1-0.31391 0.69115-0.90491 0.70720-0.28737 0.14889
   4  -3  -1117039.6 3605.03   1-0.36425 0.71983-0.89105 0.66424-0.27079 0.20155
   4  -3   0 2185.32  234.22   1-0.40704 0.74095-0.87687 0.62094-0.25574 0.25574
  -4   3   0 2191.85  167.57   1-0.26552-0.06735-0.00084 0.25683-0.96410 0.96410
   4  -3   1 6706.59  371.07   1-0.44086 0.75311-0.86399 0.57896-0.24320 0.31244
  -4   3  -1 6627.12  276.54   1-0.29933-0.01186-0.23015 0.51535-0.92597 0.85689
   4  -3   2 1570.72  219.69   1-0.46384 0.75443-0.85436 0.54022-0.23432 0.37280
  -4   3  -2 1560.86  186.14   1-0.31142 0.02208-0.35327 0.66787-0.88216 0.74394
   4  -3   311387.87  409.99   1-0.47329 0.74221-0.85018 0.50693-0.23059 0.43831
  -4   3  -311622.90  449.35   1-0.31585 0.04816-0.42026 0.76407-0.85065 0.64332
   4  -3   4  873.17  143.96   1-0.46479 0.71205-0.85395 0.48159-0.23395 0.51092
  -4   3  -4  963.82  218.60   1-0.31752 0.07150-0.45563 0.82866-0.83160 0.55516
   4  -3   5  835.44  164.81   1-0.42999 0.65560-0.86830 0.46683-0.24729 0.59350
  -4   3  -5  939.79  215.95   1-0.31812 0.09376-0.47178 0.87401-0.82232 0.47676
  -4   3  -6 1075.67  291.35   1-0.31824 0.11553-0.47528 0.90672-0.82026 0.40559
  -4   3  -7 4389.56  481.76   1-0.31806 0.13701-0.46986 0.93051-0.82344 0.33967
  -4   3  -8  817.12  310.42   1-0.31760 0.15821-0.45774 0.94759-0.83041 0.27753
  -4   3  -9  904.84  309.63   1-0.31685 0.17912-0.44028 0.95934-0.84008 0.21809
  -4   3 -10 5273.14  620.59   1-0.31574 0.19967-0.41835 0.96662-0.85163 0.16052
   4  -2  -9  723.23  298.96   1 0.30848 0.21918-0.85945 0.95149-0.40764-0.21589
   4  -2  -8  -20.59  142.75   1 0.23112 0.27493-0.88638 0.94918-0.40113-0.15313
   4  -2  -7   90.59  143.49   1 0.15665 0.32822-0.90647 0.94005-0.39213-0.09255
   4  -2  -6 6557.25  576.91   1 0.08443 0.37881-0.92042 0.92485-0.38168-0.03376
   4  -2  -6 5357.93  277.25   1-0.31799 0.78028-0.46788 0.47234-0.82459 0.40993
   4  -2  -5 7056.86  514.73   1 0.01529 0.42632-0.92899 0.90426-0.36978 0.02358
   4  -2  -5 6650.05  244.73   1-0.31786 0.75849-0.46431 0.43955-0.82666 0.48111
   4  -2  -4  187.19  160.78   1-0.05020 0.47020-0.93282 0.87893-0.35682 0.07986
   4  -2  -312393.87  508.34   1-0.11137 0.50975-0.93262 0.84958-0.34323 0.13551
   4  -2  -2 1576.71  221.62   1-0.16814 0.54452-0.92918 0.81678-0.32915 0.19066
   4  -2  -130677.61  728.26   1-0.21772 0.57244-0.92345 0.78195-0.31594 0.24669
   4  -2   082306.00 1280.38   1-0.25935 0.59241-0.91666 0.74604-0.30406 0.30406
  -4   2   090302.24  984.84   1-0.29046-0.04206-0.15668 0.32733-0.94397 0.94397
   4  -2   1  283.03  221.87   1-0.29089 0.60228-0.91027 0.71055-0.29457 0.36382
  -4   2  -1  184.44   62.71   1-0.31637 0.00568-0.43033 0.63034-0.84540 0.77629
   4  -2   220104.69  761.97   1-0.30921 0.59894-0.90605 0.67722-0.28886 0.42735
  -4   2  -220172.87  744.19   1-0.31952 0.03063-0.53594 0.76523-0.78144 0.64302
   4  -2   331276.24 1060.17   1-0.30936 0.57743-0.90602 0.64807-0.28882 0.49654
  -4   2  -332370.30 1135.97   1-0.31935 0.05216-0.58088 0.83934-0.74872 0.54108
   4  -2   4 5223.15  238.69   1-0.28245 0.52886-0.91209 0.62504-0.29716 0.57413
  -4   2  -4 5441.12  329.09   1-0.31902 0.07352-0.59807 0.88571-0.73520 0.45835
   4  -2   5 7189.82  243.93   1-0.20891 0.43366-0.92466 0.60850-0.31836 0.66457
  -4   2  -5 8700.84  457.59   1-0.31897 0.09517-0.60012 0.91694-0.73356 0.38750
  -4   2  -6  250.10  151.16   1-0.31914 0.11705-0.59271 0.93871-0.73948 0.32421
  -4   2  -7 1132.85  248.22   1-0.31939 0.13899-0.57875 0.95393-0.75035 0.26587
  -4   2  -8 2235.66  390.58   1-0.31956 0.16087-0.55984 0.96420-0.76449 0.21080
  -4   2  -9 1486.79  346.09   1-0.31953 0.18254-0.53690 0.97043-0.78078 0.15788
  -4   2 -10  242.98  211.82   1-0.31920 0.20391-0.51048 0.97319-0.79844 0.10632
  -4   2 -11  284.08  248.62   1-0.31841 0.22431-0.48078 0.97286-0.81698 0.05676
   4  -1  -9   63.22  140.82   1 0.44264 0.08456-0.79622 0.97379-0.41242-0.21112
   4  -1  -8 1169.48  290.47   1 0.37199 0.13361-0.83228 0.98062-0.41100-0.14326
   4  -1  -7  920.41  310.10   1 0.30348 0.18051-0.86139 0.98050-0.40730-0.07767
   4  -1  -7  820.60  203.35   1-0.30971 0.79350-0.33361 0.45261-0.89037 0.40680
   4  -1  -6   10.76  140.79   1 0.23749 0.22489-0.88441 0.97428-0.40176-0.01393
   4  -1  -6   24.02   90.63   1-0.30949 0.77163-0.33107 0.42088-0.89140 0.47690
   4  -1  -516292.37  756.79   1 0.17457 0.26614-0.90220 0.96272-0.39440 0.04820
   4  -1  -514396.60  500.33   1-0.30680 0.74727-0.30098 0.36159-0.90292 0.55751
   4  -1  -419730.05  882.30   1 0.11536 0.30372-0.91508 0.94645-0.38640 0.10944
   4  -1  -418975.13  650.53   1-0.29698 0.71579-0.21048 0.24190-0.93139 0.65506
   4  -1  -3 4477.57  360.10   1 0.06071 0.33675-0.92389 0.92610-0.37780 0.17008
   4  -1  -251486.31 1013.36   1 0.01177 0.36406-0.92930 0.90236-0.36913 0.23064
   4  -1  -135071.50  883.90   1-0.02987 0.38408-0.93207 0.87597-0.36102 0.29178
  -4   1   020022.58  617.10   1-0.31958-0.01246-0.55386 0.63933-0.76882 0.76882
  -4   1  -2 7036.04  342.79   1-0.30706 0.01840-0.75037 0.89441-0.58536 0.44685
   4  -1   321545.22  487.51   1-0.05581 0.32352-0.93295 0.76023-0.35563 0.56336
  -4   1  -323231.84  530.66   1-0.30667 0.03961-0.75320 0.92652-0.58191 0.37414
   4  -1   4  391.79   93.41   1 0.01598 0.23010-0.92892 0.72705-0.36991 0.64687
  -4   1  -4  339.46  137.61   1-0.30787 0.06242-0.74420 0.94679-0.59275 0.31573
   4  -1   5  145.07   45.80   1 0.17955 0.04514-0.90079 0.66909-0.39539 0.74180
  -4   1  -5  390.14  184.44   1-0.30977 0.08591-0.72870 0.96055-0.61076 0.26448
  -4   1  -615482.37  693.51   1-0.31187 0.10962-0.70884 0.96996-0.63266 0.21712
  -4   1  -7 2369.77  468.09   1-0.31392 0.13327-0.68565 0.97604-0.65675 0.17195
  -4   1  -816104.03  725.27   1-0.31575 0.15670-0.65966 0.97932-0.68201 0.12796
  -4   1  -9 1845.41  392.84   1-0.31723 0.17978-0.63113 0.98006-0.70783 0.08452
  -4   1 -10  132.29  184.67   1-0.31895 0.20391-0.60089 0.97813-0.73293 0.04082
  -4   1 -11  -56.17  216.78   1-0.31951 0.22617-0.56766 0.97408-0.75873-0.00259
   4   0  -9  256.13  202.09   1 0.57066-0.04375-0.71258 0.97537-0.40811-0.21616
   4   0  -8 1542.56  283.33   1 0.50944-0.00429-0.75584 0.98971-0.41129-0.14297
   4   0  -8 2165.33  299.27   1-0.29913 0.80425-0.22849 0.46202-0.92644 0.37379
   4   0  -712344.19  672.43   1 0.44987 0.03366-0.79215 0.99679-0.41242-0.07255
   4   0  -711443.22  521.35   1-0.29972 0.78318-0.23359 0.43793-0.92498 0.44140
   4   0  -6 1619.74  266.01   1 0.39303 0.06889-0.82221 0.99761-0.41168-0.00400
   4   0  -6 1348.18  180.94   1-0.29845 0.76024-0.22265 0.39780-0.92809 0.51359
   4   0  -5    9.69  144.26   1 0.33958 0.10073-0.84674 0.99290-0.40952 0.06310
   4   0  -5   28.50   86.77   1-0.29398 0.73412-0.18659 0.33255-0.93741 0.59200
   4   0  -432969.06 1109.13   1 0.29038 0.12832-0.86634 0.98327-0.40635 0.12922
   4   0  -433072.04  913.93   1-0.28317 0.70149-0.10649 0.22330-0.95313 0.67678
   4   0  -3 4262.59  355.52   1 0.24657 0.15053-0.88152 0.96922-0.40263 0.19479
   4   0  -3 4477.10  195.48   1-0.25466 0.65137 0.05641 0.03119-0.96538 0.75811
   4   0  -228624.35  744.89   1 0.20929 0.16563-0.89299 0.95130-0.39844 0.25996
   4   0  -1 5448.34  410.95   1 0.18148 0.17181-0.90046 0.92962-0.39525 0.32601
  -4   0   0   72.08   34.03   1-0.16583-0.16583-0.98156 0.98156 0.09500-0.09500
   4   0   120532.22  798.37   1 0.16698 0.14307-0.90404 0.87489-0.39346 0.46270
  -4   0  -122088.44  365.53   1-0.22527-0.08484-0.96520 0.99436-0.13279 0.06359
   4   0   218494.95  737.63   1 0.19225 0.09617-0.89766 0.83935-0.39652 0.53500
  -4   0  -219180.47  735.01   1-0.25174-0.03672-0.93462 0.99293-0.25121 0.11281
   4   0   338218.89  683.18   1 0.25405 0.01339-0.87907 0.79137-0.40333 0.61118
  -4   0  -343859.90  776.06   1-0.26835 0.00159-0.90509 0.99251-0.32983 0.12208
   4   0   4141044.8 1490.39   1 0.37522-0.12937-0.83077 0.71384-0.41112 0.68825
  -4   0  -4163758.1 1981.28   1-0.27987 0.03474-0.87613 0.99269-0.39251 0.11551
   4   0   521087.98  677.63   1 0.61041-0.38641-0.68104 0.53504-0.40445 0.75127
  -4   0  -524831.13  966.87   1-0.28823 0.06498-0.84635 0.99270-0.44788 0.10160
  -4   0  -638856.78 1428.39   1-0.29549 0.09383-0.81675 0.99236-0.49558 0.08004
  -4   0  -7  789.07  243.44   1-0.30150 0.12145-0.78621 0.99109-0.53941 0.05461
  -4   0  -8  436.78  337.52   1-0.30649 0.14805-0.75447 0.98862-0.58036 0.02630
  -4   0  -936217.91 1120.25   1-0.31058 0.17374-0.72136 0.98478-0.61900-0.00430
  -4   0 -10 4385.33  550.99   1-0.31384 0.19860-0.68669 0.97938-0.65570-0.03686
  -4   0 -11  185.64  197.91   1-0.31629 0.22265-0.65033 0.97229-0.69066-0.07115
  -4   0 -12  185.99  231.12   1-0.31860 0.24721-0.61285 0.96298-0.72312-0.10741
   4   1  -8  231.36  148.20   1 0.63376-0.12893-0.66102 0.97974-0.40171-0.15319
   4   1  -8  525.19  208.25   1-0.28890 0.79335-0.14548 0.46445-0.94623 0.39353
   4   1  -7 8288.95  530.61   1 0.58408-0.10089-0.70227 0.99179-0.40701-0.07853
   4   1  -7 7558.88  509.58   1-0.28905 0.77188-0.14654 0.43630-0.94602 0.46241
   4   1  -614917.80  694.43   1 0.53740-0.07584-0.73678 0.99710-0.41030-0.00587
   4   1  -614163.57  565.60   1-0.28708 0.74830-0.13283 0.39338-0.94864 0.53412
   4   1  -5  245.81  158.63   1 0.49585-0.05599-0.76459 0.99629-0.41173 0.06531
   4   1  -5  844.30  260.44   1-0.28189 0.72149-0.09820 0.32955-0.95440 0.60896
   4   1  -4 1120.86  212.48   1 0.45793-0.03967-0.78754 0.99001-0.41239 0.13525
   4   1  -4 1106.26  159.13   1-0.27112 0.68909-0.03243 0.23458-0.96199 0.68564
   4   1  -313900.25  695.51   1 0.42620-0.02956-0.80519 0.97842-0.41232 0.20447
   4   1  -313870.48  574.76   1-0.24976 0.64611 0.08086 0.09208-0.96492 0.75766
   4   1  -2  616.18  159.50   1 0.40245-0.02742-0.81752 0.96152-0.41192 0.27336
   4   1  -1  210.12  163.45   1 0.38907-0.03564-0.82415 0.93891-0.41157 0.34229
   4   1   0 5901.52  414.29   1 0.38933-0.05751-0.82402 0.90955-0.41158 0.41158
   4   1   1112828.7 1479.97   1 0.40784-0.09763-0.81479 0.87108-0.41204 0.48132
  -4  -1  -211945.47  485.04   1-0.15309-0.13482-0.97836 0.95118 0.13913-0.27760
  -4  -1  -3  323.63   85.23   1-0.19934-0.06705-0.97953 0.98144-0.02797-0.17961
   4   1   4   44.29   91.66   1 0.65024-0.40505-0.64619 0.61453-0.39950 0.67696
  -4  -1  -4   96.78   65.22   1-0.22998-0.01477-0.96110 0.99218-0.15289-0.12389
  -4  -1  -531614.92  998.06   1-0.82386 0.60114 0.44157-0.38165 0.35533-0.70211
  -4  -1  -532552.64 1256.66   1-0.25163 0.02851-0.93480 0.99503-0.25065-0.09534
  -4  -1  -6   63.26  128.77   1-0.26846 0.06701-0.90486 0.99411-0.33037-0.08512
  -4  -1  -7 4729.69  367.09   1-0.28102 0.10121-0.87278 0.99117-0.39909-0.08565
  -4  -1  -846504.64 1548.77   1-0.29039 0.13254-0.83821 0.98685-0.46159-0.09245
  -4  -1  -921260.29  866.77   1-0.29836 0.16211-0.80299 0.98091-0.51591-0.10739
  -4  -1 -10 9814.34  675.92   1-0.30476 0.19012-0.76632 0.97351-0.56555-0.12700
  -4  -1 -11  138.51  184.81   1-0.30983 0.21679-0.72811 0.96456-0.61143-0.15039
  -4  -1 -12  120.54  226.05   1-0.31372 0.24228-0.68822 0.95393-0.65416-0.17691
  -4  -2   8  358.02  135.63   1-0.74179 0.23631 0.55224-0.95590 0.38048 0.17436
   4   2  -8  477.63  224.53   1 0.74064-0.23625-0.55242 0.95626-0.38246-0.17244
   4   2  -8  377.85  240.85   1-0.27739 0.78150-0.06984 0.47413-0.95821 0.40550
  -4  -2   7 8383.04  608.93   1-0.70202 0.21834 0.59651-0.97109 0.38900 0.09648
   4   2  -7 6911.16  554.80   1 0.70065-0.21790-0.59674 0.97139-0.39112-0.09441
   4   2  -7 7897.14  581.59   1-0.27729 0.75978-0.06921 0.44430-0.95828 0.47467
   4   2  -6 1535.38  313.06   1 0.66368-0.20257-0.63363 0.97908-0.39752-0.01866
   4   2  -6 1017.92  251.24   1-0.27503 0.73590-0.05547 0.40135-0.95983 0.54530
   4   2  -5 4090.77  413.04   1 0.63068-0.19120-0.66374 0.97999-0.40210 0.05528
   4   2  -5 4164.27  348.48   1-0.26974 0.70899-0.02451 0.34119-0.96262 0.61718
   4   2  -4 9031.01 1258.69   1 0.60275-0.18491-0.68735 0.97441-0.40525 0.12779
   4   2  -4 8442.05  413.12   1-0.25986 0.67749 0.02960 0.25787-0.96519 0.68884
   4   2  -351987.35 1524.02   1 0.58124-0.18504-0.70448 0.96233-0.40725 0.19916
   4   2  -2132596.6 4076.64   1 0.56783-0.19326-0.71472 0.94337-0.40833 0.26960
   4   2  -133922.65 1227.17   1 0.56462-0.21169-0.71712 0.91658-0.40856 0.33920
   4   2   023722.72  661.99   1 0.57422-0.24292-0.70988 0.88014-0.40783 0.40783
   4   2   121765.30  633.27   1 0.59978-0.29012-0.68977 0.83083-0.40554 0.47491
  -4  -2  -399113.07 1303.99   1-0.71408 0.44830 0.58361-0.66735 0.38662-0.59469
   4   2   392303.57 1338.57   1 0.71233-0.44594-0.58430 0.66697-0.38880 0.59689
  -4  -2  -4 1862.87  389.34   1-0.80380 0.55981 0.47157-0.52623 0.36264-0.64006
   4   2   4 1298.39  166.46   1 0.80267-0.55798-0.47272 0.52703-0.36367 0.64099
  -4  -2  -4 1429.78  314.17   1-0.16753-0.07663-0.98184 0.92748 0.08897-0.36593
  -4  -2  -5 3753.19  415.35   1-0.90309 0.67943 0.28984-0.31446 0.31687-0.66293
  -4  -2  -5 3726.33  821.45   1-0.20324-0.01943-0.97817 0.95285-0.04318-0.30281
  -4  -2  -6  444.36   95.24   1-0.97587 0.77363-0.00000 0.00463 0.21834-0.63361
  -4  -2  -6  473.90  121.66   1-0.23016 0.02913-0.96093 0.96476-0.15371-0.26148
  -4  -2  -7   86.59  104.77   1-0.25093 0.07153-0.93586 0.96886-0.24735-0.23704
  -4  -2  -8 2282.35  440.66   1-0.26798 0.11022-0.90591 0.96784-0.32787-0.22612
  -4  -2  -961948.81 1426.34   1-0.28105 0.14493-0.87268 0.96375-0.39927-0.22397
  -4  -2 -10  230.91  242.81   1-0.29096 0.17692-0.83595 0.95762-0.46531-0.22725
  -4  -2 -11 6248.85  621.02   1-0.29936 0.20691-0.79787 0.94882-0.52323-0.23859
  -4  -2 -12  578.97  278.33   1-0.30603 0.23519-0.75775 0.93796-0.57632-0.25475
   4   3  -8   95.75  188.46   1-0.26528 0.76904 0.00047 0.48914-0.96417 0.41146
  -4  -3   7  237.39  116.15   1-0.79655 0.31339 0.48188-0.94195 0.36507 0.12042
   4   3  -7   99.05  144.63   1 0.79615-0.31400-0.48195 0.94187-0.36586-0.11946
   4   3  -7  181.37  171.01   1-0.26510 0.74724 0.00146 0.45895-0.96421 0.48060
  -4  -3   6  312.68  185.54   1-0.76822 0.30685 0.51982-0.95080 0.37364 0.04249
   4   3  -6  371.63  283.58   1 0.76673-0.30606-0.52056 0.95114-0.37566-0.04052
   4   3  -6  -32.34  180.63   1-0.26279 0.72332 0.01400 0.41720-0.96475 0.55022
  -4  -3   5 1995.71  347.11   1-0.74351 0.30393 0.55020-0.95211 0.38006-0.03328
   4   3  -5 2695.85  398.49   1 0.74183-0.30280-0.55101 0.95239-0.38217 0.03535
   4   3  -5 2224.71  317.38   1-0.25770 0.69661 0.04086 0.36114-0.96535 0.61991
  -4  -3   4 2332.02  314.81   1-0.72347 0.30568 0.57325-0.94607 0.38465-0.10722
   4   3  -4 1957.54  301.81   1 0.72163-0.30423-0.57411 0.94629-0.38683 0.10937
   4   3  -4 1752.43  238.04   1-0.24877 0.66606 0.08567 0.28713-0.96476 0.68841
  -4  -3   314366.19  696.84   1-0.70928 0.31328 0.58880-0.93253 0.38759-0.17952
   4   3  -313080.35  671.11   1 0.70730-0.31154-0.58970 0.93269-0.38982 0.18172
  -4  -3   225802.14 1040.42   1-0.70227 0.32806 0.59625-0.91090 0.38895-0.25024
   4   3  -222736.39  965.13   1 0.70020-0.32607-0.59721 0.91100-0.39121 0.25248
  -4  -3   113468.12  561.00   1-0.70396 0.35153 0.59447-0.88004 0.38863-0.31927
   4   3  -112492.58  635.05   1 0.70182-0.34933-0.59551 0.88010-0.39090 0.32153
  -4  -3   018681.64  805.61   1-0.71595 0.38532 0.58157-0.83806 0.38623-0.38623
   4   3   016258.71  738.11   1 0.71379-0.38294-0.58271 0.83810-0.38849 0.38849
  -4  -3  -112731.64  675.53   1-0.73981 0.43097 0.55457-0.78197 0.38095-0.45031
   4   3   111388.43  573.70   1 0.73768-0.42847-0.55587 0.78205-0.38317 0.45254
  -4  -3  -2 2483.77  448.95   1-0.77659 0.48954 0.50898-0.70730 0.37125-0.50996
   4   3   2 1988.04  265.63   1 0.77455-0.48697-0.51051 0.70750-0.37341 0.51214
  -4  -3  -3524027.6 5556.39   1-0.82594 0.56068 0.43831-0.60755 0.35452-0.56259
   4   3   3491181.3 4731.80   1 0.82489-0.55893-0.43949 0.60830-0.35552 0.56351
  -4  -3  -435797.88  744.99   1-0.88247 0.63763 0.33501-0.47430 0.33015-0.60700
  -4  -3  -5 2828.09  204.36   1-0.94010 0.71669 0.18756-0.29760 0.28464-0.63070
  -4  -3  -5 2831.37  495.01   1-0.15069-0.07137-0.97754 0.86682 0.14728-0.49347
  -4  -3  -6 1197.14  156.97   1-0.97691 0.77492-0.01357-0.06721 0.21319-0.62847
  -4  -3  -6 1316.36  339.17   1-0.18684-0.01375-0.98219 0.90047 0.01950-0.43469
  -4  -3  -7  732.08  131.61   1-0.95667 0.77610-0.27089 0.21934 0.10673-0.59122
  -4  -3  -7  776.40  220.92   1-0.21568 0.03672-0.97203 0.91946-0.09294-0.39145
  -4  -3  -8 6412.32  964.65   1-0.23878 0.08146-0.95199 0.92858-0.19153-0.36205
  -4  -3  -913038.89  766.55   1-0.25743 0.12175-0.92524 0.93099-0.27866-0.34412
  -4  -3 -10  508.14  307.59   1-0.27331 0.15923-0.89356 0.92817-0.35614-0.33635
  -4  -3 -11  247.50  217.38   1-0.28564 0.19320-0.85828 0.92203-0.42631-0.33543
  -4  -3 -12  159.28  201.65   1-0.29501 0.22476-0.81891 0.91361-0.49228-0.33879
  -4  -3 -13  339.75  266.87   1-0.30295 0.25430-0.77775 0.90172-0.55074-0.34959
  -4  -4   7  198.29  218.47   1-0.86794 0.38769 0.36366-0.91011 0.33825 0.14623
   4   4  -7  330.13  341.71   1-0.25248 0.73429 0.06737 0.47837-0.96525 0.48163
  -4  -4   6  136.60  133.77   1-0.84745 0.38660 0.40305-0.91953 0.34548 0.07064
   4   4  -6  223.26  192.54   1-0.25030 0.71049 0.07816 0.43837-0.96500 0.55047
  -4  -4   5  177.54  108.89   1-0.82907 0.39000 0.43339-0.92078 0.35328-0.00650
   4   4  -5  164.17  139.60   1 0.82858-0.39001-0.43369 0.92077-0.35405 0.00739
  -4  -4   4   70.49  100.32   1-0.81457 0.39729 0.45575-0.91407 0.35883-0.08140
   4   4  -4  167.47  169.34   1 0.81400-0.39705-0.45612 0.91409-0.35965 0.08232
  -4  -4   3 4672.90  896.49   1-0.80490 0.40942 0.46998-0.89921 0.36226-0.15419
   4   4  -3 4483.81  412.37   1 0.80426-0.40894-0.47042 0.89927-0.36311 0.15512
  -4  -4   2 1049.15  214.74   1-0.80105 0.42736 0.47552-0.87566 0.36357-0.22486
   4   4  -2  891.06  225.68   1 0.80034-0.42664-0.47603 0.87578-0.36446 0.22579
  -4  -4   1 8093.54 1474.97   1-0.80396 0.45206 0.47134-0.84240 0.36258-0.29322
   4   4  -1 7719.83  497.31   1 0.80319-0.45110-0.47196 0.84259-0.36348 0.29415
  -4  -4   0 3842.31  640.80   1-0.81447 0.48436 0.45589-0.79787 0.35886-0.35886
   4   4   0 2951.96  339.06   1 0.81364-0.48317-0.45665 0.79818-0.35978 0.35978
  -4  -4  -1 -223.86  157.89   1-0.83310 0.52478 0.42693-0.73983 0.35165-0.42101
  -4  -4  -2868768.7 6115.04   1-0.85969 0.57316 0.38144-0.66525 0.33973-0.47844
  -4  -4  -3578517.4 3764.56   1-0.89117 0.62515 0.31668-0.57065 0.32484-0.53247
  -4  -4  -4145135.2 4421.05   1-0.92737 0.68278 0.22698-0.45170 0.29740-0.57425
  -4  -4  -5 3575.81  290.14   1-0.96011 0.73694 0.10837-0.30384 0.25774-0.60381
  -4  -4  -6 2530.21  237.41   1-0.97842 0.77668-0.04205-0.12416 0.20225-0.61753
  -4  -4  -6 2690.20  313.27   1-0.14346-0.05651-0.97466 0.80758 0.17161-0.58704
  -4  -4  -7  476.80  135.47   1-0.96630 0.78598-0.22348 0.08651 0.12767-0.61216
  -4  -4  -7 1005.40  287.18   1-0.17827-0.00004-0.98268 0.84478 0.05043-0.53510
  -4  -4  -825789.95  799.08   1-0.90032 0.74588-0.43429 0.32433 0.02824-0.58176
  -4  -4  -829440.96 1222.64   1-0.20720 0.05032-0.97652 0.86756-0.05881-0.49477
  -4  -4  -9 7094.25  973.07   1-0.23115 0.09591-0.96000 0.88019-0.15797-0.46481
  -4  -4 -10  306.22  209.50   1-0.25096 0.13735-0.93582 0.88518-0.24748-0.44450
  -4  -4 -11  216.44  206.55   1-0.26807 0.17604-0.90570 0.88385-0.32837-0.43337
  -4  -4 -12  160.28  208.16   1-0.28157 0.21118-0.87113 0.87841-0.40229-0.42870
  -4  -4 -13  512.06  324.56   1-0.29202 0.24398-0.83170 0.87016-0.47221-0.42811
  -4  -5   6  298.36  187.98   1-0.90428 0.44570 0.28703-0.88965 0.31602 0.09924
  -4  -5   5  210.10  207.54   1-0.89075 0.45360 0.31757-0.89095 0.32510 0.02096
  -4  -5   4 1841.34  306.72   1-0.88012 0.46439 0.33981-0.88394 0.33152-0.05467
  -4  -5   3  330.14  201.07   1-0.87314 0.47883 0.35366-0.86854 0.33545-0.12781
  -4  -5   2  521.12  195.58   1-0.87052 0.49764 0.35874-0.84437 0.33688-0.19845
  -4  -5   1   35.08   87.21   1-0.87282 0.52136 0.35429-0.81067 0.33563-0.26642
  -4  -5   0 1091.71  285.96   1-0.88042 0.55038 0.33920-0.76634 0.33135-0.33135
  -4  -5  -1 1357.98  224.60   1-0.89333 0.58471 0.31198-0.70986 0.32346-0.39267
  -4  -5  -2 2533.50  387.43   1-0.91100 0.62381 0.27073-0.63937 0.31107-0.44950
  -4  -5  -3  266.05  131.38   1-0.93201 0.66624 0.21329-0.55268 0.29302-0.50065
  -4  -5  -4 2955.55  280.90   1-0.95363 0.70928 0.13738-0.44752 0.26778-0.54463
  -4  -5  -5  773.01  192.03   1-0.97146 0.74853 0.04106-0.32195 0.23362-0.57968
  -4  -5  -6  388.21  153.00   1-0.97904 0.77754-0.07661-0.17503 0.18870-0.60397
  -4  -5  -743787.46 1287.78   1-0.96779 0.78771-0.21466-0.00773 0.13149-0.61598
  -4  -5  -8 8101.50  405.72   1-0.92733 0.76867-0.36920 0.17604 0.06123-0.61493
  -4  -5  -8 9172.12 1033.26   1-0.17536 0.01913-0.98261 0.78834 0.06102-0.61493
  -4  -5  -9  167.50  142.95   1-0.84264 0.71067-0.53787 0.37148-0.02526-0.59744
  -4  -5  -9  201.53  134.70   1-0.20350 0.06869-0.97807 0.81271-0.04419-0.57859
  -4  -5 -10  105.66  124.62   1-0.22739 0.11423-0.96341 0.82721-0.14183-0.55015
  -4  -5 -11 1193.30  294.70   1-0.24756 0.15604-0.94079 0.83374-0.23155-0.52963
  -4  -5 -12  326.13  195.12   1-0.26526 0.19527-0.91165 0.83333-0.31387-0.51712
  -4  -5 -13  693.88  420.04   1-0.27940 0.23104-0.87747 0.82830-0.38982-0.51042
  -4  -6   5 6544.38  671.39   1-0.93402 0.49711 0.20713-0.86593 0.29103 0.05503
  -4  -6   411772.68  989.40   1-0.92639 0.51090 0.22981-0.85936 0.29830-0.02145
  -4  -6   316400.38  902.32   1-0.92126 0.52720 0.24408-0.84439 0.30281-0.09517
  -4  -6   2 7225.82  913.96   1-0.91916 0.54652 0.24973-0.82079 0.30458-0.16615
  -4  -6   1  342.87  216.01   1-0.92045 0.56924 0.24627-0.78808 0.30349-0.23428
  -4  -6   0 5480.64 1164.58   1-0.92528 0.59548 0.23296-0.74552 0.29930-0.29930
  -4  -6  -1  475.08  194.06   1-0.93347 0.62510 0.20883-0.69215 0.29158-0.36079
  -4  -6  -2  265.90  179.53   1-0.94441 0.65746 0.17273-0.62680 0.27973-0.41815
  -4  -6  -3 4653.93  403.56   1-0.95687 0.69135 0.12340-0.54822 0.26297-0.47061
  -4  -6  -4  117.00  153.16   1-0.96884 0.72474 0.05962-0.45520 0.24039-0.51724
  -4  -6  -5  296.29  227.74   1-0.97730 0.75463-0.01950-0.34682 0.21093-0.55700
  -4  -6  -6   59.00  149.72   1-0.97816 0.77691-0.11427-0.22280 0.17358-0.58886
  -4  -6  -7 7317.23  496.03   1-0.96623 0.78640-0.22390-0.08392 0.12749-0.61197
  -4  -6  -8 8515.18  501.08   1-0.93540 0.77699-0.34614 0.06756 0.07216-0.62586
  -4  -6  -8 9585.61  587.50   1-0.14566-0.01011-0.97560 0.69580 0.16425-0.71816
  -4  -6  -9  206.47  185.56   1-0.87558 0.74448-0.48305 0.23129 0.00359-0.62630
  -4  -6  -9  134.10  114.32   1-0.17652 0.04239-0.98265 0.73203 0.05680-0.67994
  -4  -6 -10  163.40  177.71   1-0.78452 0.67513-0.61619 0.39531-0.06945-0.62283
  -4  -6 -10  136.40  180.73   1-0.20348 0.09075-0.97808 0.75632-0.04411-0.64787
  -4  -6 -11 2794.04  676.40   1-0.22682 0.13573-0.96391 0.77130-0.13937-0.62181
  -4  -6 -12 5882.58 1107.59   1-0.24683 0.17738-0.94181 0.77836-0.22816-0.60222
  -4  -6 -13 1746.06  487.17   1-0.26464 0.21669-0.91291 0.77813-0.31072-0.58953
  -4  -7   4  737.11  294.82   1-0.95631 0.54107 0.12588-0.84087 0.26383 0.01301
  -4  -7   3 6965.43  693.84   1-0.95270 0.55888 0.14122-0.82696 0.26910-0.06146
  -4  -7   213953.99  897.78   1-0.95096 0.57856 0.14821-0.80470 0.27148-0.13305
  -4  -7   1  495.30  313.56   1-0.95136 0.60040 0.14659-0.77383 0.27093-0.20172
  -4  -7   0 8993.67  643.10   1-0.95398 0.62443 0.13592-0.73391 0.26728-0.26728
  -4  -7  -1  578.46  284.84   1-0.95859 0.65046 0.11560-0.68434 0.26027-0.32948
  -4  -7  -2 -108.90  204.27   1-0.96464 0.67795 0.08493-0.62443 0.24947-0.38790
  -4  -7  -3 5638.85  492.95   1-0.97117 0.70590 0.04319-0.55344 0.23440-0.44204
  -4  -7  -4   75.30  179.32   1-0.97668 0.73282-0.01027-0.47072 0.21445-0.49130
  -4  -7  -5  304.24  265.06   1-0.97904 0.75661-0.07590-0.37584 0.18898-0.53504
  -4  -7  -6  492.26  252.50   1-0.97550 0.77449-0.15372-0.26877 0.15736-0.57263
  -4  -7  -7 1002.93  252.45   1-0.96265 0.78307-0.24315-0.15009 0.11906-0.60354
  -4  -7  -8 5981.57  462.25   1-0.93651 0.77836-0.34277-0.02123 0.07375-0.62745
  -4  -7  -9  658.73  212.33   1-0.88946 0.75923-0.45669 0.11955 0.01703-0.63974
  -4  -7  -9 1469.66  351.97   1-0.15180 0.01812-0.97793 0.64177 0.14353-0.76668
  -4  -7 -10  803.78  232.22   1-0.82186 0.71332-0.56811 0.26190-0.04224-0.65005
  -4  -7 -10 1131.10  364.72   1-0.18066 0.06837-0.98263 0.67531 0.04236-0.73435
  -4  -7 -11  375.25  162.63   1-0.20630 0.11565-0.97692 0.69876-0.05524-0.70594
  -4  -7 -12 1019.18  304.89   1-0.22880 0.15979-0.96217 0.71317-0.14785-0.68253
  -4  -8   3 1138.58  371.40   1-0.97095 0.57738 0.04484-0.81600 0.23500-0.02737
  -4  -8   2  120.48  241.35   1-0.96972 0.59758 0.05365-0.79557 0.23822-0.09979
  -4  -8   1  326.70  326.04   1-0.96962 0.61890 0.05434-0.76701 0.23847-0.16926
  -4  -8   0  755.18  291.60   1-0.97070 0.64141 0.04668-0.73010 0.23567-0.23567
  -4  -8  -1 7823.05  598.69   1-0.97279 0.66492 0.03033-0.68450 0.22967-0.29888
  -4  -8  -2  642.09  264.78   1-0.97544 0.68899 0.00490-0.62982 0.22019-0.35861
  -4  -8  -3  168.13  191.53   1-0.97790 0.71287-0.03001-0.56565 0.20690-0.41454
  -4  -8  -4  -11.12  161.23   1-0.97904 0.73543-0.07478-0.49164 0.18942-0.46627
  -4  -8  -5 1020.80  324.67   1-0.97734 0.75516-0.12957-0.40760 0.16734-0.51340
  -4  -8  -6  496.94  276.37   1-0.97085 0.77010-0.19433-0.31359 0.14024-0.55551
  -4  -8  -7   23.21  136.69   1-0.95720 0.77787-0.26858-0.21009 0.10777-0.59225
  -4  -8  -8  497.04  209.90   1-0.93363 0.77572-0.35137-0.09806 0.06970-0.62340
  -4  -8  -9  211.64  166.85   1-0.89382 0.76446-0.44790 0.02539 0.02145-0.64416
  -4  -8 -10  104.04  162.35   1-0.84014 0.73238-0.54167 0.14810-0.02730-0.66459
  -4  -8 -10  184.44  124.17   1-0.16007 0.04849-0.98036 0.58784 0.11513-0.80751
  -4  -8 -11  453.10  266.37   1-0.18707 0.09686-0.98216 0.61844 0.01864-0.77983
  -4  -8 -12  514.47  192.97   1-0.21134 0.14276-0.97450 0.63994-0.07534-0.75504
  -4  -9   2  117.79  231.57   1-0.97813 0.60623-0.03485-0.79249 0.20504-0.06661
  -4  -9   1 -162.71  227.95   1-0.97798 0.62750-0.03164-0.76645 0.20627-0.13706
  -4  -9   0  733.70  302.82   1-0.97819 0.64914-0.03619-0.73265 0.20452-0.20452
  -4  -9  -1 3110.16  488.45   1-0.97864 0.67102-0.04864-0.69095 0.19969-0.26890
  -4  -9  -2 1598.22  339.61   1-0.97902 0.69281-0.06920-0.64114 0.19163-0.33005
  -4  -9  -3  505.80  301.86   1-0.97874 0.71395-0.09809-0.58300 0.18012-0.38776
  -4  -9  -4  995.46  325.87   1-0.97695 0.73360-0.13546-0.51639 0.16492-0.44177
  -4  -9  -5 1280.74  379.53   1-0.97255 0.75061-0.18137-0.44123 0.14575-0.49181
  -4  -9  -6 3084.20  463.61   1-0.96409 0.76358-0.23570-0.35765 0.12233-0.53761
  -4  -9  -7 4265.36  535.73   1-0.94985 0.77076-0.29809-0.26601 0.09443-0.57892
  -4  -9  -8 1520.75  399.77   1-0.92783 0.77016-0.36783-0.16702 0.06188-0.61558
  -4  -9  -9  355.75  238.53   1-0.89243 0.76394-0.45073-0.05714 0.02003-0.64274
  -4  -9 -10 1835.10  421.18   1-0.84711 0.74022-0.53097 0.05202-0.02155-0.67034
  -4  -9 -10 1088.90  314.11   1-0.14234 0.03121-0.97416 0.49610 0.17531-0.86770
  -4  -9 -11 4008.30  903.06   1-0.16993 0.08045-0.98216 0.53328 0.08048-0.84210
  -4 -10   0  465.80  364.79   1-0.97818 0.64937-0.11391-0.74035 0.17373-0.17373
  -4 -10  -1 1298.17  476.66   1-0.97774 0.67036-0.12267-0.70235 0.17016-0.23938
  -4 -10  -2  166.87  263.98   1-0.97672 0.69076-0.13877-0.65699 0.16355-0.30198
  -4 -10  -3  310.26  292.01   1-0.97468 0.71014-0.16232-0.60420 0.15377-0.36141
  -4 -10  -4  117.40  204.82   1-0.97099 0.72788-0.19334-0.54393 0.14066-0.41751
  -4 -10  -5  356.35  230.79   1-0.96481 0.74312-0.23183-0.47620 0.12403-0.47009
  -4 -10  -6  133.96  181.03   1-0.95507 0.75480-0.27763-0.40114 0.10370-0.51898
  -4 -10  -7  766.06  333.87   1-0.94046 0.76162-0.33044-0.31908 0.07952-0.56400
  -4 -10  -8    3.30  195.11   1-0.91949 0.76207-0.38973-0.23055 0.05134-0.60504
  -4 -10  -9 2052.42  413.35   1-0.88695 0.75933-0.46163-0.13162 0.01453-0.63724
  -4 -10 -10 2109.17  455.83   1-0.84722 0.74120-0.53079-0.03352-0.02146-0.67043
  -4 -11  -3  288.56  327.31   1-0.96628 0.70199-0.22362-0.62833 0.12761-0.33525
  -4 -11  -4   41.41  210.01   1-0.96144 0.71858-0.24914-0.57356 0.11642-0.39327
  -4 -11  -5 1559.07  437.57   1-0.95417 0.73273-0.28131-0.51214 0.10205-0.44811
  -4 -11  -6  552.89  392.73   1-0.94365 0.74364-0.31998-0.44423 0.08438-0.49965
  -4 -11  -7  237.48  218.64   1-0.92890 0.75030-0.36487-0.37009 0.06329-0.54778
  -4 -11  -8  333.04  318.26   1-0.90874 0.75157-0.41555-0.29015 0.03870-0.59240
   5  -9  -6  634.50  345.80   1-0.39300 0.94485-0.88178 0.28865-0.26078-0.15466
   5  -9  -5 1569.95  460.54   1-0.43425 0.96445-0.86663 0.24439-0.24569-0.10051
   5  -9  -4  817.42  412.71   1-0.47017 0.97870-0.85158 0.20023-0.23182-0.04514
   5  -9  -3 1076.42  392.28   1-0.50067 0.98754-0.83734 0.15689-0.21947 0.01175
   5  -9  -2 3819.32  566.80   1-0.52564 0.99085-0.82464 0.11508-0.20895 0.07046
   5  -9  -1 7336.18  659.12   1-0.54491 0.98846-0.81415 0.07548-0.20055 0.13131
   5  -9   0 4964.86  599.52   1-0.55822 0.98011-0.80653 0.03876-0.19461 0.19461
   5  -9   1  -75.89  246.32   1-0.56517 0.96540-0.80244 0.00555-0.19146 0.26070
   5  -9   2  733.38  436.76   1-0.56513 0.94369-0.80246-0.02352-0.19148 0.32997
   5  -8  -7   -7.75  203.17   1-0.31000 0.88265-0.90586 0.42716-0.28861-0.19607
   5  -8  -6  467.84  348.27   1-0.36101 0.91200-0.89204 0.38422-0.27189-0.14355
   5  -8  -5  740.76  323.55   1-0.40671 0.93605-0.87699 0.34006-0.25586-0.09034
   5  -8  -4  287.93  280.94   1-0.44699 0.95467-0.86149 0.29546-0.24085-0.03611
   5  -8  -3  387.07  296.18   1-0.48172 0.96773-0.84635 0.25121-0.22721 0.01948
   5  -8  -2  707.09  313.45   1-0.51073 0.97508-0.83234 0.20809-0.21528 0.07679
   5  -8  -1 2745.75  461.70   1-0.53383 0.97652-0.82025 0.16689-0.20541 0.13617
   5  -8   0   99.11  257.91   1-0.55073 0.97176-0.81086 0.12839-0.19797 0.19797
   5  -8   1   69.38  224.19   1-0.56101 0.96038-0.80490 0.09333-0.19335 0.26260
   5  -8   2 6406.66  573.78   1-0.56404 0.94175-0.80311 0.06243-0.19198 0.33046
   5  -8   3 3246.72  438.20   1-0.55884 0.91488-0.80618 0.03638-0.19433 0.40206
  -5   8  -4 7457.51  708.86   1-0.25016-0.08091 0.07887 0.72058-0.96498 0.68863
   5  -7  -8 4721.15  626.67   1-0.20048 0.79394-0.92573 0.56144-0.32064-0.23329
   5  -7  -7 2814.15  459.53   1-0.26109 0.83289-0.91634 0.52294-0.30355-0.18114
   5  -7  -6  703.50  324.88   1-0.31663 0.86678-0.90424 0.48173-0.28651-0.12894
   5  -7  -5 1076.56  379.75   1-0.36694 0.89542-0.89023 0.43861-0.26987-0.07633
   5  -7  -4  -69.64  212.38   1-0.41182 0.91864-0.87514 0.39441-0.25400-0.02295
   5  -7  -3  399.72  315.64   1-0.45106 0.93622-0.85981 0.34997-0.23929 0.03156
   5  -7  -2 3423.92  446.70   1-0.48444 0.94794-0.84509 0.30615-0.22611 0.08763
   5  -7  -111325.50  707.68   1-0.51167 0.95351-0.83187 0.26381-0.21488 0.14564
   5  -7   0  293.22  190.30   1-0.53242 0.95259-0.82102 0.22386-0.20602 0.20602
   5  -7   1 4719.18  512.88   1-0.54620 0.94471-0.81342 0.18716-0.19998 0.26923
   5  -7   2 1136.39  448.78   1-0.55233 0.92918-0.80994 0.15457-0.19726 0.33574
   5  -7   3  667.59  319.66   1-0.54976 0.90495-0.81141 0.12692-0.19840 0.40613
  -5   7  -3  390.44  200.28   1-0.25794-0.09441 0.03963 0.64528-0.96534 0.75808
  -5   7  -4 4069.20  532.28   1-0.26707-0.06366-0.00947 0.72360-0.96362 0.68727
  -5   7  -5   59.58  205.45   1-0.27309-0.03602-0.04395 0.78727-0.96098 0.61554
   5  -6  -9  209.56  302.28   1-0.06337 0.67805-0.93308 0.68396-0.35402-0.26914
   5  -6  -8  700.11  242.92   1-0.13350 0.72611-0.93170 0.65271-0.33779-0.21614
   5  -6  -7 -103.48  162.93   1-0.19811 0.76905-0.92602 0.61793-0.32128-0.16340
   5  -6  -6  562.03  284.35   1-0.25793 0.80721-0.91692 0.57972-0.30448-0.11097
   5  -6  -5   37.87  200.17   1-0.31271 0.84033-0.90520 0.53890-0.28775-0.05845
   5  -6  -4  886.78  342.00   1-0.36218 0.86815-0.89168 0.49627-0.27149-0.00547
   5  -6  -324876.65  950.46   1-0.40604 0.89034-0.87723 0.45270-0.25610 0.04838
   5  -6  -211642.17  662.34   1-0.44395 0.90659-0.86274 0.40911-0.24202 0.10353
   5  -6  -113187.06  724.02   1-0.47552 0.91650-0.84918 0.36644-0.22970 0.16045
   5  -6   015150.92  721.50   1-0.50029 0.91961-0.83753 0.32568-0.21963 0.21963
   5  -6   1  100.46  198.92   1-0.51768 0.91534-0.82879 0.28783-0.21234 0.28159
   5  -6   2 6759.98  478.56   1-0.52687 0.90287-0.82398 0.25392-0.20842 0.34690
  -5   6  -2 6146.04  488.46   1-0.26185-0.11177 0.01902 0.55136-0.96491 0.82674
   5  -6   3  566.64  231.69   1-0.52665 0.88099-0.82410 0.22492-0.20851 0.41624
  -5   6  -3  698.07  219.54   1-0.27482-0.07718-0.05423 0.65382-0.95996 0.75269
   5  -6   4  777.81  220.69   1-0.51513 0.84780-0.83011 0.20182-0.21343 0.49040
  -5   6  -4  968.99  323.17   1-0.28305-0.04733-0.10575 0.73454-0.95325 0.67690
  -5   6  -5 1774.90  376.03   1-0.28817-0.02059-0.14039 0.79838-0.94722 0.60178
  -5   6  -6  490.93  246.09   1-0.29117 0.00401-0.16180 0.84901-0.94288 0.52835
  -5   6  -7  793.91  351.53   1-0.29215 0.02695-0.17265 0.88901-0.94065 0.45707
   5  -5  -9  216.86  271.47   1 0.02075 0.59301-0.92848 0.76461-0.37079-0.25237
   5  -5  -8 1464.23  380.01   1-0.05108 0.64322-0.93284 0.73982-0.35663-0.19728
   5  -5  -7 2169.95  426.44   1-0.11879 0.68931-0.93234 0.71016-0.34148-0.14319
   5  -5  -6 5100.65  498.88   1-0.18308 0.73151-0.92772 0.67583-0.32527-0.09017
   5  -5  -5  956.16  329.03   1-0.24174 0.76850-0.91976 0.63876-0.30917-0.03703
   5  -5  -4 1127.12  302.40   1-0.29534 0.80045-0.90928 0.59917-0.29320 0.01623
   5  -5  -3 1874.77  314.27   1-0.34348 0.82693-0.89713 0.55792-0.27777 0.07005
   5  -5  -2 9629.54  602.03   1-0.38571 0.84749-0.88423 0.51590-0.26336 0.12487
   5  -5  -1 2001.53  336.87   1-0.42148 0.86160-0.87156 0.47412-0.25046 0.18122
   5  -5   0 8687.81  555.69   1-0.45017 0.86863-0.86018 0.43364-0.23963 0.23963
  -5   5  -167696.63 1105.18   1-0.25913-0.13577 0.03343 0.42241-0.96526 0.89617
   5  -5   269821.45 1233.39   1-0.48292 0.85805-0.84580 0.36104-0.22673 0.36521
  -5   5  -273806.50 1261.75   1-0.27929-0.09399-0.08163 0.56668-0.95672 0.81855
   5  -5   3 1053.06  213.74   1-0.48440 0.83787-0.84511 0.33124-0.22613 0.43386
  -5   5  -3 1167.17  264.52   1-0.29092-0.06074-0.15997 0.67423-0.94327 0.73601
   5  -5   4  407.54  210.56   1-0.47308 0.80489-0.85028 0.30730-0.23067 0.50764
  -5   5  -4  -42.36  133.91   1-0.29713-0.03271-0.21169 0.75514-0.93107 0.65474
  -5   5  -5   84.30  141.97   1-0.30097-0.00721-0.24454 0.81718-0.92174 0.57633
  -5   5  -6 5065.85  526.92   1-0.30300 0.01647-0.26321 0.86504-0.91591 0.50142
  -5   5  -7  -20.85  184.66   1-0.30383 0.03896-0.27107 0.90209-0.91334 0.42977
  -5   5  -8  992.91  370.16   1-0.30376 0.06055-0.27042 0.93063-0.91356 0.36090
   5  -4  -9 3579.27  476.46   1 0.11771 0.49514-0.91463 0.83602-0.38675-0.23641
   5  -4  -8   46.58  190.75   1 0.04474 0.54649-0.92591 0.81814-0.37507-0.17884
   5  -4  -715079.39  789.78   1-0.02462 0.59423-0.93182 0.79489-0.36208-0.12260
   5  -4  -6 1647.71  373.84   1-0.09008 0.63807-0.93310 0.76702-0.34812-0.06731
   5  -4  -510591.96  635.57   1-0.15224 0.67816-0.93048 0.73479-0.33317-0.01303
   5  -4  -4 6821.09  518.55   1-0.20881 0.71306-0.92467 0.69987-0.31839 0.04142
   5  -4  -3 1917.95  350.32   1-0.26019 0.74278-0.91651 0.66260-0.30381 0.09609
   5  -4  -2  298.92  240.08   1-0.30579 0.76672-0.90687 0.62385-0.28994 0.15146
   5  -4  -1 6323.02  464.98   1-0.34491 0.78418-0.89673 0.58461-0.27730 0.20806
   5  -4   014661.32  686.13   1-0.37670 0.79431-0.88716 0.54593-0.26650 0.26650
   5  -4   134660.15 1150.52   1-0.40009 0.79603-0.87933 0.50899-0.25825 0.32749
  -5   4  -134819.22 1029.20   1-0.27786-0.11670-0.07271 0.44323-0.95786 0.88877
   5  -4   290707.44 2371.02   1-0.41363 0.78791-0.87448 0.47503-0.25334 0.39183
  -5   4  -294052.31 2392.83   1-0.29582-0.07700-0.20107 0.60081-0.93383 0.79567
   5  -4   368645.97 1871.33   1-0.41526 0.76788-0.87388 0.44532-0.25275 0.46048
  -5   4  -371968.30 1985.92   1-0.30485-0.04632-0.28100 0.70992-0.91000 0.70275
   5  -4   4  -22.46  124.78   1-0.40174 0.73270-0.87875 0.42108-0.25766 0.53462
  -5   4  -4  399.45  215.83   1-0.30937-0.02013-0.32965 0.78776-0.89196 0.61564
   5  -4   5  398.39  215.98   1-0.36746 0.67676-0.89007 0.40329-0.26969 0.61590
  -5   4  -5  417.05  226.04   1-0.31173 0.00412-0.35728 0.84491-0.88043 0.53488
  -5   4  -6  557.93  240.50   1-0.31273 0.02678-0.37077 0.88760-0.87448 0.45982
  -5   4  -7 1541.80  327.36   1-0.31294 0.04865-0.37375 0.91979-0.87313 0.38936
  -5   4  -8  207.00  183.78   1-0.31258 0.06995-0.36872 0.94397-0.87540 0.32251
  -5   4  -9   -7.06  219.56   1-0.31173 0.09076-0.35729 0.96175-0.88043 0.25843
   5  -3  -9  483.21  321.16   1 0.22461 0.38658-0.88835 0.89486-0.40046-0.22307
   5  -3  -8  101.52  176.91   1 0.15333 0.43699-0.90722 0.88471-0.39169-0.16222
   5  -3  -7  421.05  203.92   1 0.08432 0.48437-0.92044 0.86877-0.38166-0.10301
   5  -3  -6  457.40  209.56   1 0.01875 0.52832-0.92867 0.84784-0.37042-0.04501
   5  -3  -519949.24  823.74   1-0.04300 0.56846-0.93260 0.82262-0.35832 0.01212
   5  -3  -4 8848.92  628.31   1-0.10046 0.60428-0.93292 0.79378-0.34576 0.06880
   5  -3  -3 8922.56 1237.56   1-0.15394 0.63567-0.93036 0.76176-0.33275 0.12502
   5  -3  -2  701.28  198.74   1-0.20092 0.66099-0.92568 0.72797-0.32053 0.18204
   5  -3  -1  387.40  182.96   1-0.24138 0.67979-0.91982 0.69300-0.30928 0.24003
   5  -3   0  405.76  230.45   1-0.27420 0.69095-0.91379 0.65786-0.29965 0.29965
  -5   3   0   -7.93   44.60   1-0.25592-0.15991 0.05000 0.20598-0.96540 0.96540
   5  -3   123636.96  959.57   1-0.29790 0.69299-0.90870 0.62367-0.29241 0.36165
  -5   3  -123275.52  833.58   1-0.29728-0.09686-0.21297 0.49817-0.93073 0.86165
   5  -3   243459.00 1514.44   1-0.31045 0.68388-0.90575 0.59161-0.28847 0.42695
  -5   3  -243466.80 1456.38   1-0.31105-0.06121-0.34860 0.66320-0.88414 0.74592
   5  -3   348253.05 1359.57   1-0.30887 0.66063-0.90614 0.56288-0.28897 0.49670
  -5   3  -349292.34 1410.03   1-0.31591-0.03469-0.42154 0.76536-0.84999 0.64266
   5  -3   412208.45  515.60   1-0.28835 0.61845-0.91083 0.53847-0.29535 0.57232
  -5   3  -412580.41  606.43   1-0.31771-0.01123-0.46045 0.83348-0.82887 0.55243
   5  -3   526156.18  593.42   1-0.24016 0.54860-0.92002 0.51855-0.30963 0.65584
  -5   3  -528869.38  880.97   1-0.31836 0.01106-0.47904 0.88127-0.81802 0.47246
  -5   3  -612003.62  614.56   1-0.31858 0.03329-0.48475 0.91621-0.81456 0.39929
  -5   3  -715034.60  731.79   1-0.31841 0.05443-0.48059 0.94124-0.81709 0.33331
  -5   3  -8   76.53  169.12   1-0.31806 0.07573-0.46986 0.95971-0.82344 0.27056
  -5   3  -9  662.14  321.93   1-0.31744 0.09678-0.45368 0.97274-0.83270 0.21070
  -5   3 -10  627.75  399.07   1-0.31650 0.11750-0.43295 0.98122-0.84402 0.15291
   5  -2  -9  -69.66  177.58   1 0.34005 0.27068-0.84653 0.93858-0.40955-0.21399
   5  -2  -8 2278.03  431.75   1 0.27090 0.31822-0.87335 0.93615-0.40480-0.14945
   5  -2  -7  308.40  162.35   1 0.20493 0.36286-0.89421 0.92779-0.39796-0.08671
   5  -2  -6 3326.43  403.64   1 0.14172 0.40444-0.90978 0.91421-0.39014-0.02530
   5  -2  -5230662.2 2520.93   1 0.08203 0.44251-0.92080 0.89607-0.38130 0.03509
   5  -2  -4131312.9 3378.01   1 0.02642 0.47649-0.92792 0.87404-0.37182 0.09486
   5  -2  -3 1864.92  301.61   1-0.02442 0.50571-0.93181 0.84876-0.36212 0.15440
   5  -2  -2 1331.26  254.76   1-0.06962 0.52929-0.93315 0.82095-0.35266 0.21418
   5  -2  -1 5964.69  398.12   1-0.10805 0.54610-0.93272 0.79137-0.34400 0.27476
   5  -2   0  140.77  157.90   1-0.13914 0.55503-0.93137 0.76075-0.33642 0.33642
   5  -2   1 3420.97  268.10   1-0.15913 0.55336-0.92995 0.73023-0.33144 0.40069
  -5   2  -1 3612.17  201.16   1-0.31564-0.07797-0.41654 0.61654-0.85256 0.78345
   5  -2   210588.45  426.98   1-0.16597 0.53854-0.92937 0.70054-0.32970 0.46819
  -5   2  -210535.25  350.94   1-0.31950-0.05233-0.53314 0.76243-0.78336 0.64494
   5  -2   335915.39 1241.61   1-0.15528 0.50619-0.93026 0.67231-0.33241 0.54014
  -5   2  -337479.58 1293.30   1-0.31932-0.03081-0.58297 0.84143-0.74710 0.53947
  -5   2  -4 7822.14  402.56   1-0.31889-0.00954-0.60319 0.89083-0.73107 0.45422
   5  -2   519486.42  631.23   1-0.04384 0.35213-0.93263 0.61634-0.35815 0.70435
  -5   2  -521148.66  827.93   1-0.31876 0.01202-0.60746 0.92427-0.72758 0.38152
  -5   2  -6 4409.66  388.01   1-0.31892 0.03388-0.60186 0.94785-0.73215 0.31688
  -5   2  -7   22.35  180.23   1-0.31921 0.05587-0.58946 0.96464-0.74204 0.25756
  -5   2  -8 1460.57  313.88   1-0.31947 0.07783-0.57197 0.97632-0.75550 0.20181
  -5   2  -9  940.91  318.77   1-0.31958 0.09964-0.55035 0.98388-0.77134 0.14844
  -5   2 -10 3806.94  480.52   1-0.31942 0.12118-0.52520 0.98791-0.78874 0.09663
   5  -1  -9  776.42  316.13   1 0.45740 0.15287-0.78785 0.96542-0.41239-0.21115
   5  -1  -8   47.21  152.82   1 0.39346 0.19521-0.82200 0.97034-0.41170-0.14256
   5  -1  -7   71.07  156.41   1 0.33205 0.23501-0.84992 0.96902-0.40911-0.07586
   5  -1  -619645.50  810.79   1 0.27359 0.27185-0.87240 0.96227-0.40503-0.01066
   5  -1  -529926.54  936.49   1 0.21860 0.30524-0.89013 0.95077-0.39983 0.05342
   5  -1  -4 5227.56  476.36   1 0.16773 0.33427-0.90386 0.93523-0.39355 0.11659
   5  -1  -3 3509.17  347.70   1 0.12182 0.35855-0.91384 0.91606-0.38734 0.17962
   5  -1  -2 8457.70  496.61   1 0.08190 0.37685-0.92082 0.89388-0.38127 0.24279
   5  -1  -1  923.51  188.12   1 0.04936 0.38777-0.92535 0.86925-0.37587 0.30663
   5  -1   0246845.5 1980.22   1 0.02610 0.38940-0.92795 0.84270-0.37176 0.37176
   5  -1   132767.82 1178.27   1 0.01477 0.37910-0.92903 0.81462-0.36968 0.43893
  -5   1  -136778.94 1150.96   1-0.31238-0.08069-0.70357 0.81835-0.63827 0.56902
   5  -1   228462.21 1031.38   1 0.01926 0.35298-0.92862 0.78505-0.37051 0.50900
  -5   1  -231314.59 1039.12   1-0.30776-0.06370-0.74507 0.88912-0.59172 0.45321
   5  -1   3   49.12   92.92   1 0.04562 0.30500-0.92580 0.75308-0.37523 0.58295
  -5   1  -3  273.46  126.50   1-0.30671-0.04315-0.75289 0.92621-0.58229 0.37452
   5  -1   4 9292.49  336.86   1 0.10414 0.22486-0.91713 0.71525-0.38473 0.66169
  -5   1  -410650.91  435.01   1-0.30748-0.02078-0.74722 0.94981-0.58915 0.31212
   5  -1   525557.40  733.58   1 0.21462 0.09313-0.89129 0.65959-0.39941 0.74583
  -5   1  -529987.48 1010.93   1-0.30911 0.00245-0.73425 0.96610-0.60441 0.25812
  -5   1  -6 1337.68  261.14   1-0.31110 0.02604-0.71647 0.97759-0.62439 0.20885
  -5   1  -7 1759.62  332.52   1-0.31314 0.04967-0.69509 0.98548-0.64713 0.16234
  -5   1  -8 1691.17  338.07   1-0.31503 0.07317-0.67072 0.99038-0.67147 0.11742
  -5   1  -9   15.80  199.37   1-0.31664 0.09638-0.64370 0.99263-0.69669 0.07338
  -5   1 -10 1071.89  366.94   1-0.31852 0.12054-0.61503 0.99227-0.72129 0.02918
  -5   1 -11 2997.53  463.12   1-0.31932 0.14303-0.58319 0.98961-0.74694-0.01438
   5   0  -8  990.18  316.82   1 0.51373 0.07448-0.75302 0.98689-0.41113-0.14313
   5   0  -7 3759.95  506.70   1 0.45904 0.10756-0.78690 0.99154-0.41238-0.07259
   5   0  -6 1643.92  311.12   1 0.40730 0.13769-0.81506 0.99046-0.41203-0.00366
   5   0  -5  216.30  174.78   1 0.35914 0.16424-0.83816 0.98433-0.41047 0.06406
   5   0  -4  102.71  181.52   1 0.31531 0.18646-0.85675 0.97369-0.40809 0.13096
   5   0  -3 9641.52 1348.61   1 0.27678 0.20339-0.87128 0.95898-0.40529 0.19744
   5   0  -215747.95  780.55   1 0.24479 0.21376-0.88209 0.94056-0.40247 0.26390
   5   0  -148410.79 1677.40   1 0.22101 0.21594-0.88942 0.91865-0.40009 0.33081
   5   0   083771.08 2652.90   1 0.20730 0.20730-0.89355 0.89355-0.39822 0.39822
  -5   0   094043.81 2751.26   1-0.20734-0.20734-0.97646 0.97646-0.05937 0.05937
   5   0   129275.65  714.05   1 0.20755 0.18542-0.89348 0.86432-0.39825 0.46749
  -5   0  -133581.01  535.30   1-0.23975-0.15329-0.95086 0.98002-0.19587 0.12667
   5   0   235316.45  775.38   1 0.22613 0.14600-0.88789 0.82943-0.40062 0.53919
  -5   0  -240690.87  708.24   1-0.25746-0.11395-0.92520 0.98351-0.27877 0.14037
   5   0   317573.57  710.94   1 0.26913 0.08138-0.87396 0.78626-0.40465 0.61250
  -5   0  -320519.38  766.30   1-0.27037-0.07930-0.90055 0.98798-0.34043 0.13268
   5   0   423018.41  828.95   1 0.34758-0.01867-0.84328 0.72635-0.40993 0.68706
  -5   0  -427213.58 1004.52   1-0.28012-0.04792-0.87541 0.99198-0.39392 0.11692
   5   0   5126540.3 3736.24   1 0.47980-0.17250-0.77456 0.62839-0.41211 0.75852
  -5   0  -5148245.3 4513.67   1-0.28818-0.01821-0.84954 0.99525-0.44183 0.09558
  -5   0  -6  403.18  182.77   1-0.29438 0.00991-0.82170 0.99732-0.48798 0.07244
  -5   0  -7  120.84  145.27   1-0.30020 0.03733-0.79342 0.99830-0.52949 0.04469
  -5   0  -8   95.98  162.11   1-0.30516 0.06390-0.76369 0.99784-0.56889 0.01484
  -5   0  -910253.18  633.81   1-0.30933 0.08967-0.73240 0.99582-0.60653-0.01677
  -5   0 -10  228.23  233.54   1-0.31275 0.11469-0.69945 0.99214-0.64260-0.04995
  -5   0 -11  443.54  381.32   1-0.31543 0.13897-0.66471 0.98667-0.67723-0.08458
  -5   0 -12  405.59  249.60   1-0.31736 0.16250-0.62808 0.97931-0.71048-0.12059
   5   1  -8  -19.50  162.76   1 0.62466-0.03679-0.66896 0.98768-0.40283-0.15207
   5   1  -7  455.36  210.85   1 0.57750-0.01126-0.70737 0.99689-0.40756-0.07798
   5   1  -6  -10.57  144.46   1 0.53335 0.01125-0.73959 0.99992-0.41052-0.00566
   5   1  -6   21.04  119.82   1-0.25908 0.80325 0.03370 0.22685-0.96526 0.55073
   5   1  -5 3477.89  421.59   1 0.49403 0.02889-0.76574 0.99744-0.41178 0.06536
   5   1  -5 2756.12  260.77   1-0.24885 0.77141 0.08527 0.14607-0.96477 0.61933
   5   1  -4  949.90  277.55   1 0.45818 0.04314-0.78740 0.98987-0.41238 0.13525
   5   1  -3   90.86  150.28   1 0.42793 0.05177-0.80426 0.97749-0.41234 0.20449
   5   1  -2 3517.55  355.75   1 0.40465 0.05345-0.81641 0.96041-0.41197 0.27340
   5   1  -1 4617.20  371.66   1 0.39006 0.04643-0.82366 0.93843-0.41160 0.34232
   5   1   0 1584.35  247.95   1 0.38642 0.02846-0.82543 0.91096-0.41149 0.41149
   5   1   188847.10 1383.27   1 0.39675-0.00346-0.82037 0.87667-0.41178 0.48107
   5   1   2 5624.75  374.85   1 0.42504-0.05337-0.80581 0.83287-0.41231 0.55087
  -5  -1  -2 5953.16  317.75   1-0.17010-0.20072-0.98218 0.95500 0.07987-0.21834
   5   1   310047.10  411.32   1 0.47665-0.12658-0.77647 0.77430-0.41216 0.62001
  -5  -1  -310680.57  579.63   1-0.20707-0.14226-0.97658 0.97850-0.05829-0.14930
   5   1   463772.75 2001.14   1 0.55902-0.23078-0.72127 0.68960-0.40896 0.68642
  -5  -1  -472029.31 2430.52   1-0.23297-0.09472-0.95823 0.98930-0.16588-0.11091
   5   1   545781.56 1454.81   1 0.67952-0.37292-0.61826 0.55740-0.39495 0.74177
  -5  -1  -552975.00 1796.14   1-0.25215-0.05390-0.93398 0.99422-0.25315-0.09284
  -5  -1  -634898.02 1125.20   1-0.84147 0.55749 0.41318-0.32418 0.34812-0.76426
  -5  -1  -637342.38 1386.86   1-0.26766-0.01670-0.90661 0.99586-0.32619-0.08930
  -5  -1  -7  -22.72  126.25   1-0.27955 0.01683-0.87703 0.99542-0.39070-0.09404
  -5  -1  -813472.43  651.53   1-0.28865 0.04798-0.84482 0.99346-0.45050-0.10354
  -5  -1  -9  968.79  291.48   1-0.29655 0.07749-0.81179 0.98971-0.50302-0.12028
  -5  -1 -10 6324.82  583.49   1-0.30304 0.10558-0.77717 0.98435-0.55150-0.14105
  -5  -1 -11  124.31  205.40   1-0.30830 0.13244-0.74088 0.97733-0.59668-0.16513
  -5  -1 -12   72.20  215.54   1-0.31244 0.15819-0.70283 0.96855-0.63905-0.19202
  -5  -2   8 1125.06  359.86   1-0.72431 0.13579 0.57232-0.97597 0.38446 0.17037
   5   2  -7  360.96  226.32   1 0.68363-0.11783-0.61417 0.98882-0.39424-0.09129
   5   2  -6  863.91  299.25   1 0.64706-0.10290-0.64910 0.99455-0.39995-0.01623
   5   2  -6  564.04  194.60   1-0.24907 0.79290 0.08420 0.26168-0.96481 0.55028
   5   2  -5 4119.31  449.82   1 0.61417-0.09165-0.67789 0.99414-0.40404 0.05722
   5   2  -4 1434.42  251.08   1 0.58584-0.08496-0.70089 0.98794-0.40685 0.12939
   5   2  -3  361.91  264.25   1 0.56315-0.08390-0.71822 0.97607-0.40867 0.20058
   5   2  -2 5092.06  432.09   1 0.54737-0.08975-0.72972 0.95838-0.40972 0.27100
   5   2  -114307.26  751.38   1 0.54008-0.10411-0.73489 0.93435-0.41015 0.34079
   5   2   010811.16  529.66   1 0.54322-0.12888-0.73268 0.90294-0.40997 0.40997
   5   2   164336.50 2109.17   1 0.55910-0.16640-0.72121 0.86227-0.40896 0.47832
   5   2   2   96.80  125.41   1 0.59046-0.21940-0.69724 0.80910-0.40643 0.54516
   5   2   3   61.52  119.83   1 0.64020-0.29077-0.65530 0.73796-0.40088 0.60897
  -5  -2  -419685.74  759.40   1-0.71200 0.38496 0.58587-0.64053 0.38704-0.66447
   5   2   417222.85  694.28   1 0.71066-0.38286-0.58611 0.63957-0.38914 0.66660
  -5  -2  -419504.06  784.72   1-0.17494-0.15214-0.98259 0.92823 0.06251-0.33947
  -5  -2  -5 1533.98  328.51   1-0.80272 0.49747 0.47313-0.49871 0.36301-0.70979
   5   2   5 1358.08  167.17   1 0.80175-0.49573-0.47402 0.49923-0.36398 0.71064
  -5  -2  -5 1818.79  392.26   1-0.20629-0.09932-0.97693 0.95161-0.05518-0.29081
  -5  -2  -6 1618.46  324.88   1-0.90252 0.61747 0.29116-0.28653 0.31727-0.73254
  -5  -2  -6 1506.88  292.78   1-0.23066-0.05331-0.96047 0.96430-0.15583-0.25935
  -5  -2  -7 1110.92  259.87   1-0.24997-0.01236-0.93731 0.97030-0.24282-0.24157
  -5  -2  -8 9466.57  568.79   1-0.26622 0.02554-0.90967 0.97160-0.31876-0.23523
  -5  -2  -976686.40 1597.78   1-0.27892 0.05988-0.87881 0.96988-0.38715-0.23609
  -5  -2 -1039494.77 1239.30   1-0.28876 0.09190-0.84440 0.96607-0.45121-0.24135
  -5  -2 -11 5249.87  535.27   1-0.29723 0.12197-0.80854 0.95948-0.50784-0.25398
  -5  -2 -12  151.33  218.84   1-0.30411 0.15045-0.77055 0.95076-0.56014-0.27093
  -5  -3   7  194.35  208.96   1-0.77483 0.20861 0.51129-0.97136 0.37176 0.11372
   5   3  -7  416.75  380.43   1 0.77347-0.20812-0.51191 0.97169-0.37373-0.11181
  -5  -3   6 -114.38  157.37   1-0.74544 0.20102 0.54791-0.97890 0.37959 0.03653
   5   3  -6   67.87  152.78   1 0.74390-0.20019-0.54856 0.97914-0.38167-0.03451
  -5  -3   5   46.61  158.42   1-0.71940 0.19677 0.57778-0.97968 0.38551-0.03873
   5   3  -5   95.69  154.06   1 0.71771-0.19563-0.57844 0.97982-0.38767 0.04085
  -5  -3   4 1518.30  295.00   1-0.69758 0.19673 0.60117-0.97399 0.38984-0.11241
   5   3  -4 1050.53  264.46   1 0.69575-0.19531-0.60184 0.97402-0.39205 0.11460
   5   3  -3  778.13  203.59   1 0.67902-0.20021-0.61876 0.96175-0.39504 0.18694
   5   3  -2 3394.55  397.11   1 0.66860-0.21143-0.62893 0.94271-0.39675 0.25802
   5   3  -1 6087.26  431.18   1 0.66575-0.23021-0.63166 0.91625-0.39719 0.32783
   5   3   0 1929.46  289.28   1 0.67186-0.25796-0.62578 0.88116-0.39622 0.39622
  -5  -3  -123592.27  967.68   1-0.69041 0.29852 0.60855-0.83595 0.39114-0.46049
   5   3   121035.86  906.79   1 0.68841-0.29615-0.60935 0.83554-0.39340 0.46276
  -5  -3  -2 7559.52  434.09   1-0.71873 0.34863 0.57852-0.77684 0.38566-0.52437
   5   3   2 7604.01  412.63   1 0.71679-0.34616-0.57945 0.77644-0.38787 0.52659
  -5  -3  -326229.97 1079.64   1-0.75975 0.41144 0.53050-0.69973 0.37594-0.58401
   5   3   324094.73  942.89   1 0.75791-0.40892-0.53162 0.69941-0.37807 0.58617
  -5  -3  -481883.96 2635.12   1-0.81309 0.48658 0.45795-0.59811 0.35936-0.63679
   5   3   474150.91 2359.68   1 0.81214-0.48484-0.45889 0.59859-0.36032 0.63765
  -5  -3  -5 1089.61  246.19   1-0.87377 0.56753 0.35245-0.46249 0.33511-0.68117
  -5  -3  -5 1096.58  319.27   1-0.15684-0.14814-0.97951 0.86879 0.12630-0.47249
  -5  -3  -6 3106.62  247.35   1-0.93571 0.65090 0.20184-0.28263 0.28931-0.70458
  -5  -3  -6 3413.37  815.47   1-0.18935-0.09418-0.98185 0.90013 0.01011-0.42530
  -5  -3  -7 1230.46  152.42   1-0.97653 0.71314-0.00832-0.04321 0.21519-0.69967
  -5  -3  -7 1262.65  279.82   1-0.21586-0.04604-0.97192 0.91935-0.09367-0.39072
  -5  -3  -8  446.83  230.37   1-0.23755-0.00270-0.95339 0.92999-0.18602-0.36757
  -5  -3  -9 8246.01 1358.36   1-0.25539 0.03677-0.92874 0.93449-0.26871-0.35407
  -5  -3 -10 6571.59  631.62   1-0.27086 0.07386-0.89942 0.93403-0.34302-0.34947
  -5  -3 -11  579.91  255.48   1-0.28308 0.10772-0.86653 0.93028-0.41107-0.35067
  -5  -3 -12   54.60  199.49   1-0.29254 0.13948-0.82954 0.92424-0.47567-0.35540
  -5  -3 -13   82.34  214.62   1-0.30070 0.16924-0.79069 0.91466-0.53326-0.36706
  -5  -4   6 1357.32  359.70   1-0.82383 0.27993 0.44161-0.95809 0.35534 0.06078
   5   4  -6 1417.15  409.30   1 0.82336-0.28021-0.44187 0.95806-0.35611-0.05987
  -5  -4   5  245.34  162.91   1-0.80346 0.28134 0.47207-0.95947 0.36275-0.01597
   5   4  -5  -93.58  160.69   1 0.80291-0.28139-0.47236 0.95944-0.36358 0.01692
  -5  -4   4  885.24  233.98   1-0.78670 0.28638 0.49548-0.95380 0.36821-0.09078
   5   4  -4  732.03  226.39   1 0.78610-0.28619-0.49579 0.95376-0.36908 0.09175
  -5  -4   3 2372.70  474.94   1-0.77441 0.29588 0.51183-0.94107 0.37189-0.16382
   5   4  -3 2674.87  395.36   1 0.77254-0.29417-0.51312 0.94123-0.37400 0.16591
  -5  -4   2 4891.80  843.16   1-0.76745 0.31071 0.52080-0.92095 0.37386-0.23514
   5   4  -2 4283.21  454.70   1 0.76548-0.30876-0.52215 0.92106-0.37601 0.23728
  -5  -4   1 3999.24  906.60   1-0.76673 0.33178 0.52172-0.89279 0.37405-0.30470
   5   4  -1 3450.94  414.33   1 0.76470-0.32961-0.52313 0.89285-0.37622 0.30686
  -5  -4   0 1099.91  177.63   1-0.77314 0.35998 0.51349-0.85547 0.37225-0.37225
   5   4   0 1363.34  276.78   1 0.77109-0.35764-0.51499 0.85551-0.37442 0.37442
  -5  -4  -119095.17 1038.85   1-0.78745 0.39608 0.49447-0.80737 0.36798-0.43733
   5   4   117786.08  822.93   1 0.78663-0.39482-0.49508 0.80749-0.36891 0.43824
  -5  -4  -230996.36 1205.92   1-0.81013 0.44055 0.46235-0.74616 0.36043-0.49914
   5   4   230563.89 1213.17   1 0.80926-0.43907-0.46314 0.74644-0.36136 0.50002
  -5  -4  -3  165.92  168.68   1-0.84101 0.49322 0.41396-0.66869 0.34832-0.55639
  -5  -4  -4  747.62  210.15   1-0.87708 0.54967 0.34591-0.57062 0.33326-0.61011
  -5  -4  -5  450.74  115.95   1-0.91805 0.61206 0.25268-0.44815 0.30550-0.65156
  -5  -4  -6   -3.57   89.91   1-0.95563 0.67107 0.12886-0.29508 0.26486-0.68013
  -5  -4  -6  220.37  149.80   1-0.14811-0.13477-0.97658 0.80950 0.15600-0.57143
  -5  -4  -7  863.10  138.59   1-0.97792 0.71478-0.03053-0.10644 0.20670-0.69119
  -5  -4  -7 1087.23  263.81   1-0.17997-0.08126-0.98267 0.84477 0.04424-0.52891
  -5  -4  -8 1230.12  184.40   1-0.96552 0.72381-0.22790 0.12017 0.12575-0.67945
  -5  -4  -8 1976.46  479.98   1-0.20690-0.03292-0.97666 0.86770-0.05759-0.49599
  -5  -4  -9 8051.27 1733.77   1-0.22956 0.01137-0.96149 0.88168-0.15109-0.47169
  -5  -4 -10  927.39  261.02   1-0.24860 0.05206-0.93931 0.88866-0.23640-0.45558
  -5  -4 -11 2564.16  425.22   1-0.26532 0.09037-0.91152 0.88967-0.31418-0.44756
  -5  -4 -12  317.20  286.24   1-0.27871 0.12540-0.87940 0.88668-0.38596-0.44503
  -5  -4 -13  195.88  235.17   1-0.28927 0.15841-0.84249 0.88095-0.45444-0.44589
  -5  -5   6  366.33  213.04   1-0.88337 0.34197 0.33317-0.93579 0.32962 0.08564
  -5  -5   5   76.98  113.13   1-0.86766 0.34768 0.36420-0.93757 0.33840 0.00765
  -5  -5   4  180.83  168.23   1-0.85579 0.35599 0.38847-0.93228 0.34162-0.06420
  -5  -5   3 1642.33  652.99   1-0.84654 0.36853 0.40461-0.91933 0.34589-0.13782
  -5  -5   2    7.59   95.60   1-0.84154 0.38532 0.41306-0.89871 0.34809-0.20938
  -5  -5   1 2218.47  453.27   1-0.84141 0.40698 0.41328-0.86984 0.34815-0.27879
  -5  -5   011580.90 1030.06   1-0.84667 0.43403 0.40439-0.83187 0.34583-0.34583
  -5  -5  -1  356.81  181.34   1-0.85765 0.46680 0.38513-0.78353 0.34073-0.41008
  -5  -5  -211199.13 1976.79   1-0.87290 0.50289 0.35413-0.72277 0.33558-0.47401
  -5  -5  -3 1757.79  334.46   1-0.89459 0.54600 0.30920-0.64860 0.32264-0.53028
  -5  -5  -514570.02  703.61   1-0.94594 0.64020 0.16723-0.44812 0.27789-0.62395
  -5  -5  -6 1982.54  294.13   1-0.96804 0.68372 0.06482-0.31647 0.24227-0.65754
  -5  -5  -7 1312.36  233.41   1-0.97893 0.71604-0.06133-0.16106 0.19473-0.67922
  -5  -5  -7 1339.89  280.68   1-0.14568-0.11510-0.97561 0.75217 0.16416-0.64883
  -5  -5  -8 9149.94  449.93   1-0.96830 0.72683-0.21150 0.01834 0.13286-0.68656
  -5  -5  -811520.60 1586.36   1-0.17618-0.06296-0.98264 0.78838 0.05804-0.61195
  -5  -5  -9 3321.13  306.08   1-0.92215 0.70210-0.38293 0.21903 0.05463-0.67754
  -5  -5  -9 4194.68 1139.04   1-0.20263-0.01511-0.97840 0.81304-0.04078-0.58200
  -5  -5 -10   46.85  247.62   1-0.22540 0.02929-0.96509 0.82889-0.13334-0.55864
  -5  -5 -11  -93.89  188.97   1-0.24488 0.07042-0.94445 0.83740-0.21916-0.54202
  -5  -5 -12 1090.87  312.76   1-0.26223 0.10932-0.91766 0.83935-0.29852-0.53248
  -5  -5 -13  320.39  255.13   1-0.27628 0.14500-0.88601 0.83683-0.37235-0.52789
  -5  -6   5  345.33  259.84   1-0.91578 0.39606 0.25860-0.91740 0.30733 0.03872
  -5  -6   4  968.85  344.38   1-0.90609 0.40779 0.28273-0.91228 0.31472-0.03787
  -5  -6   3 4714.86 1144.20   1-0.89901 0.42213 0.29927-0.89958 0.31969-0.11205
  -5  -6   214836.93 1138.17   1-0.89509 0.43963 0.30808-0.87914 0.32231-0.18388
  -5  -6   1  417.27  306.94   1-0.89477 0.46073 0.30880-0.85061 0.32252-0.25331
  -5  -6   0   42.26   86.06   1-0.89834 0.48573 0.30080-0.81336 0.32015-0.32015
  -5  -6  -1  112.29  175.09   1-0.90589 0.51471 0.28320-0.76651 0.31487-0.38408
  -5  -6  -214094.19 1157.67   1-0.91721 0.54745 0.25488-0.70895 0.30618-0.44461
  -5  -6  -313286.74  733.89   1-0.93160 0.58326 0.21451-0.63933 0.29341-0.50105
  -5  -6  -414599.70  787.57   1-0.94774 0.62083 0.16057-0.55614 0.27565-0.55250
  -5  -6  -5 1346.52  283.72   1-0.96343 0.65793 0.09154-0.45787 0.25182-0.59788
  -5  -6  -6 6600.49  459.22   1-0.97533 0.69126 0.00609-0.34316 0.22063-0.63591
  -5  -6  -710285.99  524.12   1-0.97877 0.71613-0.09657-0.21125 0.18073-0.66522
  -5  -6  -8  989.92  237.26   1-0.96753 0.72631-0.21622-0.06235 0.13082-0.68452
  -5  -6  -8 1642.83  357.35   1-0.14759-0.09109-0.97638 0.69658 0.15776-0.71167
  -5  -6  -9  401.26  243.48   1-0.93374 0.71394-0.35104 0.10171 0.06985-0.69277
  -5  -6  -9  319.16  175.41   1-0.17649-0.04055-0.98265 0.73203 0.05691-0.68006
  -5  -6 -10  423.38  181.92   1-0.20203 0.00636-0.97862 0.75686-0.03844-0.65354
  -5  -6 -11  -47.08  164.02   1-0.22440 0.05038-0.96589 0.77329-0.12914-0.63204
  -5  -6 -12  728.34  267.03   1-0.24383 0.09144-0.94583 0.78238-0.21434-0.61604
  -5  -6 -13  714.31  409.58   1-0.26135 0.13047-0.91934 0.78456-0.29409-0.60615
  -5  -7   4    6.28  229.17   1-0.94203 0.44397 0.18103-0.89602 0.28248-0.00563
  -5  -7   312951.25  882.09   1-0.93678 0.46014 0.19844-0.88417 0.28820-0.08056
  -5  -7   211520.58  848.04   1-0.93367 0.47846 0.20819-0.86468 0.29137-0.15294
  -5  -7   1 1992.04  425.69   1-0.93306 0.49928 0.21007-0.83731 0.29198-0.22276
  -5  -7   0    2.11  210.54   1-0.93513 0.52276 0.20367-0.80166 0.28990-0.28990
  -5  -7  -1    6.52  186.56   1-0.93985 0.54891 0.18841-0.75715 0.28491-0.35413
  -5  -7  -2 3399.58  481.86   1-0.94694 0.57743 0.16355-0.70304 0.27665-0.41508
  -5  -7  -3 1979.81  367.01   1-0.95578 0.60768 0.12823-0.63848 0.26464-0.47228
  -5  -7  -4  942.56  299.76   1-0.96525 0.63858 0.08154-0.56254 0.24827-0.52512
  -5  -7  -5 4948.93  463.05   1-0.97367 0.66843 0.02261-0.47436 0.22680-0.57287
  -5  -7  -6   48.96  152.19   1-0.97866 0.69484-0.04927-0.37323 0.19945-0.61472
  -5  -7  -7 4099.42  412.69   1-0.97703 0.71463-0.13440-0.25884 0.16535-0.64984
  -5  -7  -8  218.12  197.42   1-0.96469 0.72371-0.23248-0.13151 0.12374-0.67744
  -5  -7  -9   36.39  143.54   1-0.93668 0.71712-0.34227 0.00751 0.07398-0.69690
  -5  -7  -9  449.09  211.19   1-0.15259-0.06400-0.97820 0.64203 0.14084-0.76399
  -5  -7 -10  200.39  191.76   1-0.88394 0.69264-0.46744 0.15925 0.01158-0.70348
  -5  -7 -10  129.36  109.97   1-0.17986-0.01508-0.98267 0.67569 0.04464-0.73702
  -5  -7 -11  133.75  132.46   1-0.20429 0.03070-0.97776 0.69960-0.04731-0.71387
  -5  -7 -12   74.08  151.56   1-0.22598 0.07403-0.96461 0.71561-0.13582-0.69456
  -5  -8   2 1414.25  422.18   1-0.95910 0.50414 0.11318-0.85510 0.25942-0.12100
  -5  -8   1  196.06  236.66   1-0.95834 0.52480 0.11674-0.82941 0.26066-0.19145
  -5  -8   0 4435.14  538.77   1-0.95925 0.54713 0.11248-0.79590 0.25918-0.25918
  -5  -8  -1   49.99  190.16   1-0.96179 0.57110 0.10004-0.75421 0.25482-0.32403
  -5  -8  -214424.43  923.54   1-0.96570 0.59643 0.07895-0.70387 0.24734-0.38577
  -5  -8  -3 5204.22  528.85   1-0.97043 0.62258 0.04868-0.64436 0.23641-0.44405
  -5  -8  -4 2967.82  466.22   1-0.97509 0.64867 0.00868-0.57511 0.22161-0.49846
  -5  -8  -5 1684.77  349.02   1-0.97841 0.67341-0.04154-0.49563 0.20245-0.54851
  -5  -8  -6   92.03  175.03   1-0.97861 0.69504-0.10238-0.40554 0.17839-0.59367
  -5  -8  -7  -57.06  137.28   1-0.97343 0.71128-0.17391-0.30477 0.14890-0.63339
  -5  -8  -8   43.71  149.09   1-0.96004 0.71931-0.25582-0.19360 0.11346-0.66716
  -5  -8 -10  -56.46  130.61   1-0.89131 0.70088-0.45299 0.05942 0.01889-0.71079
  -5  -8 -10  -45.39  167.46   1-0.15985-0.03464-0.98031 0.58779 0.11588-0.80826
  -5  -8 -11  354.73  148.66   1-0.18553 0.01237-0.98233 0.61861 0.02440-0.78559
  -5  -8 -12  310.45  268.95   1-0.20880 0.05729-0.97578 0.64122-0.06517-0.76521
  -5  -9   1  533.26  357.21   1-0.97301 0.53972 0.02844-0.82654 0.22897-0.15976
  -5  -9   0  264.63  308.48   1-0.97322 0.56135 0.02661-0.79546 0.22829-0.22829
  -5  -9  -1  107.52  176.15   1-0.97425 0.58380 0.01718-0.75678 0.22479-0.29400
  -5  -9  -2 2853.06  421.19   1-0.97587 0.60685-0.00009-0.71025 0.21830-0.35673
  -5  -9  -3 2703.92  448.50   1-0.97766 0.63006-0.02555-0.65555 0.20862-0.41625
  -5  -9  -4 1001.11  337.32   1-0.97890 0.65273-0.05950-0.59234 0.19544-0.47229
  -5  -9  -5 1519.58  363.39   1-0.97862 0.67386-0.10224-0.52036 0.17845-0.52451
  -5  -9  -6  893.17  297.81   1-0.97548 0.69215-0.15392-0.43943 0.15728-0.57255
  -5  -9  -7 2695.35  418.21   1-0.96781 0.70590-0.21455-0.34955 0.13154-0.61603
  -5  -9  -8 1958.19  430.16   1-0.95354 0.71306-0.28383-0.25102 0.10091-0.65461
  -5  -9  -9  506.20  263.52   1-0.93024 0.71118-0.36112-0.14449 0.06508-0.68799
  -5  -9 -10   57.99  170.62   1-0.89186 0.70230-0.45187-0.02706 0.01946-0.71135
  -5  -9 -10  220.27  225.74   1-0.14265-0.05138-0.97430 0.49624 0.17427-0.86665
  -5  -9 -11  329.27  267.07   1-0.16883-0.00356-0.98202 0.53314 0.08439-0.84601
  -5 -10  -1  378.02  327.49   1-0.97893 0.58873-0.06104-0.76398 0.19484-0.26405
  -5 -10  -2  237.21  239.48   1-0.97904 0.61026-0.07463-0.72114 0.18948-0.32791
  -5 -10  -3  480.92  313.69   1-0.97880 0.63144-0.09560-0.67092 0.18112-0.38876
  -5 -10  -4  237.08  294.15   1-0.97766 0.65173-0.12413-0.61314 0.16956-0.44641
  -5 -10  -5  385.23  299.42   1-0.97487 0.67037-0.16036-0.54767 0.15459-0.50065
  -5 -10  -6 1820.75  419.18   1-0.96941 0.68633-0.20434-0.47444 0.13595-0.55122
  -5 -10  -7 4803.16  592.63   1-0.96000 0.69834-0.25600-0.39353 0.11338-0.59786
  -5 -10  -8 2873.81  509.64   1-0.94509 0.70486-0.31509-0.30518 0.08663-0.64033
  -5 -10  -9  746.53  317.19   1-0.92285 0.70404-0.38112-0.20991 0.05550-0.67842
  -5 -10 -10  416.97  375.38   1-0.88783 0.69914-0.45990-0.10441 0.01541-0.70731
  -5 -11  -5  541.06  236.54   1-0.96748 0.66322-0.21654-0.57692 0.13068-0.47675
  -5 -11  -6  322.13  396.85   1-0.96044 0.67761-0.25392-0.51028 0.11430-0.52957
  -5 -11  -7  130.21  231.01   1-0.94985 0.68844-0.29807-0.43689 0.09444-0.57893
   6  -9  -4 1788.92  482.23   1-0.38066 0.97203-0.88588 0.23454-0.26512-0.01184
   6  -9  -3 3004.06  593.64   1-0.40989 0.97959-0.87584 0.19539-0.25471 0.04698
   6  -9  -210081.95  802.21   1-0.43364 0.98168-0.86687 0.15731-0.24592 0.10744
   6  -9  -1 5816.09  661.19   1-0.45164 0.97802-0.85956 0.12090-0.23907 0.16982
   6  -9   0 3421.67  540.76   1-0.46353 0.96825-0.85450 0.08672-0.23444 0.23444
   6  -8  -6   71.50  210.48   1-0.27260 0.90643-0.91411 0.40629-0.30013-0.11532
   6  -8  -5 2075.99  481.80   1-0.31595 0.92812-0.90441 0.36748-0.28672-0.05948
   6  -8  -4 3573.49  599.35   1-0.35414 0.94465-0.89408 0.32804-0.27421-0.00275
   6  -8  -3  -20.96  177.67   1-0.38698 0.95583-0.88380 0.28866-0.26291 0.05518
   6  -8  -2  559.58  350.08   1-0.41424 0.96143-0.87425 0.25000-0.25312 0.11464
   6  -8  -1 3574.30  512.27   1-0.43561 0.96113-0.86609 0.21273-0.24518 0.17594
   6  -8   0  636.96  364.07   1-0.45068 0.95454-0.85997 0.17750-0.23944 0.23944
   6  -8   1 2799.64  438.45   1-0.45889 0.94109-0.85650 0.14492-0.23626 0.30550
   6  -8   2 2616.95  456.76   1-0.45943 0.91998-0.85626 0.11558-0.23604 0.37453
   6  -7  -7 2362.36  517.44   1-0.17535 0.82998-0.92850 0.53510-0.32729-0.15740
   6  -7  -6  981.55  336.78   1-0.22725 0.86023-0.92206 0.49955-0.31328-0.10216
   6  -7  -5  725.37  307.73   1-0.27425 0.88556-0.91378 0.46216-0.29963-0.04657
   6  -7  -4 3542.36  516.47   1-0.31612 0.90577-0.90436 0.42364-0.28667 0.00970
   6  -7  -3 4634.10  551.31   1-0.35261 0.92060-0.89452 0.38469-0.27473 0.06700
   6  -7  -2  367.78  323.54   1-0.38343 0.92976-0.88498 0.34604-0.26416 0.12567
   6  -7  -1  369.29  331.68   1-0.40820 0.93287-0.87645 0.30840-0.25532 0.18608
   6  -7   0  479.75  391.18   1-0.42647 0.92948-0.86966 0.27250-0.24861 0.24861
   6  -7   1 4164.40  506.11   1-0.43760 0.91894-0.86530 0.23903-0.24443 0.31367
   6  -7   2  392.71  345.20   1-0.44071 0.90040-0.86405 0.20868-0.24325 0.38173
   6  -7   3 4008.19  470.16   1-0.43453 0.87256-0.86652 0.18203-0.24559 0.45332
  -6   7  -3 3844.57  450.26   1-0.25427-0.18104 0.05841 0.62650-0.96536 0.75810
  -6   7  -411299.47  770.23   1-0.26466-0.14903 0.00386 0.71025-0.96433 0.68798
  -6   7  -5  105.65  215.78   1-0.27153-0.12054-0.03486 0.77818-0.96179 0.61635
   6  -6  -8 8353.63  811.45   1-0.05363 0.72960-0.93290 0.65462-0.35610-0.19782
   6  -6  -711028.16  859.30   1-0.11317 0.76752-0.93256 0.62512-0.34281-0.14187
   6  -6  -6  782.65  383.66   1-0.16923 0.80135-0.92908 0.59188-0.32887-0.08658
   6  -6  -5  720.08  346.18   1-0.21955 0.83001-0.92319 0.55689-0.31543-0.03077
   6  -6  -4  139.85  211.57   1-0.26485 0.85365-0.91563 0.52021-0.30244 0.02547
   6  -6  -3  839.36  303.46   1-0.30481 0.87195-0.90710 0.48257-0.29025 0.08252
   6  -6  -2 2342.50  443.37   1-0.33905 0.88453-0.89836 0.44473-0.27924 0.14075
   6  -6  -1   62.67  208.25   1-0.36712 0.89093-0.89018 0.40743-0.26981 0.20057
   6  -6   0  292.19  169.87   1-0.38843 0.89059-0.88332 0.37147-0.26240 0.26240
   6  -6   1 1830.89  365.32   1-0.40227 0.88276-0.87856 0.33760-0.25746 0.32671
   6  -6   2 6498.00  515.60   1-0.40762 0.86645-0.87666 0.30659-0.25553 0.39402
  -6   6  -2 5745.17  467.62   1-0.25686-0.19972 0.04519 0.52519-0.96538 0.82721
   6  -6   3 1018.69  456.35   1-0.40302 0.84019-0.87830 0.27912-0.25719 0.46492
  -6   6  -3  271.35  205.48   1-0.27176-0.16320-0.03619 0.63578-0.96168 0.75441
   6  -6   4  259.26  278.02   1-0.38626 0.80177-0.88404 0.25576-0.26316 0.54013
  -6   6  -4  221.98  169.42   1-0.28118-0.13217-0.09360 0.72240-0.95507 0.67872
  -6   6  -5  632.49  333.61   1-0.28706-0.10467-0.13266 0.79066-0.94868 0.60324
  -6   6  -6  515.90  315.78   1-0.29058-0.07953-0.15751 0.84471-0.94379 0.52926
   6  -5  -8  997.42  323.20   1 0.02244 0.65262-0.92832 0.73529-0.37110-0.18282
   6  -5  -7  -19.35  199.11   1-0.03918 0.69262-0.93246 0.71028-0.35912-0.12556
   6  -5  -6  268.29  271.73   1-0.09660 0.72841-0.93300 0.68167-0.34664-0.06879
   6  -5  -5 5764.80  577.35   1-0.15055 0.76015-0.93061 0.64961-0.33360-0.01260
   6  -5  -4   74.01  194.66   1-0.19868 0.78662-0.92595 0.61584-0.32113 0.04416
   6  -5  -346720.15 1295.26   1-0.24157 0.80785-0.91979 0.58057-0.30922 0.10150
   6  -5  -2 1857.51  305.73   1-0.27875 0.82337-0.91286 0.54454-0.29828 0.15979
   6  -5  -1 2600.57  388.57   1-0.30964 0.83260-0.90595 0.50851-0.28873 0.21948
   6  -5   0   24.56  186.80   1-0.33355 0.83485-0.89986 0.47331-0.28104 0.28104
   6  -5   127076.43  887.32   1-0.34957 0.82921-0.89540 0.43975-0.27575 0.34499
  -6   5  -128988.24  754.96   1-0.25113-0.22673 0.07410 0.38174-0.96511 0.89602
   6  -5   228251.88  880.82   1-0.35648 0.81445-0.89339 0.40863-0.27343 0.41191
  -6   5  -229365.81  813.06   1-0.27500-0.18124-0.05531 0.54037-0.95984 0.82167
   6  -5   311763.39  631.04   1-0.35253 0.78885-0.89455 0.38068-0.27475 0.48248
  -6   5  -311775.46  591.49   1-0.28853-0.14610-0.14286 0.65712-0.94675 0.73948
   6  -5   4 2413.35  310.31   1-0.33508 0.74973-0.89945 0.35647-0.28054 0.55751
  -6   5  -4 2951.94  355.54   1-0.29578-0.11702-0.20078 0.74423-0.93391 0.65758
  -6   5  -5  710.29  248.16   1-0.30024-0.09090-0.23814 0.81078-0.92365 0.57824
  -6   5  -6   33.15  190.29   1-0.30269-0.06680-0.26023 0.86206-0.91687 0.50237
  -6   5  -7 1093.60  311.40   1-0.30380-0.04402-0.27079 0.90182-0.91343 0.42986
  -6   5  -8 4856.70  586.11   1-0.30397-0.02220-0.27237 0.93258-0.91291 0.36025
   6  -4  -8   96.59  205.28   1 0.10997 0.56418-0.91608 0.80831-0.38561-0.16831
   6  -4  -7 1825.80  405.12   1 0.04746 0.60506-0.92558 0.78866-0.37554-0.10913
   6  -4  -6  436.73  271.70   1-0.01117 0.64208-0.93104 0.76495-0.36474-0.05069
   6  -4  -5 2653.85  427.88   1-0.06561 0.67489-0.93311 0.73787-0.35353 0.00733
   6  -4  -4 1956.19  317.23   1-0.11544 0.70309-0.93248 0.70808-0.34227 0.06531
   6  -4  -3 2472.67  417.21   1-0.16122 0.72664-0.92978 0.67587-0.33091 0.12319
   6  -4  -2 1515.99  333.74   1-0.20034 0.74410-0.92575 0.64273-0.32068 0.18220
   6  -4  -1 1780.66  358.41   1-0.23308 0.75518-0.92116 0.60904-0.31164 0.24240
   6  -4   0 2745.47  384.95   1-0.25858 0.75902-0.91680 0.57557-0.30429 0.30429
   6  -4   133330.54  938.63   1-0.27569 0.75447-0.91349 0.54314-0.29920 0.36844
  -6   4  -132990.67  697.85   1-0.27045-0.20707-0.02857 0.39909-0.96230 0.89322
   6  -4   2206556.8 2127.05   1-0.28289 0.74001-0.91200 0.51254-0.29702 0.43550
  -6   4  -2211529.4 1914.18   1-0.29244-0.16334-0.17482 0.57455-0.94016 0.80200
   6  -4   3 6195.75  407.14   1-0.27800 0.71345-0.91302 0.48446-0.29850 0.50623
  -6   4  -3 6731.55  414.83   1-0.30319-0.13094-0.26492 0.69384-0.91536 0.70811
   6  -4   4 3975.44  347.75   1-0.25765 0.67145-0.91697 0.45931-0.30456 0.58153
  -6   4  -4 3772.45  360.75   1-0.30854-0.10392-0.32003 0.77814-0.89575 0.61942
   6  -4   5 6455.84  395.80   1-0.21626 0.60839-0.92366 0.43688-0.31634 0.66255
  -6   4  -5 8373.12  565.69   1-0.31134-0.07919-0.35217 0.83980-0.88263 0.53707
  -6   4  -6 3763.37  456.38   1-0.31260-0.05627-0.36897 0.88580-0.87529 0.46062
  -6   4  -7 1537.11  308.50   1-0.31300-0.03421-0.37455 0.92060-0.87277 0.38899
  -6   4  -8  525.87  325.33   1-0.31279-0.01276-0.37167 0.94692-0.87407 0.32119
  -6   4  -9  457.13  325.44   1-0.31209 0.00819-0.36209 0.96655-0.87834 0.25634
   6  -3  -8  207.16  207.03   1 0.20734 0.46590-0.89354 0.87102-0.39823-0.15569
   6  -3  -7  720.13  294.97   1 0.14546 0.50615-0.90897 0.85730-0.39064-0.09403
   6  -3  -6  -41.01  178.02   1 0.08715 0.54284-0.91999 0.83916-0.38211-0.03333
   6  -3  -531492.76 1095.24   1 0.03275 0.57561-0.92726 0.81728-0.37296 0.02676
   6  -3  -410282.76  648.69   1-0.01724 0.60398-0.93141 0.79227-0.36355 0.08659
   6  -3  -3  101.72  226.35   1-0.06228 0.62741-0.93307 0.76477-0.35425 0.14653
   6  -3  -2  824.78  303.45   1-0.10169 0.64518-0.93289 0.73544-0.34548 0.20700
   6  -3  -1  -82.65  179.16   1-0.13560 0.65685-0.93158 0.70476-0.33728 0.26804
   6  -3   0 8505.12  503.25   1-0.16097 0.66055-0.92980 0.67387-0.33098 0.33098
   6  -3   1 6415.89  430.16   1-0.17732 0.65525-0.92831 0.64328-0.32678 0.39602
  -6   3  -1 6629.16  305.34   1-0.29177-0.18541-0.16620 0.45139-0.94193 0.87284
   6  -3   260318.01 1722.52   1-0.18272 0.63898-0.92776 0.61362-0.32537 0.46385
  -6   3  -263167.77 1658.29   1-0.30880-0.14664-0.32304 0.63743-0.89458 0.75641
   6  -3   3 6044.62  418.79   1-0.17436 0.60896-0.92860 0.58535-0.32755 0.53527
  -6   3  -3 5834.64  364.18   1-0.31508-0.11846-0.40666 0.75047-0.85752 0.65019
   6  -3   432960.80  760.05   1-0.14789 0.56083-0.93080 0.55844-0.33426 0.61123
  -6   3  -437249.73  918.63   1-0.31737-0.09451-0.45192 0.82495-0.83368 0.55724
  -6   3  -5 5600.11  433.58   1-0.31822-0.07199-0.47481 0.87704-0.82053 0.47498
  -6   3  -6 4743.07  398.88   1-0.31855-0.04968-0.48374 0.91520-0.81517 0.39991
  -6   3  -7  121.43  149.33   1-0.31845-0.02845-0.48204 0.94269-0.81622 0.33244
  -6   3  -8 3643.25  483.56   1-0.31818-0.00707-0.47340 0.96325-0.82137 0.26848
  -6   3  -9 1457.51  399.84   1-0.31765 0.01406-0.45903 0.97809-0.82968 0.20769
   6  -2  -8  492.38  244.18   1 0.31145 0.36075-0.85828 0.92109-0.40784-0.14641
   6  -2  -7  659.45  309.79   1 0.25182 0.39877-0.87981 0.91338-0.40312-0.08185
   6  -2  -6 1198.54  264.09   1 0.19590 0.43318-0.89668 0.90111-0.39694-0.01849
   6  -2  -5 7087.53  616.58   1 0.14339 0.46407-0.90942 0.88469-0.39036 0.04416
   6  -2  -415300.48  753.16   1 0.09512 0.49071-0.91868 0.86480-0.38335 0.10639
   6  -2  -3  342.66  229.73   1 0.05177 0.51244-0.92505 0.84201-0.37629 0.16856
   6  -2  -2  738.41  224.81   1 0.01412 0.52846-0.92909 0.81689-0.36956 0.23108
   6  -2  -1  363.76  220.77   1-0.01678 0.53774-0.93138 0.79003-0.36364 0.29440
   6  -2   0    4.63  161.79   1-0.03963 0.53897-0.93248 0.76197-0.35902 0.35902
   6  -2   115173.25  662.42   1-0.05266 0.53037-0.93288 0.73321-0.35630 0.42554
  -6   2  -115640.15  495.68   1-0.31250-0.16404-0.36759 0.56759-0.87590 0.80679
   6  -2   2  165.01  139.51   1-0.05343 0.50952-0.93290 0.70408-0.35614 0.49462
  -6   2  -2   -9.35   68.74   1-0.31916-0.13562-0.50843 0.73771-0.79977 0.66134
   6  -2   3 3044.76  305.60   1-0.03841 0.47287-0.93243 0.67446-0.35928 0.56700
  -6   2  -3 3502.17  258.19   1-0.31950-0.11358-0.56875 0.82721-0.75791 0.55028
   6  -2   417681.09  666.57   1-0.00205 0.41488-0.93041 0.64327-0.36651 0.64347
  -6   2  -419591.81  753.60   1-0.31909-0.09229-0.59506 0.88270-0.73761 0.46076
   6  -2   5  559.76  176.63   1 0.06519 0.32601-0.92327 0.60699-0.37855 0.72476
  -6   2  -5  297.96  187.91   1-0.31888-0.07080-0.60346 0.92028-0.73085 0.38479
  -6   2  -626955.08  854.27   1-0.31894-0.04903-0.60095 0.94694-0.73289 0.31762
  -6   2  -7 5093.10  434.83   1-0.31917-0.02710-0.59103 0.96620-0.74081 0.25633
  -6   2  -8  -40.38  162.94   1-0.31943-0.00515-0.57562 0.97997-0.75274 0.19905
  -6   2  -9  304.25  207.14   1-0.31957 0.01668-0.55583 0.98936-0.76741 0.14450
  -6   2 -10  621.75  313.81   1-0.31950 0.03831-0.53232 0.99503-0.78392 0.09181
   6  -1  -8 2038.60  462.38   1 0.41938 0.25236-0.80881 0.95715-0.41223-0.14202
   6  -1  -7  151.12  190.90   1 0.36369 0.28643-0.83610 0.95521-0.41067-0.07431
   6  -1  -6  517.31  278.16   1 0.31116 0.31736-0.85840 0.94827-0.40782-0.00786
   6  -1  -5  325.17  274.47   1 0.26227 0.34464-0.87632 0.93696-0.40406 0.05765
   6  -1  -4  -10.69  243.18   1 0.21761 0.36769-0.89042 0.92182-0.39973 0.12260
   6  -1  -313307.81  748.49   1 0.17790 0.38539-0.90137 0.90358-0.39481 0.18709
   6  -1  -2 3000.40  337.51   1 0.14416 0.39751-0.90925 0.88231-0.39047 0.25199
   6  -1  -1 2371.49  309.11   1 0.11750 0.40254-0.91467 0.85858-0.38672 0.31748
   6  -1   039105.41 1454.29   1 0.09949 0.39893-0.91794 0.83268-0.38403 0.38403
   6  -1   1 8768.00  453.70   1 0.09220 0.38460-0.91917 0.80476-0.38290 0.45214
  -6   1  -1 8518.44  257.81   1-0.31587-0.16001-0.65755 0.77233-0.68398 0.61472
   6  -1   2 5911.07  370.57   1 0.09850 0.35667-0.91811 0.77454-0.38387 0.52236
  -6   1  -2 6680.61  271.12   1-0.31066-0.14363-0.72070 0.86475-0.61973 0.48122
   6  -1   3 1414.79  229.21   1 0.12257 0.31098-0.91370 0.74098-0.38745 0.59517
  -6   1  -3 1928.03  228.70   1-0.30863-0.12405-0.73823 0.91155-0.59978 0.39201
   6  -1   4 6120.95  338.37   1 0.17080 0.24112-0.90312 0.70124-0.39394 0.67090
  -6   1  -4 7235.99  362.59   1-0.30861-0.10247-0.73839 0.94097-0.59960 0.32258
   6  -1   510298.41  450.63   1 0.25393 0.13690-0.87911 0.64741-0.40332 0.74973
  -6   1  -512200.78  601.87   1-0.30968-0.07980-0.72947 0.96132-0.60989 0.26361
  -6   1  -6 5241.70  396.67   1-0.31128-0.05660-0.71478 0.97591-0.62624 0.21070
  -6   1  -7 1877.82  270.56   1-0.31307-0.03320-0.69592 0.98631-0.64627 0.16147
  -6   1  -8 4760.46  458.43   1-0.31482-0.00985-0.67371 0.99337-0.66857 0.11452
  -6   1  -9 1515.55  349.28   1-0.31638 0.01331-0.64860 0.99753-0.69225 0.06894
  -6   1 -10  299.69  280.08   1-0.31828 0.03735-0.62178 0.99902-0.71559 0.02348
  -6   1 -11  519.62  256.48   1-0.31916 0.05993-0.59156 0.99798-0.74039-0.02092
   6   0  -8  540.73  355.22   1 0.52526 0.14610-0.74514 0.97873-0.41092-0.14398
   6   0  -7  552.50  275.63   1 0.47523 0.17444-0.77733 0.98197-0.41219-0.07278
   6   0  -6 1474.95  398.29   1 0.42781 0.20025-0.80433 0.97973-0.41233-0.00335
   6   0  -5 6022.11  550.06   1 0.38400 0.22245-0.82660 0.97277-0.41142 0.06500
   6   0  -4  631.92  253.62   1 0.34447 0.24037-0.84463 0.96157-0.40977 0.13264
   6   0  -328400.36  923.71   1 0.31005 0.25318-0.85883 0.94653-0.40775 0.19990
   6   0  -2 7147.44  522.37   1 0.28176 0.25986-0.86949 0.92796-0.40569 0.26712
   6   0  -118000.00  818.63   1 0.26092 0.25910-0.87678 0.90601-0.40394 0.33466
   6   0   0 3665.63  354.37   1 0.24920 0.24920-0.88066 0.88066-0.40288 0.40288
   6   0   116591.29  803.57   1 0.24886 0.22793-0.88077 0.85154-0.40285 0.47213
  -6   0  -118046.26  632.29   1-0.25918-0.21670-0.92333 0.95247-0.28334 0.21409
   6   0   2 3280.28  318.71   1 0.26293 0.19226-0.87609 0.81763-0.40412 0.54269
  -6   0  -2 3486.09  205.54   1-0.26807-0.18617-0.90571 0.96400-0.32834 0.18984
   6   0   3 1206.81  217.94   1 0.29562 0.13796-0.86438 0.77668-0.40674 0.61459
  -6   0  -3 1033.94  153.22   1-0.27603-0.15656-0.88665 0.97408-0.37100 0.16325
   6   0   4 1360.61  205.98   1 0.35305 0.05892-0.84088 0.72394-0.41019 0.68733
  -6   0  -4 1656.58  199.59   1-0.28325-0.12771-0.86600 0.98257-0.41207 0.13507
   6   0   529871.91  905.70   1 0.44449-0.05412-0.79518 0.64901-0.41242 0.75884
  -6   0  -533353.44 1087.12   1-0.28918-0.09970-0.84283 0.98918-0.45386 0.10758
   6   0   610573.68  426.51   1 0.58774-0.21929-0.69940 0.52420-0.40668 0.82287
  -6   0  -612760.83  658.34   1-0.29503-0.07224-0.81880 0.99441-0.49245 0.07691
  -6   0  -7 9598.64  537.38   1-0.30026-0.04541-0.79306 0.99794-0.52999 0.04519
  -6   0  -8 6917.50  515.07   1-0.30488-0.01920-0.76558 0.99973-0.56650 0.01244
  -6   0  -9  652.80  249.71   1-0.30886 0.00639-0.73633 0.99975-0.60200-0.02130
  -6   0 -10  642.15  327.76   1-0.31222 0.03134-0.70524 0.99793-0.63650-0.05605
  -6   0 -11  245.38  242.80   1-0.31492 0.05565-0.67226 0.99421-0.66999-0.09183
   6   1  -7   79.60  184.39   1 0.58052 0.06875-0.70504 0.99456-0.40731-0.07823
   6   1  -6  476.71  317.17   1 0.53892 0.08872-0.73571 0.99603-0.41022-0.00596
   6   1  -5   15.12  140.72   1 0.50190 0.10409-0.76073 0.99243-0.41155 0.06513
   6   1  -4 3503.98  453.43   1 0.46822 0.11616-0.78152 0.98399-0.41229 0.13516
   6   1  -3  936.35  259.47   1 0.43970 0.12307-0.79785 0.97108-0.41241 0.20456
   6   1  -2 1024.11  253.38   1 0.41742 0.12375-0.80983 0.95383-0.41221 0.27364
   6   1  -1 8049.42  528.30   1 0.40269 0.11686-0.81740 0.93216-0.41193 0.34264
   6   1   0 1649.73  299.39   1 0.39719 0.10076-0.82015 0.90568-0.41180 0.41180
   6   1   122054.06  969.62   1 0.40303 0.07331-0.81723 0.87352-0.41194 0.48122
  -6  -1  -122025.95  823.53   1-0.15131-0.32408-0.97776 0.92140 0.14520-0.21444
   6   1   2  218.79  192.11   1 0.42294 0.03180-0.80693 0.83399-0.41228 0.55085
  -6  -1  -2  105.86   65.18   1-0.19107-0.26284-0.98156 0.95432 0.00363-0.14202
   6   1   3 4624.26  360.80   1 0.46038-0.02725-0.78612 0.78395-0.41237 0.62022
  -6  -1  -3 5414.30  805.99   1-0.21903-0.21323-0.96986 0.97177-0.10672-0.10086
   6   1   4 1015.27  178.86   1 0.52018-0.10889-0.74857 0.71691-0.41115 0.68860
  -6  -1  -4 1459.63  346.31   1-0.23974-0.17089-0.95088 0.98195-0.19582-0.08097
   6   1   5 5908.33  313.30   1 0.60744-0.21779-0.68350 0.62264-0.40476 0.75158
  -6  -1  -5 7111.26 1136.22   1-0.25583-0.13316-0.92800 0.98824-0.27083-0.07515
  -6  -1  -6 4332.18  595.37   1-0.72741 0.36039 0.56883-0.47982 0.38379-0.79992
   6   1   6 3278.84  222.53   1 0.72746-0.35945-0.56758 0.47751-0.38554 0.80172
  -6  -1  -6 4283.98  361.55   1-0.26942-0.09786-0.90272 0.99197-0.33540-0.08009
  -6  -1  -7  385.65  254.79   1-0.28014-0.06549-0.87533 0.99372-0.39408-0.09066
  -6  -1  -8 7875.45  551.64   1-0.28852-0.03495-0.84528 0.99392-0.44971-0.10433
  -6  -1  -9   50.54  210.81   1-0.29601-0.00586-0.81434 0.99225-0.49922-0.12408
  -6  -1 -10 6943.93  651.95   1-0.30228 0.02200-0.78170 0.98888-0.54549-0.14706
  -6  -1 -11  907.36  318.71   1-0.30747 0.04879-0.74730 0.98375-0.58906-0.17276
  -6  -1 -12   52.87  208.91   1-0.31165 0.07458-0.71106 0.97678-0.63027-0.20080
   6   2  -7  894.03  302.09   1 0.67687-0.02803-0.62088 0.99553-0.39540-0.09014
   6   2  -6 1338.58  352.69   1 0.64129-0.01409-0.65433 0.99978-0.40073-0.01544
   6   2  -510704.68  720.35   1 0.60917-0.00360-0.68207 0.99832-0.40458 0.05776
   6   2  -4  191.10  187.65   1 0.58124 0.00268-0.70448 0.99153-0.40725 0.12979
   6   2  -3 1904.82  345.71   1 0.55838 0.00391-0.72174 0.97959-0.40901 0.20092
   6   2  -2 5327.09  503.04   1 0.54160-0.00095-0.73382 0.96248-0.41007 0.27134
   6   2  -1  795.97  187.52   1 0.53214-0.01312-0.74043 0.93989-0.41058 0.34122
   6   2   0 7699.93  479.84   1 0.53145-0.03406-0.74091 0.91116-0.41062 0.41062
   6   2   110056.20  536.55   1 0.54128-0.06553-0.73405 0.87511-0.41008 0.47945
   6   2   2  -50.40  150.60   1 0.56368-0.10956-0.71782 0.82968-0.40863 0.54736
   6   2   3  531.61  169.43   1 0.60094-0.16846-0.68883 0.77149-0.40543 0.61352
  -6  -2  -3  458.21  127.82   1-0.15250-0.27914-0.97817 0.89462 0.14115-0.34887
   6   2   410442.12  481.64   1 0.65536-0.24452-0.64146 0.69492-0.39877 0.67622
  -6  -2  -410108.37  420.09   1-0.18626-0.22393-0.98226 0.92777 0.02166-0.29846
  -6  -2  -573777.95 2131.57   1-0.72949 0.34120 0.56647-0.59205 0.38332-0.73010
   6   2   568130.29 1786.37   1 0.72853-0.33933-0.56637 0.59063-0.38530 0.73212
  -6  -2  -575164.64 2253.59   1-0.21292-0.17563-0.97364 0.94832-0.08172-0.26426
  -6  -2  -6 2812.86  541.58   1-0.82025 0.45375 0.44713-0.44363 0.35671-0.77285
   6   2   6 2762.00  255.58   1 0.81943-0.45206-0.44792 0.44401-0.35762 0.77361
  -6  -2  -6 2958.58  663.78   1-0.23427-0.13264-0.95691 0.96075-0.17154-0.24364
  -6  -2  -7 4779.39  665.80   1-0.91704 0.57059 0.25533-0.22145 0.30632-0.79081
  -6  -2  -7 5872.62 1268.55   1-0.25163-0.09364-0.93479 0.96778-0.25068-0.23371
  -6  -2  -821361.09  828.81   1-0.26662-0.05698-0.90883 0.97076-0.32082-0.23317
  -6  -2  -9 2579.66  431.94   1-0.27855-0.02340-0.87986 0.97092-0.38503-0.23821
  -6  -2 -1015398.06  903.34   1-0.28852 0.00819-0.84835 0.96856-0.44389-0.24860
  -6  -2 -1113356.06  866.79   1-0.29618 0.03811-0.81353 0.96447-0.50042-0.26139
  -6  -2 -12  248.74  233.26   1-0.30299 0.06651-0.77748 0.95769-0.55109-0.27998
  -6  -3   6 2605.98  470.10   1-0.73262 0.10515 0.56290-0.99389 0.38262 0.03351
   6   3  -6 2624.68  459.50   1 0.73109-0.10433-0.56346 0.99404-0.38471-0.03146
  -6  -3   5 5272.34  619.25   1-0.70612 0.10044 0.59217-0.99407 0.38821-0.04143
   6   3  -5 4217.52  538.97   1 0.70447-0.09935-0.59271 0.99409-0.39038 0.04356
   6   3  -4 3097.74  423.59   1 0.68174-0.09825-0.61606 0.98824-0.39457 0.11711
   6   3  -3  579.16  314.92   1 0.66371-0.10186-0.63361 0.97659-0.39751 0.18942
   6   3  -2 9777.94  625.42   1 0.65128-0.11107-0.64524 0.95902-0.39935 0.26063
   6   3  -1 2224.85  468.34   1 0.64549-0.12691-0.65054 0.93512-0.40016 0.33080
   6   3   0 8260.83  515.97   1 0.64748-0.15054-0.64872 0.90411-0.39989 0.39989
   6   3   1 3854.96  408.36   1 0.65851-0.18321-0.63851 0.86470-0.39830 0.46766
   6   3   2 1970.17  285.22   1 0.67987-0.22620-0.61791 0.81490-0.39489 0.53362
  -6  -3  -3 4119.15  331.67   1-0.71437 0.28301 0.58330-0.75253 0.38656-0.59463
   6   3   3 3234.58  284.12   1 0.71271-0.28068-0.58389 0.75168-0.38872 0.59681
  -6  -3  -4 4932.88 1020.91   1-0.75923 0.34966 0.53115-0.67130 0.37608-0.65351
   6   3   4 5035.16  383.05   1 0.75767-0.34727-0.53192 0.67051-0.37814 0.65559
  -6  -3  -5  325.22  100.71   1-0.81554 0.42777 0.45428-0.56535 0.35847-0.70525
   6   3   5  322.55  142.51   1 0.81471-0.42607-0.45505 0.56564-0.35938 0.70604
  -6  -3  -5  685.88  221.64   1-0.16655-0.22135-0.98168 0.87096 0.09246-0.43865
  -6  -3  -6 1136.89  218.12   1-0.87835 0.51072 0.34338-0.42417 0.33254-0.74782
  -6  -3  -6 1016.43  240.95   1-0.19520-0.17127-0.98068 0.89896-0.01205-0.40314
  -6  -3  -7 2384.60  382.52   1-0.94079 0.59458 0.18525-0.23680 0.28388-0.76836
  -6  -3  -7 2536.44  584.87   1-0.21901-0.12582-0.96987 0.91731-0.10663-0.37776
  -6  -3  -8  166.19   97.61   1-0.23887-0.08432-0.95189 0.92848-0.19192-0.36166
  -6  -3  -9  983.75  325.72   1-0.25551-0.04604-0.92854 0.93429-0.26928-0.35350
  -6  -3 -1029806.60 1133.53   1-0.27020-0.00972-0.90096 0.93557-0.33949-0.35300
  -6  -3 -11 6632.54  643.41   1-0.28196 0.02368-0.86997 0.93372-0.40453-0.35721
  -6  -3 -12  928.21  333.79   1-0.29121 0.05533-0.83498 0.92968-0.46690-0.36417
  -6  -4   6  877.68  279.85   1-0.80802 0.18107 0.46545-0.98193 0.36117 0.05495
   6   4  -6  733.25  407.53   1 0.80749-0.18138-0.46573 0.98192-0.36199-0.05400
  -6  -4   5  403.27  191.70   1-0.78648 0.18132 0.49578-0.98318 0.36828-0.02150
   6   4  -5  120.65  200.61   1 0.78590-0.18141-0.49606 0.98314-0.36914 0.02248
  -6  -4   4  140.81  130.32   1-0.76831 0.18494 0.51971-0.97803 0.37362-0.09619
   6   4  -4  140.29  181.96   1 0.76656-0.18352-0.52078 0.97809-0.37570 0.09825
  -6  -4   3  549.72  243.50   1-0.75423 0.19265 0.53731-0.96654 0.37739-0.16932
   6   4  -3  243.90  225.57   1 0.75238-0.19097-0.53839 0.96650-0.37952 0.17143
  -6  -4   2 7642.84 1202.61   1-0.74501 0.20522 0.54843-0.94858 0.37970-0.24099
   6   4  -2 7673.47  606.69   1 0.74309-0.20332-0.54952 0.94844-0.38187 0.24314
  -6  -4   120455.06 1573.70   1-0.74146 0.22346 0.55262-0.92369 0.38056-0.31120
   6   4  -118460.81  824.52   1 0.73950-0.22136-0.55375 0.92346-0.38274 0.31337
  -6  -4   023418.71 1425.35   1-0.74441 0.24820 0.54914-0.89112 0.37984-0.37984
   6   4   025697.83 1084.11   1 0.74243-0.24593-0.55030 0.89082-0.38203 0.38203
  -6  -4  -1 5518.42  921.68   1-0.75465 0.28023 0.53679-0.84969 0.37728-0.44663
   6   4   1 4565.06  448.00   1 0.75269-0.27783-0.53802 0.84933-0.37944 0.44881
  -6  -4  -2 2489.65  625.18   1-0.77286 0.32023 0.51385-0.79767 0.37233-0.51104
   6   4   2 1735.35  279.55   1 0.77095-0.31772-0.51517 0.79729-0.37446 0.51319
  -6  -4  -314974.37 1539.87   1-0.79938 0.36854 0.47790-0.73263 0.36413-0.57220
   6   4   313790.83  698.65   1 0.79858-0.36705-0.47853 0.73272-0.36505 0.57304
  -6  -4  -433711.28 1303.35   1-0.83391 0.42486 0.42563-0.65128 0.35132-0.62874
  -6  -4  -5 5919.71 1233.82   1-0.87346 0.48465 0.35304-0.54851 0.33528-0.68134
  -6  -4  -6  821.00  183.22   1-0.91728 0.54989 0.25470-0.42093 0.30613-0.72140
  -6  -4  -6 1409.99  268.62   1-0.15607-0.20972-0.97929 0.81221 0.12892-0.54435
  -6  -4  -7  -35.81   93.86   1-0.95679 0.61083 0.12376-0.26074 0.26310-0.74759
  -6  -4  -7  254.29  161.45   1-0.18478-0.15962-0.98240 0.84428 0.02718-0.51157
  -6  -4  -8  332.88  146.55   1-0.97860 0.65406-0.04708-0.06064 0.20030-0.75400
  -6  -4  -8  552.10  184.50   1-0.20939-0.11337-0.97549 0.86653-0.06752-0.48607
  -6  -4  -9 7249.56 1348.13   1-0.23041-0.07070-0.96070 0.88089-0.15479-0.46799
  -6  -4 -10 3909.15  987.07   1-0.24835-0.03113-0.93968 0.88903-0.23520-0.45678
  -6  -4 -11 2238.68  508.27   1-0.26433 0.00646-0.91354 0.89168-0.30914-0.45261
  -6  -4 -12 1792.15  405.67   1-0.27730 0.04106-0.88328 0.89057-0.37802-0.45297
  -6  -5   5   -3.26  216.50   1-0.85143 0.24679 0.39616-0.96906 0.34367 0.00310
  -6  -5   4  511.20  255.76   1-0.83698 0.25413 0.42062-0.96443 0.35004-0.07262
  -6  -5   3  112.69  131.17   1-0.82591 0.26485 0.43837-0.95310 0.35453-0.14647
   6   5  -3  726.53  350.29   1 0.82530-0.26440-0.43884 0.95308-0.35535 0.14736
  -6  -5   2 3094.49  643.78   1-0.81885 0.27958 0.44927-0.93491 0.35724-0.21853
   6   5  -2 3199.93  455.91   1 0.81821-0.27892-0.44978 0.93490-0.35808 0.21942
  -6  -5   110339.32 1663.57   1-0.81642 0.29894 0.45295-0.90952 0.35814-0.28879
   6   5  -110376.88  660.44   1 0.81574-0.29807-0.45350 0.90952-0.35900 0.28967
  -6  -5   0 1968.21  424.67   1-0.81918 0.32349 0.44877-0.87624 0.35712-0.35712
   6   5   0 1913.01  401.27   1 0.81847-0.32242-0.44938 0.87629-0.35798 0.35798
  -6  -5  -1 2915.66  491.38   1-0.82758 0.35368 0.43573-0.83413 0.35387-0.42323
   6   5   1 1846.92  304.01   1 0.82684-0.35241-0.43644 0.83424-0.35475 0.42408
  -6  -5  -223313.08 2296.27   1-0.84188 0.38977 0.41250-0.78181 0.34795-0.48666
  -6  -5  -3 5527.79 1106.26   1-0.86197 0.43165 0.37727-0.71750 0.33861-0.54667
  -6  -5  -469829.50 2385.55   1-0.88573 0.47574 0.32826-0.63840 0.32820-0.60506
  -6  -5  -576681.28 2493.35   1-0.91433 0.52577 0.26234-0.54324 0.30849-0.65456
  -6  -5  -6  661.09  204.09   1-0.94337 0.57623 0.17639-0.42804 0.28094-0.69622
  -6  -5  -7  437.18  192.82   1-0.96768 0.62197 0.06707-0.28947 0.24308-0.72756
  -6  -5  -7  897.30  170.06   1-0.15197-0.19172-0.97799 0.75455 0.14293-0.62760
  -6  -5  -8  726.49  230.53   1-0.97901 0.65473-0.06867-0.12447 0.19184-0.74554
  -6  -5  -8 1204.41  325.27   1-0.17988-0.14217-0.98267 0.78841 0.04458-0.59848
  -6  -5  -9  -13.70  145.01   1-0.96464 0.66177-0.23278 0.06887 0.12361-0.74653
  -6  -5  -9  -46.35  176.51   1-0.20438-0.09630-0.97773 0.81236-0.04765-0.57513
  -6  -5 -10   37.71  130.06   1-0.22572-0.05331-0.96482 0.82862-0.13472-0.55726
  -6  -5 -11 2068.97  562.84   1-0.24422-0.01318-0.94533 0.83828-0.21611-0.54507
  -6  -5 -12   41.78  218.09   1-0.26090 0.02507-0.92017 0.84186-0.29188-0.53911
  -6  -6   4  253.24  174.59   1-0.88941 0.30829 0.32046-0.95002 0.32594-0.04909
  -6  -6   3  797.81  389.33   1-0.88068 0.32098 0.33868-0.93898 0.33120-0.12356
  -6  -6   2  250.89  290.54   1-0.87507 0.33679 0.34989-0.92095 0.33439-0.19596
  -6  -6   1 1110.11  306.48   1-0.87305 0.35620 0.35384-0.89565 0.33550-0.26629
  -6  -6   0  -62.80  193.47   1-0.87500 0.37957 0.35003-0.86259 0.33443-0.33443
  -6  -6  -1 1705.14  342.22   1-0.88114 0.40714 0.33773-0.82104 0.33093-0.40014
  -6  -6  -2 3670.96  693.09   1-0.89151 0.43893 0.31594-0.77001 0.32462-0.46304
  -6  -6  -342476.05 1357.07   1-0.90580 0.47464 0.28343-0.70825 0.31494-0.52257
  -6  -6  -4131902.1 3129.33   1-0.92323 0.51349 0.23868-0.63425 0.30111-0.57796
  -6  -6  -551360.08 1227.51   1-0.94234 0.55403 0.17995-0.54627 0.28212-0.62819
  -6  -6  -6 7711.90  531.93   1-0.96072 0.59383 0.10541-0.44248 0.25671-0.67198
  -6  -6  -7 1980.54  253.30   1-0.97465 0.62918 0.01328-0.32111 0.22333-0.70782
  -6  -6  -8  352.02  201.15   1-0.97874 0.65470-0.09779-0.18078 0.18024-0.73394
  -6  -6  -8  428.31  188.60   1-0.15237-0.16923-0.97812 0.69832 0.14157-0.69548
  -6  -6  -9 4465.53  422.04   1-0.96545 0.66283-0.22833-0.02099 0.12555-0.74847
  -6  -6  -9 4504.95  960.78   1-0.17914-0.12081-0.98268 0.73206 0.04729-0.67043
  -6  -6 -10 1526.65  254.37   1-0.20303-0.07557-0.97825 0.75649-0.04236-0.64962
  -6  -6 -11  963.79  245.75   1-0.22418-0.03278-0.96607 0.77347-0.12820-0.63298
  -6  -6 -12   31.42  170.44   1-0.24274 0.00742-0.94722 0.78377-0.20938-0.62099
  -6  -7   3  165.53  196.06   1-0.92226 0.36281 0.24133-0.92707 0.30195-0.09431
  -6  -7   2  803.00  288.15   1-0.91780 0.37977 0.25334-0.90982 0.30570-0.16728
  -6  -7   1  159.79  216.90   1-0.91597 0.39936 0.25812-0.88536 0.30719-0.23797
  -6  -7   0   48.84   98.29   1-0.91703 0.42185 0.25535-0.85334 0.30633-0.30633
  -6  -7  -1  321.07  168.99   1-0.92110 0.44734 0.24450-0.81325 0.30294-0.37215
  -6  -7  -2  149.41  100.45   1-0.92810 0.47576 0.22488-0.76438 0.29673-0.43516
  -6  -7  -3  170.41  192.98   1-0.93765 0.50674 0.19562-0.70587 0.28728-0.49492
  -6  -7  -4 1397.96  385.06   1-0.94902 0.53954 0.15573-0.63673 0.27402-0.55087
  -6  -7  -5   82.76  193.51   1-0.96098 0.57292 0.10410-0.55585 0.25625-0.60231
  -6  -7  -6  206.76  199.27   1-0.97164 0.60500 0.03964-0.46214 0.23310-0.64837
  -6  -7  -7   15.99  145.71   1-0.97829 0.63307-0.03861-0.35463 0.20358-0.68807
  -6  -7  -8 1672.78  306.11   1-0.97723 0.65344-0.13132-0.23268 0.16662-0.72032
  -6  -7  -9 6988.60  556.36   1-0.96355 0.66118-0.23850-0.09624 0.12110-0.74402
  -6  -7  -9 8466.45 1941.52   1-0.15603-0.14347-0.97928 0.64312 0.12905-0.75220
  -6  -7 -10 1014.48  287.14   1-0.93089 0.64994-0.35929 0.05378 0.06595-0.75807
  -6  -7 -10  976.22  222.39   1-0.18152-0.09664-0.98260 0.67528 0.03920-0.73119
  -6  -7 -11   30.58  150.27   1-0.20458-0.05194-0.97765 0.69948-0.04843-0.71275
  -6  -7 -12  284.98  177.57   1-0.22522-0.00966-0.96524 0.71623-0.13259-0.69778
  -6  -8   1 6050.76  721.01   1-0.94632 0.42996 0.16583-0.87850 0.27742-0.20821
  -6  -8   0 2103.88  434.53   1-0.94665 0.45171 0.16464-0.84806 0.27702-0.27702
  -6  -8  -1   36.32  172.92   1-0.94900 0.47549 0.15581-0.80998 0.27405-0.34326
  -6  -8  -2  539.07  289.43   1-0.95327 0.50118 0.13887-0.76379 0.26829-0.40672
  -6  -8  -3  801.76  347.65   1-0.95909 0.52842 0.11326-0.70893 0.25945-0.46709
  -6  -8  -4  305.22  211.06   1-0.96581 0.55657 0.07830-0.64473 0.24711-0.52396
  -6  -8  -5  171.57  189.35   1-0.97243 0.58461 0.03332-0.57050 0.23077-0.57683
  -6  -8  -6   26.39  143.26   1-0.97747 0.61108-0.02234-0.48558 0.20985-0.62512
  -6  -8  -7 -176.35  166.82   1-0.97892 0.63395-0.08924-0.38943 0.18367-0.66816
  -6  -8  -8 1124.75  305.90   1-0.97412 0.65057-0.16766-0.28176 0.15153-0.70523
  -6  -8  -9  181.73  192.09   1-0.95968 0.65755-0.25749-0.16268 0.11271-0.73562
  -6  -8 -10  350.21  246.38   1-0.93133 0.65063-0.35802-0.03290 0.06655-0.75867
  -6  -8 -10  410.64  238.44   1-0.16212-0.11528-0.98084 0.58832 0.10798-0.80036
  -6  -8 -11   52.92  115.25   1-0.18632-0.06977-0.98225 0.61853 0.02146-0.78265
  -6  -9   0  197.55  237.05   1-0.96588 0.47119 0.07789-0.84674 0.24696-0.24696
  -6  -9  -1  515.16  328.25   1-0.96697 0.49371 0.07141-0.81101 0.24464-0.31385
  -6  -9  -2 2026.77  534.44   1-0.96917 0.51733 0.05741-0.76777 0.23958-0.37801
  -6  -9  -3  587.17  367.21   1-0.97216 0.54174 0.03554-0.71665 0.23159-0.43923
  -6  -9  -4  412.76  235.12   1-0.97540 0.56640 0.00537-0.65723 0.22036-0.49721
  -6  -9  -5  285.97  192.34   1-0.97807 0.59049-0.03351-0.58908 0.20555-0.55162
  -6  -9  -6   32.49  179.91   1-0.97901 0.61287-0.08153-0.51181 0.18674-0.60202
  -6  -9  -7   74.13  181.96   1-0.97670 0.63198-0.13897-0.42513 0.16347-0.64796
  -6  -9  -8  456.06  329.82   1-0.96916 0.64586-0.20594-0.32891 0.13526-0.68896
  -6  -9  -9  246.81  265.68   1-0.95393 0.65205-0.28227-0.22333 0.10161-0.72452
  -6  -9 -10  246.45  292.37   1-0.92798 0.64753-0.36741-0.10895 0.06208-0.75421
  -6  -9 -10  225.23  233.51   1-0.14541-0.13154-0.97550 0.49743 0.16508-0.85746
  -6  -9 -11  454.39  231.14   1-0.17006-0.08524-0.98217 0.53329 0.07999-0.84162
  -6 -10  -3  620.46  329.86   1-0.97828 0.54810-0.03827-0.72825 0.20372-0.41135
  -6 -10  -4  584.70  399.72   1-0.97897 0.57022-0.06392-0.67335 0.19371-0.47056
  -6 -10  -5   78.80  189.35   1-0.97876 0.59143-0.09730-0.61073 0.18044-0.52650
  -6 -10  -6  332.38  226.52   1-0.97673 0.61083-0.13863-0.54015 0.16361-0.57889
  -6 -10  -7   48.97  207.69   1-0.97170 0.62722-0.18806-0.46147 0.14291-0.62739
  -6 -10  -8  -63.12  196.62   1-0.96216 0.63910-0.24561-0.37467 0.11798-0.67168
  -6 -10  -9   41.34  196.41   1-0.94625 0.64462-0.31108-0.27995 0.08848-0.71139
   7  -8  -4  499.82  310.77   1-0.26306 0.93641-0.91597 0.34993-0.30297 0.02600
   7  -8  -3  196.25  249.20   1-0.29366 0.94534-0.90966 0.31452-0.29372 0.08599
   7  -8  -2  328.21  323.09   1-0.31876 0.94878-0.90370 0.27945-0.28583 0.14734
   7  -8  -1 3963.56  576.77   1-0.33798 0.94635-0.89866 0.24530-0.27959 0.21035
   7  -8   0 1862.46  376.56   1-0.35085 0.93755-0.89504 0.21257-0.27532 0.27532
   7  -8   1  995.02  383.23   1-0.35669 0.92173-0.89333 0.18175-0.27336 0.34260
   7  -7  -5 2255.46  466.33   1-0.18508 0.87924-0.92751 0.47589-0.32475-0.02146
   7  -7  -4  861.36  336.85   1-0.22382 0.89631-0.92257 0.44185-0.31424 0.03727
   7  -7  -3  402.33  217.13   1-0.25735 0.90818-0.91703 0.40720-0.30465 0.09692
   7  -7  -2 1891.99  408.86   1-0.28533 0.91450-0.91148 0.37254-0.29628 0.15779
   7  -7  -1  511.52  371.15   1-0.30734 0.91485-0.90650 0.33845-0.28945 0.22021
   7  -7   0  812.40  294.69   1-0.32283 0.90868-0.90267 0.30551-0.28452 0.28452
   7  -7   1 9055.17  669.59   1-0.33109 0.89527-0.90052 0.27425-0.28185 0.35109
   7  -7   2  976.21  343.56   1-0.33110 0.87362-0.90051 0.24514-0.28184 0.42033
   7  -7   3  222.02  275.45   1-0.32145 0.84231-0.90302 0.21854-0.28497 0.49269
   7  -6  -6  -32.70  205.21   1-0.08419 0.79984-0.93316 0.59657-0.34945-0.06599
   7  -6  -5  151.12  300.50   1-0.13141 0.82470-0.93181 0.56550-0.33830-0.00790
   7  -6  -4 1012.44  296.44   1-0.17272 0.84435-0.92876 0.53334-0.32797 0.05100
   7  -6  -3 1072.69  388.01   1-0.20887 0.85884-0.92466 0.50014-0.31837 0.11064
   7  -6  -2 1338.14  359.73   1-0.23944 0.86775-0.92014 0.46651-0.30983 0.17135
   7  -6  -1 2868.09  468.40   1-0.26395 0.87060-0.91580 0.43306-0.30270 0.23346
   7  -6   0 1127.99  385.72   1-0.28176 0.86675-0.91223 0.40038-0.29736 0.29736
   7  -6   1 1447.21  377.37   1-0.29206 0.85538-0.91001 0.36905-0.29421 0.36346
   7  -6   2  470.05  221.07   1-0.29373 0.83540-0.90964 0.33957-0.29370 0.43218
  -7   6  -2   75.76  113.36   1-0.24815-0.29140 0.08869 0.48168-0.96465 0.82647
   7  -6   3 1113.71  270.20   1-0.28522 0.80522-0.91150 0.31233-0.29631 0.50404
  -7   6  -3 1246.03  310.88   1-0.26603-0.25189-0.00370 0.60329-0.96395 0.75669
  -7   6  -4 6367.48  591.43   1-0.27726-0.21905-0.06902 0.69781-0.95831 0.68195
  -7   6  -5   -8.22  183.08   1-0.28430-0.19039-0.11395 0.77195-0.95193 0.60649
  -7   6  -611683.29  830.78   1-0.28859-0.16448-0.14332 0.83052-0.94666 0.53213
   7  -5  -7  394.81  420.94   1 0.03569 0.70066-0.92694 0.70476-0.37348-0.11119
   7  -5  -6 6623.33  657.96   1-0.01660 0.73134-0.93137 0.68004-0.36367-0.05176
   7  -5  -5  236.17  282.49   1-0.06454 0.75765-0.93310 0.65261-0.35376 0.00756
   7  -5  -4  294.38  283.93   1-0.10778 0.77926-0.93273 0.62308-0.34407 0.06710
   7  -5  -3  182.30  293.96   1-0.14705 0.79617-0.93086 0.59164-0.33447 0.12674
   7  -5  -2 2047.59  423.76   1-0.17966 0.80712-0.92807 0.55975-0.32617 0.18768
   7  -5  -1 7025.28  519.91   1-0.20612 0.81191-0.92502 0.52759-0.31912 0.24988
   7  -5   0 1421.27  363.63   1-0.22568 0.80981-0.92230 0.49576-0.31372 0.31372
   7  -5   1  960.44  282.81   1-0.23739 0.79986-0.92047 0.46482-0.31042 0.37966
   7  -5   2 2157.31  321.42   1-0.24000 0.78081-0.92005 0.43529-0.30967 0.44816
  -7   5  -2 2420.62  336.71   1-0.26708-0.27213-0.00948 0.49454-0.96362 0.82545
   7  -5   3  151.42  284.44   1-0.23170 0.75085-0.92138 0.40751-0.31203 0.51976
  -7   5  -3  203.84  217.78   1-0.28372-0.23387-0.11010 0.62436-0.95256 0.74530
   7  -5   4  546.68  244.88   1-0.20981 0.70730-0.92454 0.38156-0.31811 0.59508
  -7   5  -4  895.80  295.96   1-0.29269-0.20307-0.17673 0.72018-0.93973 0.66340
  -7   5  -5 4077.26  454.23   1-0.29817-0.17593-0.22031 0.79295-0.92873 0.58332
  -7   5  -6 3530.40  480.73   1-0.30125-0.15119-0.24705 0.84888-0.92098 0.50648
  -7   5  -7  926.94  345.36   1-0.30280-0.12799-0.26125 0.89227-0.91654 0.43297
   7  -4  -7  352.42  327.15   1 0.11517 0.62028-0.91512 0.77819-0.38638-0.09830
   7  -4  -6 1986.28  452.82   1 0.06219 0.65163-0.92369 0.75761-0.37805-0.03738
   7  -4  -5  879.01  365.20   1 0.01336 0.67883-0.92916 0.73392-0.36942 0.02322
   7  -4  -4  621.91  292.74   1-0.03091 0.70148-0.93212 0.70773-0.36081 0.08385
   7  -4  -3  104.87  231.30   1-0.07018 0.71913-0.93315 0.67961-0.35254 0.14482
   7  -4  -212205.89  755.52   1-0.10389 0.73121-0.93284 0.65013-0.34497 0.20649
   7  -4  -125453.84  921.67   1-0.13249 0.73742-0.93175 0.61963-0.33804 0.26880
   7  -4   0 3165.38  368.89   1-0.15288 0.73615-0.93044 0.58920-0.33302 0.33302
   7  -4   1  349.06  211.60   1-0.16504 0.72666-0.92945 0.55911-0.32994 0.39918
   7  -4   2 4047.99  388.44   1-0.16749 0.70744-0.92924 0.52979-0.32932 0.46780
  -7   4  -2 3886.59  316.88   1-0.28627-0.25259-0.12723 0.52695-0.94966 0.81148
   7  -4   3  939.88  268.78   1-0.15811 0.67641-0.93003 0.50147-0.33170 0.53943
  -7   4  -3  268.78  181.48   1-0.29955-0.21754-0.23205 0.66097-0.92542 0.71818
   7  -4   4  622.97  212.31   1-0.13381 0.63044-0.93168 0.47401-0.33772 0.61469
  -7   4  -4  592.81  243.12   1-0.30638-0.18904-0.29664 0.75475-0.90450 0.62817
  -7   4  -5 5232.00  516.25   1-0.30997-0.16349-0.33530 0.82293-0.88965 0.54409
  -7   4  -6  -71.38  161.27   1-0.31169-0.14011-0.35679 0.87362-0.88065 0.46598
  -7   4  -7 1985.72  392.00   1-0.31238-0.11776-0.36598 0.91203-0.87662 0.39284
  -7   4  -8 2026.74  403.97   1-0.31238-0.09610-0.36600 0.94125-0.87661 0.32372
   7  -3  -7   30.86  193.85   1 0.20357 0.53097-0.89459 0.84292-0.39781-0.08686
   7  -3  -6   22.30  154.54   1 0.15108 0.56182-0.90773 0.82690-0.39140-0.02404
   7  -3  -5  942.81  373.08   1 0.10256 0.58872-0.91740 0.80742-0.38449 0.03829
   7  -3  -4  117.78  285.22   1 0.05844 0.61122-0.92419 0.78505-0.37742 0.10046
   7  -3  -3 7009.51  612.75   1 0.01923 0.62880-0.92862 0.76033-0.37051 0.16279
   7  -3  -2 1489.51  335.53   1-0.01439 0.64081-0.93124 0.73379-0.36411 0.22563
   7  -3  -115854.35  736.89   1-0.04165 0.64645-0.93255 0.70595-0.35860 0.28936
   7  -3   0 5346.56  453.76   1-0.06154 0.64471-0.93306 0.67729-0.35441 0.35441
   7  -3   1 1276.33  278.62   1-0.07275 0.63429-0.93317 0.64825-0.35198 0.42122
   7  -3   221245.32  791.47   1-0.07353 0.61345-0.93317 0.61910-0.35181 0.49029
  -7   3  -222390.76  581.36   1-0.30405-0.23436-0.27319 0.58758-0.91264 0.77447
   7  -3   387913.14 1402.93   1-0.06143 0.57972-0.93305 0.58982-0.35443 0.56216
  -7   3  -388523.47 1277.10   1-0.31297-0.20349-0.37421 0.71803-0.87292 0.66559
   7  -3   412403.25  571.30   1-0.03279 0.52946-0.93220 0.55982-0.36043 0.63739
  -7   3  -412736.79  577.37   1-0.31632-0.17848-0.42937 0.80239-0.84591 0.56947
   7  -3   5 7149.96  431.54   1 0.01824 0.45679-0.92872 0.52717-0.37033 0.71653
  -7   3  -5 7607.17  456.29   1-0.31764-0.15550-0.45873 0.86097-0.82985 0.48429
  -7   3  -6  643.19  237.62   1-0.31813-0.13336-0.47194 0.90338-0.82222 0.40756
  -7   3  -7 1041.70  317.96   1-0.31820-0.11163-0.47416 0.93481-0.82092 0.33714
  -7   3  -8 5310.00  555.57   1-0.31800-0.09017-0.46836 0.95822-0.82431 0.27143
  -7   3  -9 1188.56  389.15   1-0.31755-0.06896-0.45637 0.97543-0.83119 0.20919
   7  -2  -7  361.33  294.74   1 0.29839 0.43526-0.86333 0.89691-0.40694-0.07803
   7  -2  -6 3289.17  485.69   1 0.24763 0.46441-0.88117 0.88552-0.40273-0.01295
   7  -2  -5  700.90  315.43   1 0.20102 0.48936-0.89529 0.87056-0.39752 0.05132
   7  -2  -4 4672.44  533.39   1 0.15840 0.51035-0.90606 0.85218-0.39236 0.11539
   7  -2  -3  400.03  211.96   1 0.12065 0.52647-0.91407 0.83103-0.38718 0.17945
   7  -2  -2 3107.84  386.31   1 0.08852 0.53698-0.91977 0.80757-0.38232 0.24384
   7  -2  -1 1984.05  302.56   1 0.06290 0.54097-0.92359 0.78224-0.37817 0.30893
   7  -2   0 7991.97  555.62   1 0.04495 0.53730-0.92588 0.75537-0.37511 0.37511
   7  -2   1  409.56  217.41   1 0.03617 0.52445-0.92689 0.72723-0.37357 0.44281
   7  -2   231517.96 1128.71   1 0.03857 0.50043-0.92662 0.69780-0.37399 0.51247
  -7   2  -228645.57  851.06   1-0.31764-0.22017-0.45855 0.68776-0.82995 0.69173
   7  -2   339825.14  954.35   1 0.05495 0.46242-0.92464 0.66667-0.37683 0.58455
  -7   2  -341579.34  836.12   1-0.31953-0.19649-0.53724 0.79571-0.78055 0.57291
   7  -2   423520.32  700.86   1 0.08943 0.40631-0.91962 0.63249-0.38247 0.65943
  -7   2  -425207.22  728.62   1-0.31945-0.17487-0.57334 0.86098-0.75446 0.47762
   7  -2   524418.73  677.54   1 0.14860 0.32552-0.90828 0.59199-0.39107 0.73727
  -7   2  -528253.62  826.21   1-0.31923-0.15339-0.58804 0.90486-0.74316 0.39710
  -7   2  -6 4519.15  441.66   1-0.31919-0.13173-0.59003 0.93603-0.74160 0.32633
  -7   2  -7   66.35  155.80   1-0.31931-0.10991-0.58356 0.95874-0.74665 0.26217
  -7   2  -8  526.34  276.33   1-0.31948-0.08805-0.57094 0.97529-0.75627 0.20258
  -7   2  -9  482.71  323.53   1-0.31958-0.06625-0.55350 0.98703-0.76909 0.14618
  -7   2 -10  371.28  232.58   1-0.31949-0.04463-0.53204 0.99475-0.78412 0.09200
   7  -1  -7  291.57  219.93   1 0.39748 0.33571-0.82001 0.93911-0.41180-0.07317
   7  -1  -6  222.27  220.82   1 0.34974 0.36185-0.84234 0.93221-0.41004-0.00565
   7  -1  -5 3978.13  525.54   1 0.30567 0.38431-0.86054 0.92118-0.40745 0.06104
   7  -1  -410891.80  737.03   1 0.26583 0.40254-0.87510 0.90651-0.40437 0.12724
   7  -1  -343940.57 1232.32   1 0.23086 0.41591-0.88646 0.88863-0.40110 0.19325
   7  -1  -2 8379.90  629.80   1 0.20147 0.42312-0.89517 0.86823-0.39758 0.25909
   7  -1  -1 1160.81  304.06   1 0.17888 0.42409-0.90112 0.84502-0.39493 0.32569
   7  -1   0  768.28  277.34   1 0.16425 0.41709-0.90470 0.81944-0.39311 0.39311
   7  -1   1   -2.38  188.25   1 0.15922 0.40050-0.90587 0.79146-0.39246 0.46170
   7  -1   2 4368.85  337.45   1 0.16597 0.37211-0.90428 0.76072-0.39333 0.53181
  -7   1  -2 5226.95  264.69   1-0.31472-0.22238-0.67511 0.81916-0.66720 0.52869
   7  -1   3 9872.75  560.01   1 0.18752 0.32894-0.89890 0.72618-0.39597 0.60369
  -7   1  -310131.30 1339.72   1-0.31190-0.20360-0.70860 0.88192-0.63292 0.42515
   7  -1   429591.62 1006.02   1 0.22827 0.26723-0.88725 0.68478-0.40084 0.67797
  -7   1  -432385.13 1027.92   1-0.31099-0.18291-0.71759 0.92017-0.62317 0.34614
   7  -1   5  647.15  183.54   1 0.29469 0.17920-0.86473 0.63303-0.40667 0.75309
  -7   1  -5  919.11  251.51   1-0.31131-0.16098-0.71445 0.94631-0.62660 0.28031
   7  -1   6 2412.84  254.35   1 0.39802 0.05426-0.81974 0.55880-0.41182 0.82751
  -7   1  -6 3156.67  330.60   1-0.31234-0.13835-0.70398 0.96511-0.63784 0.22230
  -7   1  -724042.07  876.27   1-0.31370-0.11539-0.68841 0.97880-0.65396 0.16916
  -7   1  -814870.06  733.23   1-0.31515-0.09233-0.66891 0.98857-0.67322 0.11917
  -7   1  -9   16.69  179.66   1-0.31651-0.06937-0.64611 0.99504-0.69451 0.07120
  -7   1 -10 1503.85  450.46   1-0.31830-0.04558-0.62143 0.99867-0.71589 0.02378
   7   0  -7   62.25  216.62   1 0.49637 0.23636-0.76426 0.96889-0.41171-0.07326
   7   0  -6   92.81  203.09   1 0.45262 0.25851-0.79059 0.96600-0.41241-0.00328
   7   0  -5  745.13  312.26   1 0.41244 0.27708-0.81242 0.95859-0.41212 0.06571
   7   0  -459511.94 1476.91   1 0.37643 0.29148-0.83020 0.94713-0.41116 0.13403
   7   0  -395151.81 1787.17   1 0.34529 0.30101-0.84428 0.93198-0.40982 0.20197
   7   0  -239605.65 1149.17   1 0.31988 0.30481-0.85492 0.91339-0.40838 0.26982
   7   0  -1 8404.95  598.21   1 0.30125 0.30183-0.86224 0.89148-0.40715 0.33786
   7   0   010978.55  710.48   1 0.29074 0.29074-0.86620 0.86620-0.40638 0.40638
   7   0   1   24.25  185.40   1 0.29002 0.26984-0.86647 0.83724-0.40633 0.47561
   7   0   2 6782.38  463.26   1 0.30130 0.23696-0.86223 0.80376-0.40715 0.54572
  -7   0  -2 7669.22  313.81   1-0.28115-0.25600-0.87238 0.93067-0.39986 0.26136
   7   0   3 1921.80  277.30   1 0.32746 0.18919-0.85182 0.76412-0.40884 0.61669
  -7   0  -3 2443.14  379.48   1-0.28442-0.23110-0.86229 0.94972-0.41898 0.21123
   7   0   411864.60  588.77   1 0.37245 0.12259-0.83206 0.71513-0.41101 0.68815
  -7   0  -413081.84  562.07   1-0.28813-0.20517-0.84673 0.96381-0.44723 0.17020
   7   0   5  834.89  191.41   1 0.44182 0.03161-0.79667 0.65050-0.41242 0.75883
  -7   0  -5  470.31  179.54   1-0.29272-0.17897-0.82880 0.97515-0.47685 0.13057
   7   0   6 2623.81  252.33   1 0.54571-0.09421-0.73091 0.55572-0.40982 0.82601
  -7   0  -6 2961.90  325.32   1-0.29729-0.15280-0.80828 0.98390-0.50822 0.09268
  -7   0  -7 5481.17  457.19   1-0.30163-0.12686-0.78547 0.99035-0.54040 0.05561
  -7   0  -8  358.99  249.01   1-0.30563-0.10126-0.76053 0.99468-0.57287 0.01881
  -7   0  -9 2236.89  376.89   1-0.30920-0.07608-0.73351 0.99693-0.60526-0.01804
  -7   0 -10  143.91  179.17   1-0.31229-0.05139-0.70446 0.99715-0.63734-0.05522
  -7   0 -11  114.24  255.56   1-0.31485-0.02723-0.67334 0.99530-0.66893-0.09288
   7   1  -6  190.71  271.97   1 0.55133 0.15935-0.72687 0.98719-0.40947-0.00670
   7   1  -5 1161.49  327.01   1 0.51651 0.17255-0.75117 0.98287-0.41101 0.06460
   7   1  -414307.75  822.43   1 0.48490 0.18255-0.77143 0.97390-0.41200 0.13487
   7   1  -3  386.59  220.39   1 0.45810 0.18775-0.78745 0.96068-0.41238 0.20453
   7   1  -2 1185.61  336.84   1 0.43696 0.18728-0.79936 0.94336-0.41240 0.27384
   7   1  -1 8876.33  650.71   1 0.42254 0.18009-0.80714 0.92190-0.41228 0.34299
   7   1   010303.86  690.09   1 0.41612 0.16490-0.81051 0.89604-0.41219 0.41219
   7   1   147474.81 1504.62   1 0.41928 0.14013-0.80886 0.86515-0.41223 0.48152
  -7  -1  -150656.23 1312.21   1-0.18875-0.36974-0.98194 0.92554 0.01236-0.08156
   7   1   230296.01 1112.90   1 0.43399 0.10381-0.80098 0.82805-0.41238 0.55095
  -7  -1  -232483.84 1029.23   1-0.21468-0.32216-0.97262 0.94538-0.08889-0.04950
   7   1   3  514.00  185.52   1 0.46268 0.05351-0.78478 0.78261-0.41235 0.62020
  -7  -1  -3  625.63  147.23   1-0.23412-0.28108-0.95706 0.95898-0.17091-0.03667
   7   1   4  388.32  181.49   1 0.50837-0.01378-0.75654 0.72513-0.41133 0.68846
  -7  -1  -4  547.07  163.01   1-0.24950-0.24407-0.93800 0.96908-0.24060-0.03618
   7   1   5 4036.52  346.63   1 0.57537-0.10267-0.70900 0.64814-0.40774 0.75456
  -7  -1  -5 4340.17  345.72   1-0.26272-0.20912-0.91673 0.97683-0.30095-0.04529
   7   1   6  148.88  145.49   1 0.66694-0.21588-0.63052 0.54046-0.39701 0.81319
  -7  -1  -6  159.12  108.24   1-0.27344-0.17676-0.89325 0.98250-0.35682-0.05867
  -7  -1  -7 8933.00  516.78   1-0.28262-0.14594-0.86795 0.98634-0.40838-0.07636
  -7  -1  -8 1835.01  323.88   1-0.28993-0.11636-0.83997 0.98861-0.45867-0.09538
  -7  -1  -9  517.59  272.57   1-0.29671-0.08798-0.81105 0.98896-0.50413-0.11917
  -7  -1 -10  370.97  177.59   1-0.30251-0.06057-0.78035 0.98753-0.54729-0.14527
  -7  -1 -11  116.32  201.26   1-0.30740-0.03408-0.74781 0.98426-0.58844-0.17337
   7   2  -6   89.91  213.03   1 0.64365 0.06659-0.65220 0.99765-0.40042-0.01576
   7   2  -5   43.68  211.10   1 0.61261 0.07600-0.67920 0.99545-0.40421 0.05739
   7   2  -4  648.33  298.27   1 0.58548 0.08149-0.70118 0.98823-0.40688 0.12943
   7   2  -3  346.63  290.37   1 0.56297 0.08236-0.71835 0.97620-0.40868 0.20059
   7   2  -2 1814.39  346.98   1 0.54594 0.07776-0.73075 0.95940-0.40981 0.27108
   7   2  -1 1500.21  298.86   1 0.53534 0.06672-0.73821 0.93767-0.41041 0.34105
   7   2   0 2309.52  369.52   1 0.53233 0.04809-0.74029 0.91055-0.41057 0.41057
   7   2   128819.57 1149.03   1 0.53826 0.02052-0.73617 0.87723-0.41025 0.47962
   7   2   211767.27  647.22   1 0.55469-0.01754-0.72444 0.83630-0.40926 0.54798
   7   2   3 3716.33  361.51   1 0.58339-0.06787-0.70281 0.78547-0.40707 0.61516
  -7  -2  -3 3477.93  873.03   1-0.17362-0.34093-0.98251 0.89897 0.06726-0.27497
   7   2   4 1481.41  221.42   1 0.62624-0.13235-0.66760 0.72106-0.40264 0.68010
  -7  -2  -4 1773.42  479.73   1-0.20061-0.29252-0.97911 0.92463-0.03291-0.24388
   7   2   5 2891.25  322.72   1 0.68495-0.21270-0.61285 0.63711-0.39401 0.74083
  -7  -2  -5 2682.05  581.00   1-0.22250-0.24899-0.96737 0.94204-0.12116-0.22482
  -7  -2  -628436.18  791.03   1-0.76096 0.31141 0.52899-0.52548 0.37562-0.79176
   7   2   626634.30  676.84   1 0.76032-0.30971-0.52862 0.52369-0.37742 0.79361
  -7  -2  -630250.29 1070.15   1-0.24055-0.20930-0.94992 0.95375-0.19945-0.21573
  -7  -2  -728158.72  696.04   1-0.85076 0.42299 0.39734-0.36475 0.34398-0.82947
  -7  -2  -729714.25  908.07   1-0.25562-0.17258-0.92835 0.96134-0.26984-0.21454
  -7  -2  -8 6106.61  466.85   1-0.26900-0.13751-0.90365 0.96558-0.33322-0.22077
  -7  -2  -9   32.27  178.50   1-0.27984-0.10504-0.87621 0.96728-0.39233-0.23091
  -7  -2 -10 9473.00  648.91   1-0.28847-0.07402-0.84547 0.96715-0.44938-0.24318
  -7  -2 -11   -4.02  206.83   1-0.29623-0.04466-0.81333 0.96427-0.50072-0.26109
  -7  -2 -12  279.71  234.30   1-0.30273-0.01655-0.77904 0.95925-0.54903-0.28204
  -7  -3   5   56.80  182.58   1-0.70145 0.01272 0.59711-0.99902 0.38911-0.04233
   7   3  -5  198.99  208.51   1 0.69987-0.01170-0.59756 0.99894-0.39127 0.04445
   7   3  -4   46.68  191.86   1 0.67697-0.01044-0.62078 0.99296-0.39538 0.11792
   7   3  -3  164.72  192.77   1 0.65836-0.01346-0.63866 0.98164-0.39832 0.19023
   7   3  -2  108.40  182.19   1 0.64480-0.02153-0.65116 0.96495-0.40026 0.26153
   7   3  -1    4.29  162.11   1 0.63713-0.03550-0.65805 0.94263-0.40128 0.33192
   7   3   0 5032.57  515.70   1 0.63630-0.05631-0.65878 0.91417-0.40139 0.40139
   7   3   1 4594.31  512.79   1 0.64336-0.08501-0.65246 0.87865-0.40045 0.46982
   7   3   210125.58  652.44   1 0.65940-0.12268-0.63768 0.83467-0.39817 0.53689
   7   3   3  477.44  200.88   1 0.68550-0.17042-0.61229 0.78008-0.39391 0.60201
  -7  -3  -4 1316.70  238.41   1-0.72389 0.23128 0.57278-0.71294 0.38455-0.66198
   7   3   4  965.18  225.81   1 0.72255-0.22910-0.57309 0.71168-0.38663 0.66408
  -7  -3  -4 1249.10  307.12   1-0.15017-0.34229-0.97735 0.83745 0.14907-0.42602
  -7  -3  -514235.49 1549.47   1-0.77208 0.30126 0.51486-0.62593 0.37255-0.71933
   7   3   513055.65  657.69   1 0.77083-0.29902-0.51533 0.62472-0.37449 0.72131
  -7  -3  -512148.41  600.02   1-0.17920-0.29161-0.98268 0.87196 0.04705-0.39324
  -7  -3  -615926.50  604.87   1-0.83044 0.38141 0.43119-0.51318 0.35273-0.76887
  -7  -3  -615610.80 1171.19   1-0.20388-0.24553-0.97792 0.89620-0.04569-0.36949
  -7  -3  -7 9538.18 1133.60   1-0.89363 0.46460 0.31132-0.36286 0.32326-0.80775
  -7  -3  -7 9839.08 1757.00   1-0.22476-0.20301-0.96561 0.91304-0.13065-0.35373
  -7  -3  -811422.09 1660.24   1-0.24250-0.16363-0.94752 0.92411-0.20829-0.34529
  -7  -3  -9  486.84  240.51   1-0.25762-0.12686-0.92490 0.93065-0.27960-0.34318
  -7  -3 -10  349.15  298.68   1-0.27123-0.09160-0.89857 0.93317-0.34496-0.34753
  -7  -3 -11  113.47  238.40   1-0.28225-0.05894-0.86907 0.93281-0.40625-0.35549
  -7  -3 -12 1007.32  394.38   1-0.29102-0.02767-0.83573 0.93043-0.46567-0.36540
  -7  -4   5   74.18  147.34   1-0.77708 0.08887 0.50834-0.99574 0.37111-0.02433
   7   4  -5  814.36  361.43   1 0.77549-0.08776-0.50928 0.99579-0.37314 0.02632
  -7  -4   4 1351.85  471.70   1-0.75811 0.09169 0.53254-0.99085 0.37638-0.09896
   7   4  -4 1321.16  426.80   1 0.75642-0.09033-0.53346 0.99077-0.37847 0.10101
  -7  -4   3  -42.50  169.76   1-0.74291 0.09828 0.55092-0.98015 0.38021-0.17214
   7   4  -3   54.30  179.10   1 0.74114-0.09668-0.55183 0.97994-0.38234 0.17425
  -7  -4   2  541.94  126.38   1-0.73215 0.10931 0.56344-0.96358 0.38272-0.24401
   7   4  -2  806.24  309.87   1 0.73033-0.10751-0.56433 0.96324-0.38489 0.24616
  -7  -4   1 1266.94  346.46   1-0.72654 0.12549 0.56981-0.94088 0.38398-0.31462
   7   4  -1 1492.83  375.48   1 0.72469-0.12351-0.57070 0.94041-0.38616 0.31679
  -7  -4   0  491.79  265.67   1-0.72681 0.14755 0.56951-0.91149 0.38392-0.38392
   7   4   0  661.15  361.69   1 0.72495-0.14541-0.57040 0.91092-0.38610 0.38610
  -7  -4  -1 3532.03  586.40   1-0.73369 0.17622 0.56167-0.87457 0.38237-0.45173
   7   4   1 3037.12  423.91   1 0.73186-0.17395-0.56258 0.87390-0.38454 0.45390
  -7  -4  -2 1478.55  377.19   1-0.74788 0.21220 0.54500-0.82882 0.37899-0.51770
   7   4   2 1222.13  278.66   1 0.74609-0.20982-0.54596 0.82808-0.38112 0.51985
  -7  -4  -3   60.58  156.63   1-0.76990 0.25602 0.51767-0.77240 0.37317-0.58124
   7   4   3  355.50  378.24   1 0.76819-0.25355-0.51871 0.77163-0.37525 0.58334
  -7  -4  -4  481.49  199.35   1-0.79994 0.30784 0.47710-0.70275 0.36395-0.64137
   7   4   4  306.15  210.69   1 0.79924-0.30636-0.47760 0.70268-0.36483 0.64216
  -7  -4  -5  937.59  261.93   1-0.83748 0.36718 0.41979-0.61636 0.34983-0.69661
  -7  -4  -6  331.73  101.85   1-0.87944 0.42924 0.34117-0.50739 0.33191-0.74719
  -7  -4  -6  254.95  168.10   1-0.16685-0.28187-0.98173 0.81465 0.09140-0.50684
  -7  -4  -7   29.99   89.69   1-0.92435 0.49557 0.23555-0.37253 0.30012-0.78461
  -7  -4  -7  195.39  152.58   1-0.19228-0.23506-0.98133 0.84321-0.00093-0.48345
  -7  -4  -8 1694.06  258.97   1-0.96288 0.55553 0.09443-0.20215 0.25284-0.80654
  -7  -4  -8 1641.84  396.37   1-0.21437-0.19133-0.97281 0.86385-0.08759-0.46599
  -7  -4  -9  355.33  185.70   1-0.23350-0.15055-0.95769 0.87788-0.16820-0.45458
  -7  -4 -1014646.23 1948.42   1-0.25005-0.11236-0.93719 0.88654-0.24319-0.44879
  -7  -4 -1134118.92 1353.32   1-0.26503-0.07576-0.91213 0.89027-0.31268-0.44907
  -7  -4 -12 3401.76  508.38   1-0.27731-0.04184-0.88327 0.89055-0.37806-0.45294
  -7  -5   4  168.40  215.40   1-0.82457 0.15867 0.44046-0.98427 0.35506-0.07763
   7   5  -4   -8.20  222.76   1 0.82400-0.15851-0.44087 0.98422-0.35586 0.07853
  -7  -5   3  261.20  273.62   1-0.81218 0.16807 0.45931-0.97404 0.35969-0.15162
   7   5  -3  510.99  384.26   1 0.81158-0.16771-0.45972 0.97396-0.36053 0.15253
  -7  -5   2 1334.54  354.55   1-0.80355 0.18123 0.47194-0.95758 0.36272-0.22401
   7   5  -2 1153.39  386.27   1 0.80292-0.18067-0.47235 0.95747-0.36358 0.22491
  -7  -5   1  206.12  103.31   1-0.79924 0.19871 0.47809-0.93465 0.36418-0.29482
   7   5  -1  148.92  218.16   1 0.79859-0.19796-0.47852 0.93453-0.36505 0.29571
  -7  -5   0  393.44  246.84   1-0.79980 0.22106 0.47730-0.90478 0.36399-0.36399
   7   5   0  380.57  333.39   1 0.79913-0.22012-0.47775 0.90466-0.36486 0.36486
  -7  -5  -1 9021.30 1352.72   1-0.80571 0.24876 0.46881-0.86721 0.36198-0.43133
   7   5   1 7994.54  611.08   1 0.80503-0.24763-0.46932 0.86711-0.36285 0.43218
  -7  -5  -2 1121.87  237.64   1-0.81735 0.28219 0.45156-0.82087 0.35780-0.49651
   7   5   2  919.28  272.31   1 0.81664-0.28087-0.45214 0.82083-0.35867 0.49733
  -7  -5  -3  146.19  131.19   1-0.83487 0.32150 0.42407-0.76430 0.35092-0.55899
  -7  -5  -4 9285.90 1735.17   1-0.85805 0.36647 0.38442-0.69556 0.34054-0.61796
  -7  -5  -514525.68  707.40   1-0.88470 0.41333 0.33039-0.61129 0.32882-0.67488
  -7  -5  -6 5261.59 1063.44   1-0.91562 0.46566 0.25902-0.51067 0.30747-0.72274
  -7  -5  -7 1387.49  252.28   1-0.94614 0.51761 0.16648-0.38888 0.27764-0.76212
  -7  -5  -7 1616.52  335.89   1-0.16093-0.26568-0.98057 0.75713 0.11212-0.59679
  -7  -5  -8  117.49  138.03   1-0.97044 0.56334 0.04857-0.24172 0.23637-0.79007
  -7  -5  -8  171.97  143.05   1-0.18614-0.21911-0.98227 0.78775 0.02211-0.57570
  -7  -5  -9  -26.58   93.86   1-0.20849-0.17512-0.97593 0.81056-0.06394-0.55884
  -7  -5 -10   -4.14  210.92   1-0.22819-0.13379-0.96272 0.82652-0.14521-0.54677
  -7  -5 -11  115.02  164.15   1-0.24544-0.09489-0.94370 0.83666-0.22174-0.53943
  -7  -5 -12 1093.16  365.17   1-0.26122-0.05753-0.91958 0.84127-0.29345-0.53754
  -7  -6   3  606.07  307.58   1-0.86808 0.22449 0.36588-0.96610 0.33550-0.12743
  -7  -6   2  209.16  184.06   1-0.86108 0.23928 0.37891-0.95005 0.33905-0.20034
  -7  -6   1  149.27  107.54   1-0.85756 0.25755 0.38530-0.92736 0.34077-0.27142
  -7  -6   0   80.93  135.13   1-0.85791 0.27969 0.38466-0.89763 0.34060-0.34060
  -7  -6  -1  543.00  269.14   1-0.86245 0.30602 0.37640-0.86029 0.33837-0.40773
  -7  -6  -2    5.30  101.61   1-0.87014 0.33474 0.35946-0.81353 0.33708-0.47550
  -7  -6  -310339.74 1796.31   1-0.88325 0.36927 0.33340-0.75822 0.32969-0.53733
  -7  -6  -4 4718.99  585.77   1-0.90024 0.40768 0.29646-0.69203 0.31886-0.59571
  -7  -6  -5 3001.21  666.90   1-0.92019 0.44906 0.24696-0.61329 0.30371-0.64977
  -7  -6  -6  354.02  205.04   1-0.94147 0.49177 0.18293-0.52001 0.28311-0.69838
  -7  -6  -7  255.17  257.85   1-0.96137 0.53308 0.10219-0.41002 0.25558-0.74006
  -7  -6  -8  233.58  150.50   1-0.97566 0.56880 0.00245-0.28103 0.21926-0.77297
  -7  -6  -8  162.03  105.07   1-0.15968-0.24483-0.98027 0.70047 0.11646-0.67036
  -7  -6  -9  973.41  224.71   1-0.97797 0.59253-0.11838-0.13094 0.17191-0.79482
  -7  -6  -9 1880.56  348.74   1-0.18420-0.19898-0.98245 0.73152 0.02933-0.65212
  -7  -6 -10 2272.25  569.55   1-0.20627-0.15527-0.97693 0.75517-0.05512-0.63686
  -7  -6 -11  438.80  158.50   1-0.22599-0.11391-0.96460 0.77200-0.13586-0.62532
  -7  -6 -12  371.85  294.36   1-0.24347-0.07479-0.94629 0.78285-0.21269-0.61769
  -7  -7   2  199.59  212.80   1-0.90479 0.28395 0.28582-0.94231 0.31566-0.17724
  -7  -7   1 2258.03  445.86   1-0.90175 0.30233 0.29297-0.92021 0.31781-0.24860
  -7  -7   0  468.54  160.61   1-0.90166 0.32366 0.29318-0.89117 0.31787-0.31787
  -7  -7  -1  931.82  292.04   1-0.90471 0.34813 0.28602-0.85476 0.31572-0.38493
  -7  -7  -2  528.93  189.55   1-0.91095 0.37580 0.27086-0.81036 0.31111-0.44954
  -7  -7  -3  786.40  270.72   1-0.92021 0.40648 0.24691-0.75716 0.30370-0.51133
  -7  -7  -4 1030.29  373.44   1-0.93204 0.43973 0.21320-0.69420 0.29299-0.56984
  -7  -7  -5  570.85  301.51   1-0.94557 0.47469 0.16856-0.62031 0.27833-0.62440
  -7  -7  -6 1291.17  349.00   1-0.95941 0.50995 0.11173-0.53423 0.25892-0.67419
  -7  -7  -7  367.58  236.33   1-0.97142 0.54338 0.04136-0.43461 0.23373-0.71822
  -7  -7  -8 1106.87  243.42   1-0.97849 0.57187-0.04382-0.32018 0.20157-0.75527
  -7  -7  -9  706.54  269.53   1-0.97625 0.59106-0.14487-0.18988 0.16104-0.78395
  -7  -7  -9 1201.74  369.43   1-0.16188-0.22054-0.98078 0.64462 0.10884-0.73199
  -7  -7 -10 2884.77  743.49   1-0.18547-0.17563-0.98234 0.67502 0.02460-0.71659
  -7  -7 -11  143.64  165.80   1-0.20698-0.13248-0.97662 0.69846-0.05791-0.70327
  -7  -8   0 2245.23  463.42   1-0.93489 0.35713 0.20442-0.88784 0.29015-0.29015
  -7  -8  -1   73.69  200.89   1-0.93667 0.38034 0.19877-0.85294 0.28831-0.35752
  -7  -8  -2   27.61  195.69   1-0.94069 0.40579 0.18557-0.81049 0.28398-0.42240
  -7  -8  -3  943.38  336.66   1-0.94675 0.43327 0.16425-0.75993 0.27689-0.48453
  -7  -8  -4 4941.11  591.78   1-0.95440 0.46234 0.13415-0.70058 0.26668-0.54353
  -7  -8  -5  364.07  276.87   1-0.96287 0.49224 0.09447-0.63165 0.25286-0.59892
  -7  -8  -6 1453.04  392.23   1-0.97101 0.52180 0.04439-0.55232 0.23484-0.65011
  -7  -8  -7 1434.36  374.36   1-0.97713 0.54935-0.01691-0.46176 0.21192-0.69641
  -7  -8  -8 1331.46  342.15   1-0.97891 0.57254-0.09021-0.35922 0.18328-0.73698
  -7  -8  -9  133.24  215.38   1-0.97319 0.58825-0.17601-0.24417 0.14802-0.77093
  -7  -8  -9   17.07  219.12   1-0.14238-0.23959-0.97418 0.55248 0.17520-0.79834
  -7  -8 -10  327.72  140.54   1-0.16666-0.19366-0.98170 0.58918 0.09206-0.78444
  -7  -8 -11  269.09  115.50   1-0.18925-0.14977-0.98187 0.61815 0.01046-0.77165
  -7  -9  -2  210.59  305.31   1-0.96108 0.42642 0.10360-0.81395 0.25607-0.39450
  -7  -9  -3 1141.24  410.54   1-0.96459 0.45136 0.08520-0.76630 0.24957-0.45721
  -7  -9  -4  974.81  347.54   1-0.96896 0.47714 0.05883-0.71069 0.24010-0.51695
  -7  -9  -5  -78.58  172.04   1-0.97352 0.50313 0.02399-0.64659 0.22732-0.57338
  -7  -9  -6  281.09  324.01   1-0.97732 0.52836-0.01988-0.57347 0.21079-0.62606
  -7  -9  -7  261.55  216.85   1-0.97904 0.55149-0.07329-0.49081 0.19001-0.67450
  -7  -9  -8  190.39  278.48   1-0.97687 0.57075-0.13668-0.39817 0.16442-0.71812
  -7  -9  -9  132.44  190.75   1-0.96849 0.58379-0.21031-0.29529 0.13338-0.75629
  -7  -9 -10  197.52  143.29   1-0.15040-0.20947-0.97743 0.49937 0.14829-0.84067
  -7 -10  -5  402.67  260.44   1-0.97848 0.50834-0.04353-0.66450 0.20168-0.54774
  -7 -10  -6  116.98  233.07   1-0.97901 0.53029-0.08174-0.59703 0.18666-0.60193
  -7 -10  -7  186.44  222.19   1-0.97742 0.55013-0.12823-0.52129 0.16789-0.65238
   8  -7  -3  563.24  410.73   1-0.16582 0.89949-0.92939 0.41955-0.32974 0.12202
   8  -7  -2 2643.39  498.43   1-0.19099 0.90299-0.92686 0.38791-0.32318 0.18470
   8  -7  -1 4908.40  581.14   1-0.21025 0.90059-0.92448 0.35643-0.31799 0.24875
   8  -7   0 5631.92  612.25   1-0.22302 0.89170-0.92269 0.32553-0.31447 0.31447
   8  -7   1 7389.61  682.28   1-0.22851 0.87553-0.92187 0.29560-0.31293 0.38217
   8  -7   2  471.22  313.45   1-0.22567 0.85102-0.92230 0.26692-0.31373 0.45221
   8  -6  -4  535.55  254.60   1-0.08434 0.83965-0.93316 0.53826-0.34941 0.07245
   8  -6  -3  711.92  373.42   1-0.11693 0.85061-0.93242 0.50836-0.34192 0.13420
   8  -6  -2 1914.38  411.31   1-0.14533 0.85648-0.93097 0.47734-0.33489 0.19641
   8  -6  -1  929.52  321.52   1-0.16654 0.85603-0.92932 0.44658-0.32956 0.26032
   8  -6   0 2687.41  395.28   1-0.18114 0.84896-0.92792 0.41607-0.32578 0.32578
   8  -6   1  332.58  336.47   1-0.18826 0.83443-0.92716 0.38620-0.32391 0.39315
   8  -6   2  447.16  340.25   1-0.18678 0.81129-0.92732 0.35726-0.32430 0.46278
   8  -6   3  313.52  194.56   1-0.17511 0.77795-0.92853 0.32935-0.32735 0.53508
   8  -5  -5  104.94  213.55   1 0.01518 0.76084-0.92900 0.64850-0.36976 0.02356
   8  -5  -4 1697.31  428.31   1-0.02384 0.77825-0.93178 0.62213-0.36223 0.08527
   8  -5  -3  123.87  181.48   1-0.05790 0.79068-0.93299 0.59419-0.35519 0.14747
   8  -5  -2 9533.64  696.27   1-0.08651 0.79766-0.93314 0.56518-0.34893 0.21045
   8  -5  -1  -47.78  211.44   1-0.10908 0.79861-0.93269 0.53558-0.34376 0.27452
   8  -5   0  116.79  220.75   1-0.12621 0.79317-0.93207 0.50553-0.33955 0.33955
   8  -5   1  256.29  249.60   1-0.13438 0.77968-0.93165 0.47600-0.33758 0.40682
   8  -5   2   35.30  202.89   1-0.13360 0.75724-0.93169 0.44693-0.33777 0.47626
   8  -5   3   33.71  156.61   1-0.12062 0.72365-0.93227 0.41853-0.34105 0.54877
   8  -5   4  925.53  292.88   1-0.09587 0.67727-0.93302 0.39012-0.34681 0.62377
  -8   5  -5 5155.91  531.89   1-0.29441-0.26266-0.18991 0.76255-0.93661 0.59120
  -8   5  -6 1564.42  408.56   1-0.29847-0.23693-0.22287 0.82470-0.92802 0.51353
   8  -4  -6 4963.21  686.49   1 0.13122 0.66552-0.91197 0.74589-0.38868-0.02675
   8  -4  -5  370.13  315.60   1 0.08706 0.68805-0.92000 0.72477-0.38210 0.03589
   8  -4  -4  364.41  222.59   1 0.04738 0.70611-0.92559 0.70120-0.37553 0.09857
   8  -4  -3  164.54  253.55   1 0.01259 0.71927-0.92923 0.67568-0.36928 0.16156
   8  -4  -2 3604.89  479.86   1-0.01674 0.72698-0.93138 0.64867-0.36365 0.22517
   8  -4  -1 1338.04  373.23   1-0.03999 0.72861-0.93249 0.62063-0.35895 0.28971
   8  -4   0  -62.56  225.59   1-0.05632 0.72332-0.93296 0.59194-0.35552 0.35552
   8  -4   1   30.00  217.00   1-0.06470 0.71006-0.93310 0.56293-0.35373 0.42297
   8  -4   2  -85.92  188.74   1-0.06372 0.68746-0.93309 0.53376-0.35394 0.49242
   8  -4   3 1155.43  269.77   1-0.05148 0.65360-0.93285 0.50436-0.35655 0.56427
   8  -4   4 1605.06  347.15   1-0.02522 0.60572-0.93185 0.47421-0.36196 0.63892
  -8   4  -4 1688.64  265.16   1-0.30243-0.27596-0.25782 0.71593-0.91763 0.64130
  -8   4  -5  417.66  201.69   1-0.30724-0.24949-0.30570 0.79300-0.90119 0.55577
  -8   4  -6  164.70  165.84   1-0.30982-0.22491-0.33352 0.85035-0.89037 0.47571
  -8   4  -7  497.57  208.30   1-0.31097-0.20210-0.34754 0.89358-0.88459 0.40081
   8  -3  -6   99.39  231.86   1 0.21169 0.58413-0.89230 0.81148-0.39870-0.01673
   8  -3  -5  258.78  286.72   1 0.16793 0.60628-0.90382 0.79383-0.39358 0.04737
   8  -3  -4    3.93  190.53   1 0.12850 0.62407-0.91252 0.77338-0.38830 0.11134
   8  -3  -3 2868.09  434.57   1 0.09391 0.63704-0.91888 0.75059-0.38317 0.17545
   8  -3  -219117.20  906.96   1 0.06475 0.64458-0.92333 0.72588-0.37848 0.24000
   8  -3  -113715.21  791.97   1 0.04175 0.64595-0.92626 0.69965-0.37455 0.30531
   8  -3   0  377.75  301.31   1 0.02581 0.64026-0.92798 0.67222-0.37171 0.37171
   8  -3   1 2081.52  336.66   1 0.01812 0.62633-0.92873 0.64381-0.37030 0.43954
   8  -3   228743.20  966.27   1 0.02019 0.60264-0.92853 0.61446-0.37068 0.50916
   8  -3   3 4473.29  432.08   1 0.03411 0.56709-0.92712 0.58389-0.37320 0.58092
   8  -3   4  309.83  193.88   1 0.06289 0.51668-0.92359 0.55120-0.37817 0.65513
  -8   3  -4  -43.65  116.55   1-0.31412-0.26361-0.39122 0.76425-0.86502 0.58857
   8  -3   5   65.74  131.97   1 0.11112 0.44683-0.91587 0.51432-0.38578 0.73198
  -8   3  -5   75.47  133.38   1-0.31635-0.23973-0.42990 0.83213-0.84563 0.50008
  -8   3  -6  651.37  242.20   1-0.31727-0.21715-0.44955 0.88099-0.83500 0.42034
  -8   3  -7  262.72  232.30   1-0.31756-0.19520-0.45655 0.91720-0.83108 0.34731
  -8   3  -8  437.77  283.48   1-0.31747-0.17363-0.45450 0.94435-0.83224 0.27936
   8  -2  -6  311.16  345.12   1 0.29820 0.49691-0.86341 0.86775-0.40693-0.00876
   8  -2  -5  309.87  284.58   1 0.25575 0.51775-0.87851 0.85362-0.40348 0.05707
   8  -2  -4  318.16  230.77   1 0.21754 0.53436-0.89044 0.83631-0.39972 0.12259
   8  -2  -3 5428.00  589.27   1 0.18440 0.54565-0.89971 0.81667-0.39560 0.18787
   8  -2  -2  277.88  228.60   1 0.15641 0.55201-0.90652 0.79432-0.39210 0.25362
   8  -2  -1  172.72  218.20   1 0.13465 0.55215-0.91127 0.76991-0.38916 0.31992
   8  -2   0 2410.61  408.31   1 0.12010 0.54507-0.91418 0.74367-0.38710 0.38710
   8  -2   1  470.47  274.84   1 0.11404 0.52950-0.91533 0.71566-0.38621 0.45545
   8  -2   228394.44  942.16   1 0.11811 0.50381-0.91456 0.68574-0.38681 0.52529
   8  -2   366842.33 1310.54   1 0.13455 0.46574-0.91129 0.65331-0.38915 0.59687
   8  -2   455216.22 1188.88   1 0.16650 0.41217-0.90416 0.61703-0.39340 0.67036
  -8   2  -456137.37 1062.69   1-0.31953-0.25774-0.53662 0.82426-0.78098 0.50413
   8  -2   5  357.71  216.45   1 0.21851 0.33892-0.89016 0.57293-0.39982 0.74624
  -8   2  -5  169.33  191.84   1-0.31956-0.23602-0.56042 0.87724-0.76407 0.41801
  -8   2  -6 2257.88  328.25   1-0.31950-0.21437-0.56865 0.91464-0.75799 0.34272
  -8   2  -7 6053.04  507.15   1-0.31952-0.19266-0.56679 0.94197-0.75937 0.27489
  -8   2  -8   57.82  171.23   1-0.31957-0.17091-0.55778 0.96214-0.76599 0.21230
  -8   2  -9  230.45  213.90   1-0.31956-0.14921-0.54329 0.97682-0.77634 0.15343
   8  -1  -6  332.79  251.91   1 0.38905 0.40561-0.82416 0.91403-0.41157-0.00412
   8  -1  -5  149.26  186.34   1 0.34889 0.42415-0.84271 0.90335-0.41000 0.06358
   8  -1  -4 2305.93  458.98   1 0.31288 0.43856-0.85772 0.88912-0.40794 0.13080
   8  -1  -3 2033.62  421.27   1 0.28157 0.44826-0.86956 0.87173-0.40567 0.19782
   8  -1  -2  385.43  273.43   1 0.25567 0.45255-0.87854 0.85147-0.40347 0.26491
   8  -1  -1  205.42  199.94   1 0.23603 0.45058-0.88486 0.82856-0.40162 0.33234
   8  -1   0  473.49  217.87   1 0.22371 0.44129-0.88862 0.80309-0.40037 0.40037
   8  -1   1 2370.77  337.21   1 0.22004 0.42336-0.88971 0.77494-0.39999 0.46927
   8  -1   2 1099.37  284.39   1 0.22672 0.39507-0.88772 0.74372-0.40068 0.53925
   8  -1   342242.72 1050.56   1 0.24601 0.35417-0.88170 0.70846-0.40258 0.61043
  -8   1  -345725.91  826.09   1-0.31564-0.28267-0.66137 0.83469-0.68040 0.47263
   8  -1   4 2021.19  296.91   1 0.28101 0.29756-0.86976 0.66729-0.40563 0.68276
  -8   1  -4 1837.79  269.65   1-0.31409-0.26262-0.68354 0.88612-0.65887 0.38184
   8  -1   5  473.09  217.59   1 0.33615 0.22082-0.84819 0.61649-0.40933 0.75575
  -8   1  -5  347.39  198.46   1-0.31369-0.24142-0.68854 0.92039-0.65384 0.30755
  -8   1  -6 8907.56  523.50   1-0.31408-0.21943-0.68371 0.94484-0.65869 0.24315
  -8   1  -7  348.80  224.72   1-0.31491-0.19699-0.67238 0.96277-0.66986 0.18506
  -8   1  -8  736.01  259.77   1-0.31595-0.17435-0.65625 0.97590-0.68520 0.13115
  -8   1  -9  962.60  340.86   1-0.31700-0.15170-0.63625 0.98518-0.70334 0.08003
  -8   1 -10  449.62  312.97   1-0.31856-0.12826-0.61404 0.99128-0.72213 0.03001
   8   0  -6  -99.24  212.86   1 0.48053 0.31367-0.77412 0.94952-0.41209-0.00359
   8   0  -5 1691.85  428.81   1 0.44342 0.32917-0.79578 0.94195-0.41242 0.06601
   8   0  -4 2735.80  538.89   1 0.41033 0.34065-0.81351 0.93045-0.41209 0.13495
   8   0  -3  333.48  260.33   1 0.38187 0.34751-0.82762 0.91532-0.41135 0.20350
   8   0  -2 7632.10  659.46   1 0.35876 0.34901-0.83834 0.89680-0.41045 0.27189
   8   0  -1  229.20  204.21   1 0.34187 0.34429-0.84576 0.87499-0.40964 0.34036
   8   0   0 1343.12  297.33   1 0.33227 0.33227-0.84982 0.84982-0.40912 0.40912
   8   0   1  878.67  297.55   1 0.33129 0.31165-0.85023 0.82100-0.40906 0.47835
   8   0   2  369.09  203.09   1 0.34057 0.28076-0.84631 0.78785-0.40957 0.54814
   8   0   3 5927.83  482.55   1 0.36223 0.23749-0.83677 0.74906-0.41060 0.61845
  -8   0  -3 6625.53  347.77   1-0.29391-0.30380-0.82375 0.91156-0.48480 0.27703
   8   0   4  279.42  118.42   1 0.39903 0.17909-0.81924 0.70230-0.41184 0.68897
  -8   0  -4  212.39  134.30   1-0.29525-0.28087-0.81783 0.93491-0.49392 0.21690
   8   0   5   -7.95  135.67   1 0.45463 0.10187-0.78944 0.64327-0.41240 0.75882
  -8   0  -5  120.49  172.46   1-0.29778-0.25673-0.80586 0.95221-0.51176 0.16548
   8   0   6 2384.77  274.07   1 0.53565-0.00110-0.73800 0.56281-0.41040 0.82658
  -8   0  -6 3262.13  362.39   1-0.30086-0.23204-0.78978 0.96539-0.53452 0.11898
  -8   0  -7 6505.15  489.44   1-0.30412-0.20719-0.77050 0.97538-0.56020 0.07540
  -8   0  -813373.71  732.95   1-0.30731-0.18239-0.74850 0.98265-0.58762 0.03357
  -8   0  -9  208.54  205.38   1-0.31029-0.15781-0.72402 0.98744-0.61604-0.00726
  -8   0 -10  104.91  198.01   1-0.31295-0.13354-0.69720 0.98989-0.64494-0.04761
   8   1  -5  119.65  239.98   1 0.53518 0.23691-0.73832 0.96944-0.41042 0.06360
   8   1  -4  708.96  300.10   1 0.50628 0.24424-0.75790 0.96037-0.41140 0.13427
   8   1  -3 1788.43  477.29   1 0.48107 0.24785-0.77379 0.94702-0.41208 0.20423
   8   1  -2  117.82  213.36   1 0.46106 0.24624-0.78573 0.92972-0.41236 0.27380
   8   1  -1 2797.85  428.03   1 0.44712 0.23857-0.79371 0.90847-0.41242 0.34314
   8   1   0 1593.44  326.64   1 0.44027 0.22382-0.79753 0.88306-0.41241 0.41241
   8   1   115649.67  785.40   1 0.44173 0.20075-0.79673 0.85302-0.41242 0.48170
   8   1   2 2955.26  360.58   1 0.45298 0.16789-0.79039 0.81745-0.41241 0.55098
   8   1   3 1315.07  321.03   1 0.47583 0.12344-0.77697 0.77480-0.41218 0.62003
  -8  -1  -3 1470.87  363.24   1-0.25143-0.34672-0.93510 0.93702-0.24972 0.04212
   8   1   4 1440.99  253.87   1 0.51244 0.06522-0.75387 0.72247-0.41118 0.68831
  -8  -1  -4 1347.10  222.52   1-0.26200-0.31439-0.91810 0.94907-0.29736 0.02036
   8   1   5    9.62  121.08   1 0.56590-0.01016-0.71617 0.65530-0.40847 0.75529
  -8  -1  -5  178.30  131.14   1-0.27112-0.28364-0.89882 0.95892-0.34439-0.00185
   8   1   6   42.50  124.92   1 0.63859-0.10449-0.65675 0.56668-0.40109 0.81727
  -8  -1  -6  197.50  141.90   1-0.27933-0.25378-0.87766 0.96690-0.38946-0.02603
  -8  -1  -7 2413.72  328.99   1-0.28672-0.22475-0.85464 0.97303-0.43286-0.05188
  -8  -1  -8  467.92  185.11   1-0.29272-0.19639-0.82883 0.97747-0.47681-0.07724
  -8  -1  -9  299.97  175.94   1-0.29856-0.16895-0.80200 0.97991-0.51735-0.10595
  -8  -1 -10  947.15  362.45   1-0.30368-0.14222-0.77327 0.98045-0.55662-0.13594
  -8  -1 -11  762.84  344.78   1-0.30808-0.11622-0.74260 0.97905-0.59465-0.16716
   8   2  -4 3132.06  540.82   1 0.59620 0.15381-0.69266 0.97971-0.40589 0.12844
   8   2  -3  380.70  237.31   1 0.57432 0.15406-0.70980 0.96766-0.40782 0.19973
   8   2  -2 3478.21  536.79   1 0.55741 0.14933-0.72245 0.95111-0.40907 0.27035
   8   2  -1 2083.79  372.81   1 0.54628 0.13882-0.73050 0.92996-0.40979 0.34043
   8   2   0 8214.41  616.85   1 0.54185 0.12162-0.73365 0.90391-0.41005 0.41005
   8   2   112695.69  695.40   1 0.54518 0.09665-0.73129 0.87235-0.40986 0.47922
   8   2   211888.02  659.95   1 0.55749 0.06270-0.72239 0.83425-0.40907 0.54780
  -8  -2  -213692.77 1224.67   1-0.17244-0.44668-0.98242 0.86969 0.07151-0.20999
   8   2   3  950.21  277.55   1 0.58017 0.01838-0.70530 0.78797-0.40734 0.61543
  -8  -2  -3  955.76  234.41   1-0.19700-0.40071-0.98021 0.89657-0.01897-0.18862
   8   2   4  407.02  274.05   1 0.61471-0.03778-0.67743 0.73090-0.40398 0.68143
  -8  -2  -4  160.34  147.29   1-0.21734-0.35873-0.97098 0.91650-0.09976-0.17702
   8   2   5  178.70  193.45   1 0.66260-0.10730-0.63466 0.65893-0.39768 0.74450
  -8  -2  -5  -41.51  117.89   1-0.23446-0.31996-0.95671 0.93138-0.17240-0.17358
  -8  -2  -6 2876.56  576.83   1-0.72534 0.19274 0.57116-0.56766 0.38424-0.80038
   8   2   6 2565.36  309.41   1 0.72497-0.19131-0.57038 0.56545-0.38609 0.80228
  -8  -2  -6 2459.31  608.79   1-0.24906-0.28373-0.93865 0.94248-0.23853-0.17666
  -8  -2  -7 7729.40 1204.86   1-0.80212 0.29131 0.47399-0.44139 0.36321-0.84870
   8   2   7 8799.43  486.08   1 0.80172-0.29005-0.47406 0.44105-0.36399 0.84931
  -8  -2  -7 9348.16  541.43   1-0.26223-0.24885-0.91767 0.95046-0.29849-0.18625
  -8  -2  -8  130.69  177.10   1-0.27315-0.21628-0.89396 0.95588-0.35527-0.19873
  -8  -2  -9 1198.52  310.13   1-0.28264-0.18515-0.86788 0.95895-0.40850-0.21474
  -8  -2 -10 4919.00  604.65   1-0.29027-0.15503-0.83867 0.96034-0.46083-0.23173
  -8  -2 -11  156.06  242.75   1-0.29732-0.12638-0.80813 0.95907-0.50844-0.25337
   8   3  -4  321.43  260.90   1 0.67938 0.07019-0.61840 0.99058-0.39497 0.11752
   8   3  -3  104.13  197.43   1 0.66065 0.06729-0.63651 0.97949-0.39798 0.18989
   8   3  -2 1811.61  446.72   1 0.64650 0.05979-0.64961 0.96340-0.40003 0.26130
   8   3  -1  287.46  297.74   1 0.63766 0.04700-0.65757 0.94215-0.40121 0.33185
   8   3   0 2071.87  432.52   1 0.63492 0.02810-0.66000 0.91539-0.40157 0.40157
   8   3   1 4317.91  487.70   1 0.63913 0.00226-0.65626 0.88245-0.40102 0.47038
   8   3   2  -11.32  194.71   1 0.65121-0.03145-0.64530 0.84229-0.39936 0.53809
   8   3   3 2181.78  368.71   1 0.67211-0.07399-0.62553 0.79333-0.39618 0.60427
  -8  -3  -3 2411.02  266.11   1-0.14293-0.45409-0.97443 0.80535 0.17334-0.38106
  -8  -3  -4  204.40  181.20   1-0.70381 0.12815 0.59462-0.73478 0.38866-0.66608
   8   3   4   80.10  177.68   1 0.70267-0.12619-0.59461 0.73320-0.39073 0.66819
  -8  -3  -4  114.60   94.98   1-0.17042-0.40495-0.98222 0.84231 0.07872-0.35567
  -8  -3  -5  834.73  325.00   1-0.74453 0.19066 0.54900-0.66007 0.37982-0.72660
   8   3   5  586.44  291.61   1 0.74349-0.18863-0.54906 0.65845-0.38177 0.72859
  -8  -3  -5  555.18  191.44   1-0.19434-0.35965-0.98089 0.87001-0.00876-0.33722
  -8  -3  -6  557.92  142.40   1-0.79540 0.26332 0.48350-0.56549 0.36544-0.78158
   8   3   6  594.15  231.82   1 0.79489-0.26195-0.48371 0.56518-0.36627 0.78226
  -8  -3  -6  670.38  174.29   1-0.21494-0.31741-0.97247 0.89075-0.08992-0.32527
  -8  -3  -7  952.67  329.32   1-0.85477 0.34448 0.39027-0.44318 0.34210-0.82759
  -8  -3  -7 1361.75  357.80   1-0.23274-0.27797-0.95845 0.90589-0.16488-0.31951
  -8  -3  -8  363.11  174.45   1-0.24816-0.24091-0.93994 0.91653-0.23434-0.31924
  -8  -3  -9  -61.84  159.69   1-0.26219-0.20520-0.91774 0.92320-0.29832-0.32492
  -8  -3 -10 2966.18  474.90   1-0.27382-0.17193-0.89230 0.92690-0.35891-0.33358
  -8  -3 -11  456.28  352.42   1-0.28389-0.14022-0.86398 0.92773-0.41585-0.34589
  -8  -4   4 1837.78  511.41   1-0.75475 0.00528 0.53667-0.99499 0.37725-0.09983
   8   4  -4 3214.30  542.41   1 0.75314-0.00400-0.53747 0.99478-0.37933 0.10187
  -8  -4   3 1511.19  452.32   1-0.73892 0.01125 0.55560-0.98484 0.38116-0.17309
   8   4  -3 1282.54  383.57   1 0.73725-0.00975-0.55637 0.98448-0.38328 0.17518
  -8  -4   2  516.86  279.99   1-0.72717 0.02128 0.56910-0.96925 0.38384-0.24513
   8   4  -2  427.80  233.12   1 0.72546-0.01960-0.56983 0.96875-0.38599 0.24726
  -8  -4   1  113.51  186.53   1-0.72010 0.03601 0.57700-0.94807 0.38537-0.31601
   8   4  -1  148.80  224.46   1 0.71838-0.03415-0.57770 0.94741-0.38753 0.31816
  -8  -4   0 1350.08  376.09   1-0.71837 0.05606 0.57892-0.92090 0.38573-0.38573
   8   4   0 1066.93  364.66   1 0.71665-0.05406-0.57959 0.92011-0.38789 0.38789
  -8  -4  -1  611.07  241.54   1-0.72262 0.08210 0.57421-0.88711 0.38483-0.45419
   8   4   1  646.31  264.26   1 0.72093-0.07998-0.57488 0.88619-0.38698 0.45634
  -8  -4  -2  715.91  238.07   1-0.73349 0.11477 0.56190-0.84572 0.38242-0.52113
   8   4   2  682.37  315.93   1 0.73186-0.11254-0.56258 0.84470-0.38454 0.52327
  -8  -4  -3 5956.10 1000.55   1-0.75155 0.15461 0.54058-0.79531 0.37807-0.58614
   8   4   3 5901.42  568.49   1 0.74999-0.15231-0.54129 0.79421-0.38014 0.58823
  -8  -4  -4  203.25  164.77   1-0.77715 0.20200 0.50825-0.73390 0.37109-0.64851
   8   4   4  203.85  193.41   1 0.77658-0.20074-0.50848 0.73356-0.37196 0.64929
  -8  -4  -5 1039.63  305.70   1-0.81026 0.25691 0.46215-0.65872 0.36038-0.70716
   8   4   5  639.61  253.93   1 0.80966-0.25544-0.46255 0.65852-0.36122 0.70788
  -8  -4  -5 1004.86  331.37   1-0.15514-0.39813-0.97901 0.78275 0.13211-0.47831
  -8  -4  -610762.77 1501.19   1-0.85011 0.31855 0.39846-0.56594 0.34427-0.76041
  -8  -4  -610410.34 1698.31   1-0.18006-0.35185-0.98264 0.81536 0.04456-0.45975
  -8  -4  -7 1697.12  406.01   1-0.89335 0.38176 0.31192-0.44889 0.32344-0.80793
  -8  -4  -7 2186.30  462.48   1-0.20210-0.30817-0.97859 0.84047-0.03871-0.44567
  -8  -4  -8  554.40  196.05   1-0.93748 0.44731 0.19617-0.30389 0.28746-0.84116
  -8  -4  -8  757.07  230.42   1-0.22153-0.26711-0.96809 0.85913-0.11708-0.43650
  -8  -4  -9 2607.46  628.62   1-0.23859-0.22840-0.95221 0.87241-0.19067-0.43212
  -8  -4 -10 3727.28  749.36   1-0.25354-0.19181-0.93178 0.88113-0.25978-0.43220
  -8  -4 -11 9671.55  765.70   1-0.26729-0.15642-0.90739 0.88554-0.32431-0.43743
  -8  -5   3  345.23  143.09   1-0.80472 0.07756 0.47025-0.98498 0.36232-0.15425
   8   5  -3  320.54  262.89   1 0.80413-0.07730-0.47062 0.98485-0.36316 0.15517
  -8  -5   2  266.03  128.95   1-0.79494 0.08957 0.48414-0.96979 0.36559-0.22688
   8   5  -2  121.55  202.53   1 0.79433-0.08912-0.48449 0.96962-0.36645 0.22779
  -8  -5   1 1146.10  371.27   1-0.78918 0.10560 0.49211-0.94867 0.36744-0.29808
   8   5  -1  921.24  337.72   1 0.78856-0.10497-0.49245 0.94846-0.36831 0.29897
  -8  -5   0  173.44  117.57   1-0.78793 0.12615 0.49381-0.92129 0.36783-0.36783
   8   5   0  285.47  226.35   1 0.78731-0.12534-0.49415 0.92105-0.36870 0.36870
  -8  -5  -1 5591.78  829.38   1-0.79168 0.15169 0.48867-0.88706 0.36664-0.43600
   8   5   1 4228.21  538.36   1 0.79106-0.15071-0.48902 0.88681-0.36751 0.43684
  -8  -5  -2 1294.82  228.01   1-0.80083 0.18263 0.47583-0.84514 0.36365-0.50236
   8   5   2 1072.21  343.58   1 0.80020-0.18147-0.47623 0.84491-0.36450 0.50317
  -8  -5  -3 7106.56 1147.90   1-0.81565 0.21923 0.45413-0.79436 0.35843-0.56650
   8   5   3 6048.71  603.15   1 0.81501-0.21790-0.45460 0.79417-0.35927 0.56727
  -8  -5  -4  -81.40  171.76   1-0.83616 0.26154 0.42196-0.73310 0.35038-0.62781
  -8  -5  -5  272.96  151.81   1-0.86200 0.30916 0.37723-0.65929 0.33860-0.68537
  -8  -5  -6  505.22  171.73   1-0.89088 0.35811 0.31731-0.56895 0.32502-0.74029
  -8  -5  -6  136.06  161.22   1-0.14747-0.38370-0.97633 0.72371 0.15815-0.57358
  -8  -5  -7  130.08  151.06   1-0.92304 0.41169 0.23920-0.46160 0.30127-0.78576
  -8  -5  -7  267.10  119.36   1-0.17222-0.33731-0.98240 0.75895 0.07228-0.55695
  -8  -5  -8  345.37  210.36   1-0.95342 0.46349 0.13826-0.33141 0.26808-0.82178
  -8  -5  -8  807.78  204.96   1-0.19464-0.29355-0.98082 0.78630-0.00994-0.54365
  -8  -5  -9  128.95   92.47   1-0.21471-0.25184-0.97261 0.80724-0.08900-0.53378
  -8  -5 -10  -50.86  182.78   1-0.23259-0.21233-0.95861 0.82240-0.16420-0.52778
  -8  -5 -11  663.63  195.99   1-0.24842-0.17486-0.93957 0.83253-0.23553-0.52565
  -8  -6   2   85.06   94.81   1-0.85118 0.14633 0.39660-0.96774 0.34378-0.20507
  -8  -6   1 1076.32  347.85   1-0.84635 0.16329 0.40494-0.94700 0.34598-0.27662
  -8  -6   0 3974.08  883.14   1-0.84522 0.18396 0.40686-0.91984 0.34648-0.34648
  -8  -6  -1 4328.59  723.15   1-0.84813 0.20865 0.40189-0.88578 0.34518-0.41453
  -8  -6  -2 2888.70  700.40   1-0.85530 0.23761 0.38934-0.84415 0.34185-0.48056
  -8  -6  -3 2977.74  502.78   1-0.86682 0.27092 0.36826-0.79398 0.33615-0.54422
  -8  -6  -4  -49.31  174.20   1-0.88135 0.30597 0.33731-0.73288 0.33081-0.60766
  -8  -6  -5 1341.60  297.41   1-0.90064 0.34670 0.29552-0.66185 0.31858-0.66464
  -8  -6  -6 4601.92  778.08   1-0.92251 0.38998 0.24067-0.57775 0.30174-0.71701
  -8  -6  -7  227.19  209.25   1-0.94503 0.43393 0.17051-0.47833 0.27898-0.76347
  -8  -6  -7   25.32  160.00   1-0.14512-0.36396-0.97537 0.66639 0.16605-0.65072
  -8  -6  -8  -87.32  154.42   1-0.96509 0.47541 0.08242-0.36099 0.24858-0.80228
  -8  -6  -8  126.50  136.85   1-0.16924-0.31819-0.98207 0.70227 0.08292-0.63683
  -8  -6  -9  406.74  203.86   1-0.97771 0.50946-0.02654-0.22278 0.20824-0.83115
  -8  -6 -10  683.53  193.63   1-0.21153-0.23294-0.97439 0.75263-0.07613-0.61585
  -8  -6 -11 2640.60  829.90   1-0.22967-0.19317-0.96139 0.76879-0.15156-0.60962
  -8  -7   0 1134.57  322.20   1-0.88994 0.22912 0.31932-0.91732 0.32561-0.32561
  -8  -7  -1 1647.71  463.47   1-0.89186 0.25246 0.31518-0.88392 0.32440-0.39361
  -8  -7  -2  961.50  210.15   1-0.89704 0.27907 0.30372-0.84322 0.32102-0.45944
  -8  -7  -3 1597.48  375.77   1-0.90546 0.30891 0.28424-0.79449 0.31518-0.52282
  -8  -7  -4 1114.41  253.40   1-0.91684 0.34172 0.25584-0.73684 0.30648-0.58333
  -8  -7  -514198.32 2008.44   1-0.93063 0.37693 0.21742-0.66917 0.29434-0.64041
  -8  -7  -629388.94 1161.06   1-0.94582 0.41354 0.16766-0.59016 0.27803-0.69331
  -8  -7  -7 4414.77  484.11   1-0.96078 0.44993 0.10509-0.49834 0.25659-0.74108
  -8  -7  -8  125.11  248.36   1-0.97305 0.48362 0.02808-0.39209 0.22883-0.78253
  -8  -7  -8   18.87  195.18   1-0.14660-0.34038-0.97598 0.61064 0.16110-0.71501
  -8  -7  -9   -4.44  137.31   1-0.97898 0.51097-0.06504-0.26971 0.19327-0.81618
  -8  -7  -9   88.44  107.34   1-0.16987-0.29546-0.98215 0.64599 0.08069-0.70383
  -8  -7 -10  287.26  131.29   1-0.19149-0.25255-0.98149 0.67417 0.00206-0.69405
  -8  -7 -11   69.61  173.93   1-0.21131-0.21109-0.97451 0.69635-0.07523-0.68595
  -8  -8  -1  447.41  180.85   1-0.92619 0.28704 0.23036-0.88453 0.29848-0.36769
  -8  -8  -2    5.86  115.24   1-0.92962 0.31190 0.22041-0.84533 0.29530-0.43373
  -8  -8  -3  834.98  270.78   1-0.93537 0.33907 0.20290-0.79857 0.28965-0.49729
  -8  -8  -4 6184.72  707.47   1-0.94314 0.36827 0.17717-0.74360 0.28120-0.55805
  -8  -8  -5 8464.31  716.26   1-0.95239 0.39894 0.14245-0.67963 0.26952-0.61558
  -8  -8  -613191.84  902.73   1-0.96223 0.43020 0.09782-0.60575 0.25404-0.66931
  -8  -8  -7 6367.06  593.76   1-0.97129 0.46068 0.04230-0.52098 0.23407-0.71856
  -8  -8  -8  947.05  339.99   1-0.97763 0.48845-0.02513-0.42430 0.20878-0.76248
  -8  -8  -9  135.08  172.59   1-0.97851 0.51075-0.10548-0.31469 0.17714-0.80006
  -8  -8  -9   86.06  164.39   1-0.15092-0.31396-0.97762 0.55592 0.14651-0.76965
  -8  -8 -10 1079.09  319.38   1-0.17326-0.26997-0.98248 0.58996 0.06857-0.76095
  -8  -9  -4  472.49  380.81   1-0.96156 0.38692 0.10124-0.75309 0.25524-0.53209
  -8  -9  -5  -30.13  223.60   1-0.96715 0.41394 0.07033-0.69294 0.24425-0.59031
  -8  -9  -6  414.56  327.74   1-0.97275 0.44096 0.03068-0.62403 0.22979-0.64507
  -8  -9  -7  115.92  218.04   1-0.97723 0.46687-0.01838-0.54572 0.21136-0.69585
   9  -6  -1  847.06  341.38   1-0.07334 0.84670-0.93317 0.45080-0.35185 0.28261
   9  -6   0  348.72  344.78   1-0.08507 0.83680-0.93315 0.42163-0.34925 0.34925
   9  -6   1 5392.24  659.41   1-0.08945 0.81956-0.93311 0.39243-0.34827 0.41751
   9  -6   2  502.57  315.77   1-0.08535 0.79383-0.93315 0.36331-0.34919 0.48767
   9  -5  -3   16.18  304.90   1 0.02456 0.79113-0.92811 0.58930-0.37148 0.16376
   9  -5  -2  196.93  315.79   1-0.00068 0.79476-0.93030 0.56235-0.36677 0.22829
   9  -5  -1  335.23  309.90   1-0.02005 0.79250-0.93157 0.53445-0.36299 0.29375
   9  -5   0 4189.49  562.25   1-0.03283 0.78365-0.93221 0.50593-0.36042 0.36042
   9  -5   1 2613.12  420.79   1-0.03812 0.76732-0.93242 0.47700-0.35933 0.42857
   9  -5   2 2890.17  466.35   1-0.03474 0.74232-0.93229 0.44770-0.36003 0.49851
   9  -5   3  309.07  264.39   1-0.02107 0.70702-0.93163 0.41789-0.36279 0.57051
   9  -4  -4  438.36  241.19   1 0.12072 0.71568-0.91406 0.68966-0.38719 0.11022
   9  -4  -3  359.54  216.93   1 0.08964 0.72514-0.91959 0.66604-0.38250 0.17478
   9  -4  -2  925.47  332.48   1 0.06385 0.72931-0.92346 0.64075-0.37833 0.23985
   9  -4  -1  473.74  306.41   1 0.04395 0.72758-0.92600 0.61414-0.37494 0.30570
   9  -4   0  106.97  225.19   1 0.03073 0.71918-0.92748 0.58646-0.37260 0.37260
   9  -4   1 1523.42  406.04   1 0.02512 0.70316-0.92805 0.55788-0.37158 0.44083
   9  -4   2  154.32  186.90   1 0.02841 0.67824-0.92772 0.52839-0.37218 0.51066
   9  -4   3   16.48  162.97   1 0.04229 0.64274-0.92620 0.49771-0.37465 0.58237
   9  -4   4  783.56  301.66   1 0.06916 0.59425-0.92272 0.46507-0.37921 0.65617
   9  -3  -4    4.26  202.74   1 0.19432 0.64118-0.89711 0.75797-0.39676 0.11980
   9  -3  -3   11.81  191.42   1 0.16342 0.65045-0.90489 0.73659-0.39300 0.18528
   9  -3  -2  462.37  247.30   1 0.13778 0.65447-0.91061 0.71316-0.38960 0.25112
   9  -3  -1  557.78  257.67   1 0.11805 0.65257-0.91457 0.68796-0.38680 0.31756
   9  -3   0  183.63  215.96   1 0.10505 0.64395-0.91697 0.66120-0.38487 0.38487
   9  -3   1 7016.15  639.25   1 0.09980 0.62757-0.91789 0.63297-0.38407 0.45331
   9  -3   2  156.73  230.49   1 0.10364 0.60211-0.91721 0.60314-0.38466 0.52314
   9  -3   3 2636.29  418.76   1 0.11833 0.56579-0.91452 0.57128-0.38684 0.59456
   9  -3   4 2218.12  328.50   1 0.14634 0.51615-0.90878 0.53639-0.39076 0.66773
  -9   3  -6  412.40  223.16   1-0.31556-0.30179-0.41501 0.84645-0.85333 0.43867
  -9   3  -7 1203.91  337.99   1-0.31627-0.27942-0.42840 0.88904-0.84642 0.36265
   9  -2  -4  357.00  305.08   1 0.27424 0.56073-0.87217 0.81805-0.40508 0.12795
   9  -2  -3   95.71  197.69   1 0.24425 0.56911-0.88226 0.79890-0.40242 0.19457
   9  -2  -2  548.16  250.48   1 0.21947 0.57228-0.88988 0.77728-0.39993 0.26136
   9  -2  -1 2434.50  436.24   1 0.20077 0.56895-0.89536 0.75401-0.39750 0.32826
   9  -2   0 8030.86  645.01   1 0.18866 0.55943-0.89861 0.72810-0.39610 0.39610
   9  -2   1 9625.22  694.73   1 0.18439 0.54207-0.89972 0.70005-0.39560 0.46484
   9  -2   2   47.82  215.15   1 0.18934 0.51550-0.89843 0.66961-0.39618 0.53466
   9  -2   3   96.63  202.89   1 0.20529 0.47793-0.89411 0.63614-0.39800 0.60572
   9  -2   4 2862.43  423.08   1 0.23465 0.42744-0.88529 0.59729-0.40148 0.67861
   9  -2   5 2802.01  396.21   1 0.28111 0.35938-0.86972 0.55249-0.40564 0.75205
  -9   2  -6  170.73  185.62   1-0.31952-0.29730-0.53570 0.88170-0.78161 0.36634
  -9   2  -7  132.70  215.71   1-0.31955-0.27557-0.53998 0.91516-0.77865 0.29417
  -9   2  -8  146.35  186.59   1-0.31952-0.25390-0.53562 0.93997-0.78167 0.22797
   9  -1  -4  895.81  280.01   1 0.35909 0.47542-0.83818 0.86959-0.41047 0.13334
   9  -1  -3   96.36  203.51   1 0.33071 0.48219-0.85048 0.85265-0.40903 0.20118
   9  -1  -2 -125.06  171.15   1 0.30746 0.48383-0.85985 0.83278-0.40758 0.26901
   9  -1  -1 2505.66  438.64   1 0.29007 0.47962-0.86645 0.81016-0.40633 0.33705
   9  -1   0 8296.45  678.35   1 0.27942 0.46866-0.87033 0.78480-0.40550 0.40550
   9  -1   1  -93.24  225.40   1 0.27660 0.44986-0.87134 0.75657-0.40527 0.47456
   9  -1   2 4362.19  539.00   1 0.28299 0.42187-0.86905 0.72505-0.40578 0.54435
   9  -1   3 5579.44  558.48   1 0.30033 0.38291-0.86259 0.68936-0.40708 0.61493
   9  -1   447122.60 1197.25   1 0.33095 0.33069-0.85038 0.64791-0.40904 0.68618
   9  -1   510493.87  641.36   1 0.37800 0.26203-0.82946 0.59776-0.41122 0.75763
  -9   1  -510203.39  532.19   1-0.31630-0.32162-0.65007 0.88192-0.69091 0.34462
  -9   1  -6  148.13  137.80   1-0.31614-0.30018-0.65293 0.91405-0.68827 0.27273
  -9   1  -7  252.97  207.00   1-0.31646-0.27826-0.64714 0.93753-0.69357 0.20877
  -9   1  -8   45.73  174.69   1-0.31704-0.25607-0.63526 0.95492-0.70421 0.15016
  -9   1  -9 1620.07  342.58   1-0.31836-0.23311-0.61979 0.96785-0.71729 0.09438
   9   0  -4   29.62  200.14   1 0.44562 0.38843-0.79455 0.91149-0.41242 0.13529
   9   0  -3  458.09  303.63   1 0.41939 0.39306-0.80880 0.89650-0.41223 0.20439
   9   0  -2  296.68  267.60   1 0.39816 0.39267-0.81967 0.87814-0.41182 0.27325
   9   0  -1  -64.82  186.70   1 0.38267 0.38655-0.82723 0.85647-0.41137 0.34209
   9   0   0   73.23  218.40   1 0.37381 0.37381-0.83143 0.83143-0.41106 0.41106
   9   0   1 4640.70  585.36   1 0.37262 0.35339-0.83199 0.80275-0.41102 0.48030
   9   0   2  878.25  305.80   1 0.38041 0.32399-0.82831 0.76985-0.41130 0.54986
   9   0   3 3649.31  427.18   1 0.39879 0.28400-0.81936 0.73165-0.41183 0.61968
   9   0   411617.13  641.90   1 0.42978 0.23140-0.80326 0.68633-0.41235 0.68949
   9   0   513992.42  738.29   1 0.47601 0.16357-0.77686 0.63069-0.41218 0.75859
  -9   0  -515664.34  651.61   1-0.30382-0.33351-0.77236 0.91871-0.55779 0.21151
   9   0   6 2568.36  339.16   1 0.54213 0.07545-0.73345 0.55826-0.41004 0.82622
  -9   0  -6 3484.22  408.71   1-0.30537-0.31035-0.76225 0.93787-0.57070 0.15516
  -9   0  -7 3398.81  393.37   1-0.30745-0.28667-0.74747 0.95235-0.58885 0.10406
  -9   0  -8 1263.82  316.41   1-0.30973-0.26279-0.72905 0.96320-0.61036 0.05631
  -9   0  -9 1200.30  345.81   1-0.31200-0.23892-0.70755 0.97097-0.63404 0.01073
  -9   0 -10  -70.37  188.68   1-0.31411-0.21521-0.68330 0.97599-0.65911-0.03345
   9   1  -4  227.18  254.65   1 0.53036 0.30314-0.74166 0.94358-0.41067 0.13321
   9   1  -3 1177.41  427.61   1 0.50732 0.30466-0.75722 0.93046-0.41136 0.20352
   9   1  -220377.91 1019.12   1 0.48839 0.30199-0.76927 0.91327-0.41192 0.27336
   9   1  -1 5767.46  632.46   1 0.47499 0.29378-0.77748 0.89224-0.41219 0.34291
   9   1   0 1198.67  339.41   1 0.46796 0.27920-0.78168 0.86721-0.41229 0.41229
   9   1   1  906.29  282.33   1 0.46827 0.25728-0.78149 0.83778-0.41229 0.48157
   9   1   2  190.32  231.19   1 0.47710 0.22684-0.77620 0.80326-0.41216 0.55072
   9   1   3 4019.95  475.74   1 0.49581 0.18652-0.76461 0.76244-0.41173 0.61958
   9   1   4 1397.52  309.19   1 0.52617 0.13424-0.74452 0.71286-0.41087 0.68833
  -9  -1  -4  832.00  205.16   1-0.27554-0.38377-0.88793 0.91890-0.36829 0.09129
   9   1   517569.91  755.01   1 0.57010 0.06867-0.71300 0.65214-0.40815 0.75497
  -9  -1  -519838.32  702.50   1-0.28107-0.35661-0.87263 0.93274-0.39938 0.05313
   9   1   6   22.97  152.87   1 0.62973-0.01259-0.66456 0.57450-0.40222 0.81840
  -9  -1  -6   86.47  135.63   1-0.28668-0.32936-0.85480 0.94404-0.43258 0.01708
  -9  -1  -7  119.29  199.50   1-0.29151-0.30202-0.83379 0.95316-0.46884-0.01595
  -9  -1  -8  500.04  255.63   1-0.29664-0.27528-0.81139 0.96003-0.50362-0.05042
  -9  -1  -9 9153.67  663.52   1-0.30138-0.24894-0.78688 0.96479-0.53849-0.08481
  -9  -1 -10   29.45  188.84   1-0.30566-0.22305-0.76028 0.96746-0.57317-0.11938
   9   2  -310174.27  891.58   1 0.59066 0.22076-0.69709 0.95494-0.40642 0.19832
   9   2  -234525.90 1329.64   1 0.57409 0.21570-0.70998 0.93864-0.40784 0.26911
   9   2  -115615.50  870.43   1 0.56276 0.20539-0.71850 0.91796-0.40870 0.33934
   9   2   0 1678.83  386.81   1 0.55744 0.18908-0.72243 0.89269-0.40907 0.40907
   9   2   2  280.72  224.10   1 0.56836 0.13488-0.71432 0.82618-0.40829 0.54701
   9   2   3  355.98  296.17   1 0.58669 0.09492-0.70023 0.78289-0.40678 0.61487
  -9  -2  -3  434.12  107.70   1-0.22195-0.45870-0.96778 0.88414-0.11885-0.08874
   9   2   4 3728.56  421.93   1 0.61513 0.04483-0.67708 0.73054-0.40393 0.68139
  -9  -2  -4 3334.36  741.89   1-0.23588-0.42313-0.95521 0.90073-0.17864-0.09814
   9   2   5 3514.59  424.49   1 0.65493-0.01659-0.64186 0.66612-0.39883 0.74565
  -9  -2  -5 3052.67  781.07   1-0.24827-0.38910-0.93978 0.91446-0.23485-0.11114
  -9  -2  -6  394.87  205.44   1-0.70735 0.09170 0.59087-0.58736 0.38797-0.80410
   9   2   6  366.23  335.97   1 0.70717-0.09047-0.58984 0.58491-0.38984 0.80603
  -9  -2  -6  143.70  134.80   1-0.25989-0.35574-0.92204 0.92568-0.28686-0.12863
  -9  -2  -7  152.96  138.15   1-0.77252 0.17866 0.51429-0.48170 0.37243-0.85792
   9   2   7   74.25  141.69   1 0.77234-0.17771-0.51400 0.48099-0.37319 0.85852
  -9  -2  -7 -101.40  138.55   1-0.26986-0.32413-0.90172 0.93451-0.33772-0.14702
  -9  -2  -8  683.09  244.75   1-0.27879-0.29357-0.87919 0.94112-0.38637-0.16762
  -9  -2  -9 1052.82  294.17   1-0.28676-0.26396-0.85452 0.94559-0.43306-0.19018
  -9  -2 -10  434.64  303.52   1-0.29320-0.23492-0.82681 0.94848-0.48001-0.21255
   9   3  -3  889.21  356.61   1 0.66882 0.14216-0.62872 0.97170-0.39671 0.18862
   9   3  -2  544.16  338.91   1 0.65445 0.13489-0.64230 0.95609-0.39890 0.26017
   9   3  -1 -128.27  200.40   1 0.64491 0.12279-0.65106 0.93564-0.40024 0.33088
   9   3   0  376.25  204.49   1 0.64086 0.10521-0.65471 0.91010-0.40079 0.40079
   9   3   1  264.64  282.98   1 0.64301 0.08142-0.65278 0.87897-0.40050 0.46987
   9   3   213106.19  802.76   1 0.65214 0.05066-0.64445 0.84144-0.39923 0.53796
   9   3   315392.77  808.38   1 0.66903 0.01212-0.62851 0.79630-0.39668 0.60477
  -9  -3  -313857.69  758.06   1-0.17141-0.50852-0.98232 0.81324 0.07518-0.28290
  -9  -3  -4  226.50  163.69   1-0.69542 0.03671 0.60340-0.74355 0.39023-0.66766
   9   3   4 -179.45  195.19   1 0.69447-0.03493-0.60316 0.74176-0.39229 0.66975
  -9  -3  -4  109.96  105.28   1-0.19267-0.46590-0.98125 0.84122-0.00242-0.27437
  -9  -3  -5  257.17  236.90   1-0.72991 0.09299 0.56600-0.67707 0.38323-0.73001
   9   3   5  201.87  257.35   1 0.72905-0.09116-0.56578 0.67517-0.38518 0.73200
  -9  -3  -5  104.82   94.42   1-0.21140-0.42553-0.97447 0.86359-0.07557-0.27041
  -9  -3  -6  -66.54  133.04   1-0.77381 0.15868 0.51262-0.59460 0.37206-0.78819
   9   3   6  106.49  193.90   1 0.77305-0.15679-0.51246 0.59266-0.37385 0.79004
  -9  -3  -6   -8.98  112.64   1-0.22795-0.38734-0.96293 0.88121-0.14420-0.27098
  -9  -3  -7 1410.06  352.25   1-0.82654 0.23320 0.43738-0.49028 0.35429-0.83978
   9   3   7 1968.54  364.34   1 0.82611-0.23183-0.43758 0.48994-0.35503 0.84036
  -9  -3  -7 1327.21  468.80   1-0.24259-0.35106-0.94741 0.89484-0.20870-0.27568
  -9  -3  -8  130.01  127.95   1-0.25555-0.31646-0.92847 0.90506-0.26949-0.28409
  -9  -3  -9  153.05  193.72   1-0.26766-0.28265-0.90660 0.91207-0.32621-0.29703
  -9  -3 -10  331.09  222.23   1-0.27781-0.25086-0.88189 0.91649-0.38089-0.31160
  -9  -3 -11  108.63  207.90   1-0.28674-0.22030-0.85459 0.91834-0.43294-0.32880
  -9  -4   2  173.62  142.64   1-0.72856-0.06037 0.56753-0.96768 0.38353-0.24482
   9   4  -2   30.63  216.24   1 0.72697 0.06193-0.56813 0.96705-0.38565 0.24692
  -9  -4   1  400.32  281.96   1-0.72050-0.04664 0.57656-0.94763 0.38528-0.31593
   9   4  -1  682.45  356.91   1 0.71891 0.04835-0.57712 0.94683-0.38741 0.31805
  -9  -4   0  418.40  299.07   1-0.71729-0.02805 0.58010-0.92208 0.38596-0.38596
   9   4   0   41.66  186.42   1 0.71572 0.02990-0.58061 0.92113-0.38809 0.38809
  -9  -4  -1  707.76  345.74   1-0.71951-0.00404 0.57765-0.89055 0.38549-0.45485
   9   4   1  346.27  215.11   1 0.71798 0.00600-0.57813 0.88945-0.38761 0.45698
  -9  -4  -2  239.77  154.76   1-0.72773 0.02596 0.56846-0.85228 0.38371-0.52243
   9   4   2   81.61  220.63   1 0.72626-0.02390-0.56893 0.85105-0.38581 0.52453
  -9  -4  -3 2997.18  754.73   1-0.74248 0.06250 0.55142-0.80616 0.38031-0.58838
   9   4   3 3038.99  518.17   1 0.74109-0.06036-0.55189 0.80481-0.38236 0.59045
  -9  -4  -4 2375.33  546.61   1-0.76417 0.10598 0.52496-0.75061 0.37476-0.65218
   9   4   4 2758.88  502.25   1 0.76286-0.10377-0.52545 0.74917-0.37673 0.65419
  -9  -4  -4 2130.83  555.43   1-0.15154-0.50630-0.97784 0.75240 0.14441-0.42136
  -9  -4  -5 1195.19  267.68   1-0.79298 0.15658 0.48687-0.68344 0.36623-0.71301
   9   4   5  670.92  275.85   1 0.79251-0.15532-0.48703 0.68299-0.36705 0.71371
  -9  -4  -5  912.52  235.92   1-0.17444-0.46175-0.98256 0.78630 0.06431-0.41050
  -9  -4  -6  -36.76  142.23   1-0.82862 0.21401 0.43410-0.60158 0.35346-0.76960
   9   4   6  155.02  196.93   1 0.82811-0.21255-0.43443 0.60129-0.35424 0.77023
  -9  -4  -6   85.47  119.63   1-0.19526-0.41959-0.98067 0.81339-0.01229-0.40290
  -9  -4  -7 7384.71 1357.65   1-0.86900 0.27459 0.36164-0.49861 0.33769-0.82217
  -9  -4  -7 6708.31 1521.26   1-0.21390-0.37931-0.97308 0.83496-0.08570-0.39868
  -9  -4  -8 6282.17 1335.29   1-0.23057-0.34100-0.96055 0.85159-0.15546-0.39812
  -9  -4  -9  332.99  205.57   1-0.24543-0.30450-0.94373 0.86392-0.22166-0.40112
  -9  -4 -10  351.54  237.30   1-0.25862-0.26967-0.92313 0.87248-0.28450-0.40748
  -9  -4 -11 1293.15  427.66   1-0.27098-0.23565-0.89915 0.87729-0.34364-0.41810
  -9  -5   1  240.86  172.31   1-0.78528 0.01866 0.49741-0.95397 0.36865-0.29929
   9   5  -1 -123.69  220.76   1 0.78470-0.01815-0.49769 0.95370-0.36951 0.30018
  -9  -5   0   56.04  151.28   1-0.78262 0.03778 0.50099-0.92847 0.36946-0.36946
   9   5   0  -85.28  205.90   1 0.78204-0.03711-0.50125 0.92815-0.37032 0.37032
  -9  -5  -1  291.05  155.84   1-0.78458 0.06154 0.49836-0.89675 0.36886-0.43822
   9   5   1   36.67  183.71   1 0.78402-0.06070-0.49861 0.89640-0.36972 0.43905
  -9  -5  -2  882.96  288.34   1-0.79156 0.09031 0.48883-0.85814 0.36668-0.50539
   9   5   2  373.06  214.07   1 0.79101-0.08931-0.48909 0.85778-0.36753 0.50619
  -9  -5  -3 2167.26  376.92   1-0.80388 0.12442 0.47146-0.81169 0.36261-0.57068
   9   5   3 2509.65  451.81   1 0.80333-0.12326-0.47176 0.81133-0.36344 0.57143
  -9  -5  -4  724.29  159.20   1-0.82169 0.16401 0.44493-0.75607 0.35617-0.63359
   9   5   4 1283.87  458.58   1 0.82113-0.16267-0.44531 0.75577-0.35697 0.63430
  -9  -5  -5 1638.12  485.98   1-0.84485 0.20897 0.40749-0.68955 0.34664-0.69342
  -9  -5  -5 2008.66  329.12   1-0.14098-0.49476-0.97354 0.69174 0.17983-0.52602
  -9  -5  -6  573.63  176.13   1-0.87177 0.25618 0.35633-0.60798 0.33620-0.75148
  -9  -5  -6  839.02  188.68   1-0.16414-0.44995-0.98125 0.72863 0.10092-0.51635
  -9  -5  -7 1257.99  183.52   1-0.90309 0.30893 0.28983-0.51223 0.31687-0.80136
  -9  -5  -7 2070.47  457.92   1-0.18559-0.40719-0.98232 0.75864 0.02417-0.50857
  -9  -5  -8 4872.55  478.42   1-0.93526 0.36252 0.20324-0.39640 0.28977-0.84347
  -9  -5  -8 5263.64 1407.62   1-0.20511-0.36602-0.97743 0.78291-0.05053-0.50306
  -9  -5  -9 3507.67  715.96   1-0.22279-0.32670-0.96715 0.80178-0.12238-0.50040
  -9  -5 -10  887.12  232.45   1-0.23872-0.28914-0.95207 0.81586-0.19123-0.50075
  -9  -5 -11  306.85  167.64   1-0.25297-0.25324-0.93270 0.82565-0.25704-0.50414
  -9  -6   0  328.17  149.41   1-0.83784 0.09352 0.41921-0.93218 0.34968-0.34968
  -9  -6  -1  -57.75  195.43   1-0.83929 0.11676 0.41682-0.90071 0.34906-0.41842
  -9  -6  -2   78.70  137.24   1-0.84482 0.14409 0.40754-0.86235 0.34666-0.48537
  -9  -6  -3  813.62  340.98   1-0.85460 0.17566 0.39058-0.81630 0.34218-0.55025
  -9  -6  -4  243.89  165.61   1-0.86755 0.20936 0.36440-0.75997 0.33845-0.61530
  -9  -6  -5 1085.27  233.92   1-0.88544 0.24867 0.32886-0.69518 0.32838-0.67444
  -9  -6  -6  172.33  170.42   1-0.90655 0.29121 0.28161-0.61869 0.31439-0.72966
  -9  -6  -7  223.91  166.16   1-0.92958 0.33566 0.22054-0.52837 0.29535-0.77983
  -9  -6  -7  815.94  224.65   1-0.15945-0.43255-0.98021 0.67123 0.11728-0.60195
  -9  -6  -8  237.99  210.03   1-0.95225 0.37975 0.14303-0.42161 0.26972-0.82342
  -9  -6  -8  132.36   94.78   1-0.18083-0.38987-0.98262 0.70254 0.04174-0.59533
  -9  -6  -9  193.01  118.40   1-0.20055-0.34851-0.97913 0.72821-0.03267-0.59011
  -9  -6 -10  -17.83  207.72   1-0.21861-0.30880-0.97014 0.74838-0.10499-0.58699
  -9  -7  -1  -81.80  200.41   1-0.88298 0.16076 0.33397-0.90271 0.32985-0.39906
  -9  -7  -2  650.68  254.83   1-0.88702 0.18623 0.32554-0.86504 0.32742-0.46584
  -9  -7  -3 1685.20  424.04   1-0.89433 0.21497 0.30976-0.82000 0.32280-0.53044
  -9  -7  -4  -35.54  184.99   1-0.90480 0.24686 0.28580-0.76680 0.31565-0.59250
  -9  -7  -5   54.95  139.70   1-0.91805 0.28153 0.25266-0.70441 0.30549-0.65155
  -9  -7  -6 5879.72  627.43   1-0.93338 0.31828 0.20910-0.63160 0.29166-0.70694
  -9  -7  -7 1787.24  466.05   1-0.94957 0.35590 0.15361-0.54687 0.27331-0.75780
  -9  -7  -8    2.88  178.46   1-0.96473 0.39248 0.08446-0.44847 0.24931-0.80301
  -9  -7  -8  -33.30  206.50   1-0.15887-0.41102-0.98006 0.61472 0.11927-0.67317
  -9  -7  -9   11.11  115.31   1-0.17980-0.36845-0.98267 0.64651 0.04487-0.66802
  -9  -7 -10  231.94  224.78   1-0.19936-0.32762-0.97952 0.67220-0.02805-0.66393
  -9  -8  -4  879.28  363.45   1-0.93350 0.27581 0.20872-0.77514 0.29154-0.56839
  -9  -8  -5 1302.68  419.93   1-0.94279 0.30652 0.17840-0.71558 0.28161-0.62767
  -9  -8  -6  335.31  317.12   1-0.95329 0.33844 0.13877-0.64670 0.26826-0.68353
  -9  -8  -7  267.09  301.09   1-0.96394 0.37052 0.08877-0.56745 0.25084-0.73532
  -9  -8  -8   56.73  190.83   1-0.97315 0.40115 0.02722-0.47666 0.22852-0.78222
  -9  -8  -8   77.29  229.04   1-0.14005-0.42939-0.97310 0.52222 0.18291-0.73681
  10  -4  -1  226.66  224.84   1 0.12203 0.73242-0.91380 0.60194-0.38737 0.31813
  10  -4   0  124.51  233.22   1 0.11122 0.72161-0.91585 0.57483-0.38579 0.38579
  10  -4   1  425.95  384.07   1 0.10768 0.70352-0.91649 0.54632-0.38527 0.45451
  10  -4   2  307.30  309.99   1 0.11254 0.67703-0.91561 0.51628-0.38599 0.52447
  10  -4   3  763.29  331.29   1 0.12731 0.64064-0.91276 0.48428-0.38813 0.59585
  10  -3  -2   25.60  211.68   1 0.20615 0.66902-0.89387 0.69642-0.39810 0.25962
  10  -3  -1 1787.28  444.55   1 0.18898 0.66457-0.89852 0.67192-0.39614 0.32690
  10  -3   0  362.58  331.08   1 0.17818 0.65373-0.90129 0.64553-0.39485 0.39485
  10  -3   1   48.21  279.37   1 0.17468 0.63562-0.90217 0.61725-0.39442 0.46366
  10  -3   2  386.59  226.93   1 0.17961 0.60906-0.90094 0.58686-0.39502 0.53350
  10  -3   3 2363.79  431.21   1 0.19448 0.57256-0.89707 0.55384-0.39678 0.60450
  10  -3   4  578.29  255.59   1 0.22102 0.52461-0.88942 0.51589-0.40009 0.67722
  10  -2  -2  164.97  232.06   1 0.27938 0.59544-0.87035 0.75775-0.40550 0.26693
  10  -2  -1   86.75  196.86   1 0.26275 0.59046-0.87615 0.73433-0.40410 0.33482
  10  -2   0 3539.29  560.72   1 0.25246 0.57914-0.87960 0.70854-0.40318 0.40318
  10  -2   1  836.50  308.90   1 0.24944 0.56056-0.88059 0.68029-0.40290 0.47219
  10  -2   2  557.19  288.52   1 0.25483 0.53356-0.87882 0.64929-0.40340 0.54196
  10  -2   3  843.41  271.25   1 0.27011 0.49666-0.87362 0.61486-0.40474 0.61259
  10  -2   4  -67.81  168.40   1 0.29725 0.44792-0.86376 0.57577-0.40686 0.68399
  10  -1  -3  564.22  333.05   1 0.37870 0.51727-0.82913 0.83130-0.41124 0.20339
  10  -1  -2    0.66  207.26   1 0.35758 0.51679-0.83886 0.81180-0.41040 0.27184
  10  -1  -1 3443.94  543.17   1 0.34193 0.51082-0.84573 0.78943-0.40964 0.34036
  10  -1   0 5865.78  625.81   1 0.33253 0.49861-0.84972 0.76418-0.40913 0.40913
  10  -1   1 1968.57  363.34   1 0.33028 0.47926-0.85066 0.73589-0.40901 0.47829
  10  -1   2  430.65  333.54   1 0.33629 0.45163-0.84813 0.70413-0.40934 0.54791
  10  -1   3  527.57  240.55   1 0.35198 0.41434-0.84136 0.66812-0.41014 0.61799
  10  -1   4 7603.10  567.86   1 0.37912 0.36559-0.82893 0.62646-0.41125 0.68839
  10  -1   5 1788.05  350.14   1 0.42010 0.30300-0.80842 0.57672-0.41224 0.75866
  10   0  -2   62.51  206.80   1 0.43795 0.43596-0.79882 0.85728-0.41241 0.27384
  10   0  -1   47.79  190.55   1 0.42361 0.42868-0.80657 0.83580-0.41229 0.34301
  10   0   0  -55.35  204.94   1 0.41534 0.41534-0.81092 0.81092-0.41217 0.41217
  10   0   1  227.89  228.16   1 0.41400 0.39508-0.81161 0.78238-0.41215 0.48143
  10   0   2  477.68  343.30   1 0.42064 0.36683-0.80814 0.74968-0.41225 0.55082
  10   0   3 2217.64  519.69   1 0.43651 0.32935-0.79960 0.71190-0.41240 0.62025
  10   0   437559.10 1221.06   1 0.46319 0.28106-0.78448 0.66754-0.41234 0.68948
  10   0   517037.51  805.54   1 0.50263 0.22001-0.76026 0.61409-0.41152 0.75794
 -10   0  -7  399.26  220.30   1-0.31125-0.36569-0.71509 0.91997-0.62591 0.14111
 -10   0  -8  338.59  241.62   1-0.31259-0.34275-0.70126 0.93542-0.64070 0.08665
  10   1  -2    3.45  221.32   1 0.51806 0.35539-0.75015 0.89414-0.41095 0.27238
  10   1  -1 1175.77  359.68   1 0.50520 0.34663-0.75860 0.87336-0.41144 0.34215
  10   1   0  -73.52  184.13   1 0.49814 0.33209-0.76314 0.84867-0.41166 0.41166
  10   1   1   18.46  207.28   1 0.49766 0.31096-0.76344 0.81974-0.41168 0.48096
  10   1   2   94.78  232.13   1 0.50471 0.28230-0.75892 0.78598-0.41145 0.55002
  10   1   3  382.59  369.86   1 0.52037 0.24503-0.74860 0.74643-0.41085 0.61870
  10   1   4  966.36  360.12   1 0.54599 0.19746-0.73071 0.69904-0.40981 0.68726
  10   1   5 6319.62  569.45   1 0.58311 0.13870-0.70302 0.64216-0.40709 0.75391
  10   1   6  317.27  273.07   1 0.63330 0.06688-0.66143 0.57137-0.40177 0.81796
 -10  -1  -6  333.42  186.53   1-0.29432-0.40362-0.82197 0.91208-0.48757 0.07203
 -10  -1  -7 1049.53  319.25   1-0.29779-0.37855-0.80581 0.92518-0.51184 0.02704
 -10  -1  -8  267.16  184.60   1-0.30141-0.35333-0.78672 0.93537-0.53870-0.01534
 -10  -1  -9  265.34  193.62   1-0.30496-0.32818-0.76503 0.94294-0.56720-0.05610
  10   2  -2  397.64  340.91   1 0.59464 0.27819-0.69392 0.92257-0.40604 0.26732
  10   2  -1  268.34  246.92   1 0.58332 0.26788-0.70286 0.90232-0.40707 0.33771
  10   2   0  642.27  305.15   1 0.57744 0.25212-0.70741 0.87767-0.40757 0.40757
  10   2   1   75.00  201.08   1 0.57772 0.23020-0.70720 0.84826-0.40755 0.47691
  10   2   2 -126.07  207.59   1 0.58494 0.20134-0.70159 0.81345-0.40693 0.54566
  10   2   3 -145.68  229.29   1 0.60001 0.16464-0.68958 0.77224-0.40552 0.61361
  10   2   4 1966.01  397.37   1 0.62388 0.11913-0.66964 0.72310-0.40293 0.68038
  10   2   5 1704.37  350.47   1 0.65754 0.06384-0.63943 0.66369-0.39844 0.74526
 -10  -2  -6  491.96  224.76   1-0.70197 0.00328 0.59657-0.59306 0.38901-0.80514
  10   2   6  671.62  306.84   1 0.70193-0.00219-0.59539 0.59045-0.39087 0.80706
 -10  -2  -6  389.91  192.87   1-0.27150-0.42706-0.89793 0.90157-0.34640-0.06909
 -10  -2  -7  448.26  230.43   1-0.27877-0.39814-0.87923 0.91202-0.38629-0.09845
 -10  -2  -8  768.00  293.55   1-0.28561-0.36966-0.85839 0.92032-0.42612-0.12787
 -10  -2  -9 1269.45  371.95   1-0.29131-0.34123-0.83458 0.92698-0.46755-0.15575
  10   3  -1   59.57  239.55   1 0.65729 0.19346-0.63966 0.92425-0.39848 0.32912
  10   3   0  293.04  231.45   1 0.65234 0.17678-0.64426 0.89965-0.39920 0.39920
  10   3   1 1054.17  373.49   1 0.65298 0.15449-0.64367 0.86986-0.39911 0.46847
  10   3   2  280.07  233.26   1 0.65987 0.12597-0.63724 0.83423-0.39810 0.53682
  10   3   3 2899.38  477.27   1 0.67367 0.09053-0.62401 0.79180-0.39593 0.60402
 -10  -3  -4  686.59  302.67   1-0.69585-0.04590 0.60296-0.74311 0.39015-0.66758
  10   3   4  458.91  276.45   1 0.69505 0.04752-0.60256 0.74115-0.39218 0.66964
 -10  -3  -5  332.80  228.27   1-0.72527 0.00530 0.57124-0.68231 0.38426-0.73104
  10   3   5   33.99  209.12   1 0.72458-0.00364-0.57081 0.68021-0.38618 0.73300
 -10  -3  -5   22.30   99.28   1-0.23002-0.48985-0.96107 0.85018-0.15307-0.19291
 -10  -3  -6  838.00  252.54   1-0.76322 0.06505 0.52615-0.60814 0.37501-0.79115
  10   3   6  234.55  238.61   1 0.76263-0.06333-0.52574 0.60594-0.37680 0.79298
 -10  -3  -6  275.71  162.40   1-0.24253-0.45570-0.94749 0.86577-0.20839-0.20679
 -10  -3  -7   11.49  100.48   1-0.80957 0.13318 0.46317-0.51607 0.36062-0.84612
  10   3   7   12.81  155.26   1 0.80929-0.13204-0.46309 0.51546-0.36135 0.84667
 -10  -3  -7   47.77  103.21   1-0.25396-0.42263-0.93110 0.87854-0.26180-0.22258
 -10  -3  -8  583.00  253.03   1-0.26497-0.38990-0.91226 0.88858-0.31236-0.24163
 -10  -3  -9  230.43  197.19   1-0.27445-0.35879-0.89073 0.89620-0.36230-0.26094
 -10  -4   0 1159.64  444.38   1-0.72208-0.10631 0.57481-0.91679 0.38494-0.38494
  10   4   0  330.11  232.32   1 0.72065 0.10802-0.57519 0.91571-0.38704 0.38704
 -10  -4  -1  671.79  337.56   1-0.72275-0.08385 0.57406-0.88696 0.38480-0.45416
  10   4   1  844.93  337.66   1 0.72137 0.08566-0.57439 0.88571-0.38688 0.45625
 -10  -4  -2 2274.86  386.64   1-0.72887-0.05594 0.56718-0.85099 0.38346-0.52217
  10   4   2 1370.50  397.45   1 0.72755 0.05784-0.56747 0.84959-0.38552 0.52425
 -10  -4  -3  233.47  167.53   1-0.74092-0.02210 0.55327-0.80800 0.38069-0.58875
  10   4   3  137.77  245.64   1 0.73968 0.02408-0.55354 0.80646-0.38270 0.59079
 -10  -4  -4 2766.07  647.09   1-0.75930 0.01806 0.53106-0.75671 0.37606-0.65349
  10   4   4 2435.78  446.47   1 0.75815-0.01601-0.53133 0.75505-0.37801 0.65546
 -10  -4  -5  235.79  157.26   1-0.78427 0.06482 0.49878-0.69534 0.36896-0.71574
  10   4   5  302.32  302.27   1 0.78389-0.06375-0.49877 0.69474-0.36976 0.71642
 -10  -4  -5  -12.87   83.16   1-0.19555-0.52388-0.98060 0.78416-0.01338-0.33260
 -10  -4  -6  475.36  192.11   1-0.81578 0.11812 0.45393-0.62141 0.35838-0.77452
  10   4   6  291.18  252.19   1 0.81539-0.11686-0.45404 0.62089-0.35913 0.77513
 -10  -4  -6  203.10  104.20   1-0.21216-0.48563-0.97406 0.80678-0.07865-0.33653
 -10  -4  -7  550.50  158.85   1-0.85322 0.17735 0.39302-0.53142 0.34283-0.82833
 -10  -4  -7  618.99  266.46   1-0.22736-0.44879-0.96344 0.82532-0.14170-0.34268
 -10  -4  -8 2723.27  675.52   1-0.24121-0.41330-0.94912 0.84015-0.20243-0.35115
 -10  -4  -9  140.85  136.48   1-0.25376-0.37911-0.93143 0.85162-0.26084-0.36194
 -10  -5  -1 -101.67  208.80   1-0.78336-0.02272 0.50000-0.89839 0.36923-0.43859
  10   5   1  -48.55  228.82   1 0.78284 0.02342-0.50018 0.89797-0.37008 0.43941
 -10  -5  -2  838.82  265.00   1-0.78853 0.00423 0.49300-0.86231 0.36764-0.50635
  10   5   2  157.67  230.82   1 0.78803-0.00338-0.49317 0.86185-0.36847 0.50714
  10   5   3  299.81  266.81   1 0.79818-0.03514-0.47910 0.81867-0.36518 0.57318
 -10  -5  -4  107.79  169.17   1-0.81396 0.07324 0.45666-0.76780 0.35905-0.63647
  10   5   4  133.04  246.34   1 0.81349-0.07207-0.45688 0.76734-0.35983 0.63716
 -10  -5  -5  379.35  205.41   1-0.83444 0.11551 0.42477-0.70683 0.35110-0.69788
 -10  -5  -5  349.01  240.15   1-0.16330-0.55536-0.98109 0.69929 0.10388-0.45007
 -10  -5  -6  115.59  137.22   1-0.85979 0.16265 0.38126-0.63424 0.33969-0.75582
 -10  -5  -6  -81.69  157.56   1-0.18268-0.51467-0.98255 0.72971 0.03494-0.45013
 -10  -5  -7  107.64  102.62   1-0.88825 0.21127 0.32293-0.54533 0.32666-0.81115
 -10  -5  -7  305.85  172.91   1-0.20066-0.47505-0.97910 0.75542-0.03310-0.45128
 -10  -5  -8  245.69  116.30   1-0.21727-0.43680-0.97102 0.77650-0.09946-0.45412
 -10  -5  -9  178.99  183.70   1-0.23250-0.39994-0.95870 0.79333-0.16381-0.45897
 -10  -6  -2  141.57  119.99   1-0.83952 0.05574 0.41643-0.87124 0.34896-0.48767
 -10  -6  -3  149.26  126.11   1-0.84764 0.08565 0.40272-0.82845 0.34540-0.55346
 -10  -6  -4  222.76  208.38   1-0.85987 0.11967 0.38111-0.77775 0.33964-0.61707
 -10  -6  -5  613.53  246.23   1-0.87512 0.15553 0.34979-0.71611 0.33436-0.68042
 -10  -6  -6  572.60  237.16   1-0.89482 0.19665 0.30869-0.64577 0.32249-0.73776
 -10  -6  -6  173.51  106.40   1-0.15596-0.54059-0.97926 0.64110 0.12931-0.54474
 -10  -6  -7  913.13  276.93   1-0.91711 0.24037 0.25513-0.56296 0.30626-0.79075
 -10  -6  -7  976.25  394.25   1-0.17558-0.49932-0.98262 0.67363 0.06019-0.54486
 -10  -6  -9  210.19  153.99   1-0.21137-0.42062-0.97448 0.72356-0.07549-0.54729
 -10  -7  -5  816.21  336.76   1-0.90875 0.18941 0.27629-0.72804 0.31277-0.65883
 -10  -7  -6  255.13  176.57   1-0.92349 0.22557 0.23796-0.66047 0.30088-0.71616
 -10  -7  -7  123.07  207.03   1-0.93978 0.26329 0.18862-0.58187 0.28498-0.76947
 -10  -7  -7  -82.00  202.18   1-0.15346-0.52099-0.97848 0.58396 0.13785-0.62252
  11  -2   1 1217.49  395.10   1 0.31076 0.58230-0.85855 0.65826-0.40780 0.47708
  11  -2   2  423.89  334.45   1 0.31632 0.55513-0.85635 0.62682-0.40816 0.54673
  11  -2   3  710.55  382.66   1 0.33084 0.51901-0.85042 0.59166-0.40904 0.61689
  11  -2   4  235.43  212.73   1 0.35590 0.47234-0.83961 0.55162-0.41033 0.68746
  11  -1   0  260.60  233.99   1 0.38376 0.53045-0.82671 0.74118-0.41141 0.41141
  11  -1   1  389.92  258.57   1 0.38189 0.51072-0.82761 0.71284-0.41135 0.48063
  11  -1   2   24.58  217.80   1 0.38752 0.48348-0.82490 0.68090-0.41153 0.55009
  11  -1   3  408.96  326.66   1 0.40179 0.44760-0.81785 0.64462-0.41191 0.61976
  11  -1   4  509.69  297.98   1 0.42613 0.40165-0.80523 0.60276-0.41232 0.68945
  11   0   0 2550.42  525.37   1 0.45688 0.45688-0.78815 0.78815-0.41239 0.41239
  11   0   1 1896.86  465.42   1 0.45542 0.43673-0.78899 0.75976-0.41240 0.48168
  11   0   2  137.22  227.35   1 0.46113 0.40941-0.78569 0.72722-0.41236 0.55093
  11   0   3 2110.27  456.77   1 0.47504 0.37389-0.77744 0.68974-0.41219 0.62004
  11   0   4  124.20  208.60   1 0.49840 0.32893-0.76297 0.64604-0.41165 0.68879
  11   0   5 2378.36  429.68   1 0.53328 0.27203-0.73964 0.59365-0.41052 0.75734
  11   1   1  506.10  330.41   1 0.52872 0.36268-0.74278 0.79871-0.41075 0.48012
  11   1   2   17.99  234.71   1 0.53453 0.33524-0.73877 0.76550-0.41046 0.54918
  11   1   3  427.82  319.02   1 0.54799 0.30014-0.72928 0.72681-0.40968 0.61778
  11   1   4   65.67  207.35   1 0.57013 0.25637-0.71299 0.68132-0.40815 0.68561
  11   1   5 8007.86  714.74   1 0.60209 0.20277-0.68789 0.62703-0.40531 0.75213
  11   2   1    4.88  216.31   1 0.60009 0.29088-0.68952 0.83058-0.40551 0.47488
  11   2   2  216.33  258.73   1 0.60569 0.26364-0.68494 0.79680-0.40495 0.54367
  11   2   3  592.02  387.48   1 0.61826 0.22944-0.67444 0.75710-0.40358 0.61167
  11   2   4 1901.40  431.02   1 0.63858 0.18748-0.65675 0.71022-0.40109 0.67855
  11   2   5 3082.98  504.95   1 0.66747 0.13695-0.63001 0.65428-0.39692 0.74374
 -11  -2  -6  931.81  291.93   1-0.70567-0.07606 0.59265-0.58914 0.38830-0.80443
  11   2   6  624.35  354.21   1 0.70574 0.07705-0.59137 0.58644-0.39013 0.80631
  11   3   1 1737.81  507.31   1 0.66759 0.22293-0.62990 0.85608-0.39690 0.46627
  11   3   2  280.20  307.11   1 0.67276 0.19613-0.62490 0.82189-0.39608 0.53480
  11   3   3  -48.09  229.81   1 0.68413 0.16312-0.61367 0.78146-0.39416 0.60225
 -11  -3  -4  224.24  214.66   1-0.70294-0.12185 0.59554-0.73570 0.38882-0.66625
  11   3   4  832.27  377.84   1 0.70228 0.12333-0.59503 0.73362-0.39081 0.66826
 -11  -3  -5  -46.37  186.57   1-0.72827-0.07474 0.56786-0.67893 0.38360-0.73038
  11   3   5   30.97  202.50   1 0.72771 0.07626-0.56729 0.67669-0.38548 0.73230
 -11  -3  -6 2108.58  504.66   1-0.76126-0.01995 0.52861-0.61060 0.37554-0.79168
  11   3   6 1857.64  456.94   1 0.76081 0.02153-0.52802 0.60821-0.37729 0.79348
 -11  -4  -3    3.10  269.13   1-0.74533-0.10074 0.54805-0.80278 0.37962-0.58769
  11   4   3  602.69  361.87   1 0.74423 0.10257-0.54817 0.80109-0.38158 0.58968
 -11  -4  -4  196.56  157.36   1-0.76095-0.06333 0.52900-0.75465 0.37563-0.65305
  11   4   4  194.49  251.35   1 0.75995 0.06522-0.52909 0.75281-0.37753 0.65498
 -11  -4  -5  217.01  158.47   1-0.78262-0.01987 0.50099-0.69756 0.36946-0.71624
  11   4   5  225.31  248.70   1 0.78232 0.02078-0.50089 0.69685-0.37024 0.71690
 -11  -4  -6  459.13  223.66   1-0.81039 0.02969 0.46196-0.62944 0.36033-0.77647
  11   4   6  231.54  263.60   1 0.81009-0.02861-0.46192 0.62877-0.36106 0.77705
 -11  -5  -5  742.01  250.45   1-0.83004 0.02806 0.43184-0.71390 0.35289-0.69967
  11   5   5 1200.29  439.93   1 0.82965-0.02688-0.43200 0.71335-0.35362 0.70028
 -11  -5  -6  250.55  208.09   1-0.85276 0.07258 0.39383-0.64681 0.34305-0.75918
;
_shelx_hkl_checksum              58843
_shelx_res_file
;
    ssb3.res created by SHELXL-2014/7
TITL shelx in P -1
CELL 0.71073 8.9998 9.0314 10.2747 67.15 72.45 82.91
ZERR 2 0.0008 0.0006 0.0005 0.02 0.03 0.03
LATT 1
SFAC C H F N O
UNIT 36 26 4 2 4
L.S. 14
PLAN  20
SIZE 0.5 0.6 0.3
TEMP 20
BOND
MORE -1
BOND $H
CONF
fmap 2
acta
REM <olex2.extras>
REM <HklSrc "%.\\ssb3.hkl">
REM </olex2.extras>
WGHT    0.086700    0.079800
FVAR      14.21301
F22   3    0.682453    0.790354    0.070667    11.00000    0.11425    0.09505 =
         0.06445   -0.03354    0.00367    0.03493
F23   3    0.670558    0.537551    0.566974    11.00000    0.07432    0.05429 =
         0.09333   -0.02459   -0.04679    0.02678
O12   5   -0.019872    1.406414    0.247966    11.00000    0.04915    0.07125 =
         0.06098   -0.01128   -0.02175    0.01888
O13   5    0.235142    1.428641    0.135429    11.00000    0.05082    0.05285 =
         0.04064   -0.00268   -0.01535    0.00995
N7    4    0.246533    0.941653    0.571538    11.00000    0.04731    0.03454 =
         0.04222   -0.01080   -0.01569    0.00384
C1    1    0.077352    1.178147    0.513178    11.00000    0.03843    0.03615 =
         0.04134   -0.01568   -0.01479    0.00233
C2    1   -0.045361    1.271337    0.569121    11.00000    0.04863    0.04524 =
         0.05128   -0.01846   -0.01825    0.00864
AFIX  43
H2    2   -0.080081    1.363859    0.504680    11.00000   -1.20000
AFIX   0
C3    1   -0.112331    1.225765    0.716656    11.00000    0.05259    0.06221 =
         0.05114   -0.02912   -0.01343    0.00970
AFIX  43
H3    2   -0.192881    1.287375    0.751903    11.00000   -1.20000
AFIX   0
C4    1   -0.061777    1.088062    0.815503    11.00000    0.05964    0.06377 =
         0.04139   -0.02200   -0.00957    0.00266
AFIX  43
H4    2   -0.108611    1.058764    0.915887    11.00000   -1.20000
AFIX   0
C5    1    0.055816    0.996201    0.765881    11.00000    0.06085    0.04811 =
         0.03888   -0.01212   -0.01637    0.00312
AFIX  43
H5    2    0.088227    0.904358    0.832880    11.00000   -1.20000
AFIX   0
C6    1    0.128989    1.038461    0.614432    11.00000    0.04334    0.03765 =
         0.04187   -0.01458   -0.01622    0.00134
C8    1    0.316275    0.979807    0.430393    11.00000    0.03999    0.03382 =
         0.04258   -0.01354   -0.01389    0.00353
C9    1    0.274608    1.119599    0.322055    11.00000    0.04327    0.03877 =
         0.03779   -0.01197   -0.01356    0.00397
AFIX  43
H9    2    0.328093    1.144942    0.223365    11.00000   -1.20000
AFIX   0
C10   1    0.156593    1.216589    0.362285    11.00000    0.04063    0.03474 =
         0.04020   -0.01202   -0.01596    0.00275
C11   1    0.111618    1.360435    0.244651    11.00000    0.04773    0.04098 =
         0.04102   -0.01562   -0.01847    0.00967
C14   1    0.204798    1.563500    0.010993    11.00000    0.06882    0.05969 =
         0.04339   -0.00591   -0.02564    0.01815
AFIX  23
H14A  2    0.124406    1.632645    0.044987    11.00000   -1.20000
H14B  2    0.169768    1.525262   -0.050872    11.00000   -1.20000
AFIX   0
C15   1    0.352914    1.653551   -0.073103    11.00000    0.07085    0.09483 =
         0.06296    0.02472   -0.00562    0.01022
AFIX 137
H15A  2    0.334811    1.748066   -0.152125    11.00000   -1.50000
H15B  2    0.429231    1.586531   -0.112460    11.00000   -1.50000
H15C  2    0.390302    1.684177   -0.009002    11.00000   -1.50000
AFIX   0
C16   1    0.442924    0.870826    0.388414    11.00000    0.03816    0.03329 =
         0.05081   -0.01590   -0.01276    0.00247
C17   1    0.506201    0.882707    0.243548    11.00000    0.05561    0.04385 =
         0.05122   -0.01242   -0.01171    0.00803
AFIX  43
H17   2    0.469931    0.960086    0.168630    11.00000   -1.20000
AFIX   0
C18   1    0.623564    0.777839    0.212957    11.00000    0.06147    0.05238 =
         0.05851   -0.02354   -0.00123    0.00423
C19   1    0.682144    0.660228    0.317169    11.00000    0.04474    0.04721 =
         0.08032   -0.02781   -0.01086    0.01145
AFIX  43
H19   2    0.761122    0.590520    0.293499    11.00000   -1.20000
AFIX   0
C20   1    0.616910    0.651955    0.458381    11.00000    0.04466    0.03582 =
         0.07556   -0.01749   -0.02844    0.00685
C21   1    0.499411    0.751437    0.497490    11.00000    0.04556    0.03976 =
         0.05348   -0.01757   -0.01891    0.00322
AFIX  43
H21   2    0.457806    0.739548    0.595530    11.00000   -1.20000
AFIX   0
HKLF 4
REM  shelx in P -1
REM R1 =  0.0578 for    2198 Fo > 4sig(Fo)  and  0.0837 for all    3269 data
REM    209 parameters refined using      0 restraints
END
WGHT      0.0867      0.0798
REM Highest difference peak  0.253,  deepest hole -0.198,  1-sigma level  0.046
Q1    1   0.0152  1.2172  0.5374  11.00000  0.05    0.25
Q2    1   0.3788  0.9173  0.4130  11.00000  0.05    0.23
Q3    1   0.7742  0.4352  0.5395  11.00000  0.05    0.21
Q4    1  -0.2342  1.3164  0.7519  11.00000  0.05    0.18
Q5    1   0.5439  0.7007  0.4775  11.00000  0.05    0.17
Q6    1   0.5885  0.8430  0.2350  11.00000  0.05    0.17
Q7    1   0.7960  0.5067  0.4282  11.00000  0.05    0.17
Q8    1   0.3565  0.8517  0.5367  11.00000  0.05    0.17
Q9    1   0.4549  1.6216 -0.0951  11.00000  0.05    0.16
Q10   1   0.8816  0.5152  0.2981  11.00000  0.05    0.16
Q11   1   0.8168  0.5656  0.2875  11.00000  0.05    0.15
Q12   1   0.2055  1.1789  0.3483  11.00000  0.05    0.15
Q13   1   0.4696  0.8134  0.4371  11.00000  0.05    0.15
Q14   1  -0.0932  1.3970  0.4527  11.00000  0.05    0.14
Q15   1   0.7376  0.5787  0.4042  11.00000  0.05    0.14
Q16   1   0.7905  0.6420  0.1824  11.00000  0.05    0.13
Q17   1   0.0031  1.4456  0.3080  11.00000  0.05    0.13
Q18   1   0.2895  1.4976 -0.0434  11.00000  0.05    0.13
Q19   1   0.1037  1.0210  0.3560  11.00000  0.05    0.13
Q20   1   0.2992  1.7039  0.0951  11.00000  0.05    0.13
;
_shelx_res_checksum              67654
loop_
_space_group_symop_operation_xyz
'x, y, z'
'-x, -y, -z'
loop_
_atom_site_type_symbol
_atom_site_label
_atom_site_fract_x
_atom_site_fract_y
_atom_site_fract_z
_atom_site_U_iso_or_equiv
_atom_site_adp_type
_atom_site_calc_flag
_atom_site_occupancy
F F22 0.6825(2) 0.7904(2) 0.07067(16) 0.1001(6) Uani d 1
F F23 0.67056(16) 0.53755(15) 0.56697(16) 0.0718(4) Uani d 1
O O12 -0.01987(17) 1.4064(2) 0.24797(16) 0.0649(5) Uani d 1
O O13 0.23514(16) 1.42864(17) 0.13543(14) 0.0531(4) Uani d 1
N N7 0.24653(18) 0.94165(18) 0.57154(16) 0.0421(4) Uani d 1
C C1 0.0774(2) 1.1781(2) 0.51318(19) 0.0376(4) Uani d 1
C C2 -0.0454(2) 1.2713(2) 0.5691(2) 0.0480(5) Uani d 1
H H2 -0.0801 1.3639 0.5047 0.058 Uiso calc 1
C C3 -0.1123(3) 1.2258(3) 0.7167(2) 0.0539(5) Uani d 1
H H3 -0.1929 1.2874 0.7519 0.065 Uiso calc 1
C C4 -0.0618(3) 1.0881(3) 0.8155(2) 0.0555(5) Uani d 1
H H4 -0.1086 1.0588 0.9159 0.067 Uiso calc 1
C C5 0.0558(2) 0.9962(2) 0.7659(2) 0.0503(5) Uani d 1
H H5 0.0882 0.9044 0.8329 0.060 Uiso calc 1
C C6 0.1290(2) 1.0385(2) 0.61443(19) 0.0401(4) Uani d 1
C C8 0.3163(2) 0.9798(2) 0.43039(19) 0.0388(4) Uani d 1
C C9 0.2746(2) 1.1196(2) 0.3221(2) 0.0405(4) Uani d 1
H H9 0.3281 1.1449 0.2234 0.049 Uiso calc 1
C C10 0.1566(2) 1.2166(2) 0.36229(19) 0.0383(4) Uani d 1
C C11 0.1116(2) 1.3604(2) 0.2447(2) 0.0426(4) Uani d 1
C C14 0.2048(3) 1.5635(3) 0.0110(2) 0.0608(6) Uani d 1
H H14A 0.1244 1.6326 0.0450 0.073 Uiso calc 1
H H14B 0.1698 1.5253 -0.0509 0.073 Uiso calc 1
C C15 0.3529(3) 1.6536(4) -0.0731(3) 0.0974(11) Uani d 1
H H15A 0.3348 1.7481 -0.1521 0.146 Uiso calc 1
H H15B 0.4292 1.5865 -0.1125 0.146 Uiso calc 1
H H15C 0.3903 1.6842 -0.0090 0.146 Uiso calc 1
C C16 0.4429(2) 0.8708(2) 0.3884(2) 0.0408(4) Uani d 1
C C17 0.5062(3) 0.8827(2) 0.2435(2) 0.0534(5) Uani d 1
H H17 0.4699 0.9601 0.1686 0.064 Uiso calc 1
C C18 0.6236(3) 0.7778(3) 0.2130(3) 0.0606(6) Uani d 1
C C19 0.6821(2) 0.6602(3) 0.3172(3) 0.0588(6) Uani d 1
H H19 0.7611 0.5905 0.2935 0.071 Uiso calc 1
C C20 0.6169(2) 0.6520(2) 0.4584(3) 0.0509(5) Uani d 1
C C21 0.4994(2) 0.7514(2) 0.4975(2) 0.0453(5) Uani d 1
H H21 0.4578 0.7395 0.5955 0.054 Uiso calc 1
loop_
_atom_site_aniso_label
_atom_site_aniso_U_11
_atom_site_aniso_U_22
_atom_site_aniso_U_33
_atom_site_aniso_U_12
_atom_site_aniso_U_13
_atom_site_aniso_U_23
F22 0.1142(14) 0.0950(12) 0.0644(9) 0.0349(10) 0.0037(9) -0.0335(8)
F23 0.0743(9) 0.0543(8) 0.0933(10) 0.0268(7) -0.0468(8) -0.0246(7)
O12 0.0491(9) 0.0713(11) 0.0610(10) 0.0189(8) -0.0218(7) -0.0113(8)
O13 0.0508(8) 0.0528(9) 0.0406(7) 0.0100(6) -0.0154(6) -0.0027(6)
N7 0.0473(9) 0.0345(8) 0.0422(8) 0.0038(7) -0.0157(7) -0.0108(6)
C1 0.0384(9) 0.0362(9) 0.0413(9) 0.0023(7) -0.0148(7) -0.0157(7)
C2 0.0486(11) 0.0452(11) 0.0513(11) 0.0086(9) -0.0183(9) -0.0185(9)
C3 0.0526(12) 0.0622(13) 0.0511(11) 0.0097(10) -0.0134(9) -0.0291(10)
C4 0.0596(13) 0.0638(14) 0.0414(11) 0.0027(11) -0.0096(9) -0.0220(10)
C5 0.0609(13) 0.0481(12) 0.0389(10) 0.0031(10) -0.0164(9) -0.0121(8)
C6 0.0433(10) 0.0377(9) 0.0419(10) 0.0013(8) -0.0162(8) -0.0146(8)
C8 0.0400(10) 0.0338(9) 0.0426(10) 0.0035(7) -0.0139(8) -0.0135(7)
C9 0.0433(10) 0.0388(10) 0.0378(9) 0.0040(8) -0.0136(8) -0.0120(8)
C10 0.0406(10) 0.0347(9) 0.0402(9) 0.0028(7) -0.0160(7) -0.0120(7)
C11 0.0477(11) 0.0410(10) 0.0410(10) 0.0097(8) -0.0185(8) -0.0156(8)
C14 0.0688(15) 0.0597(14) 0.0434(11) 0.0182(11) -0.0256(10) -0.0059(10)
C15 0.0709(18) 0.095(2) 0.0630(16) 0.0102(16) -0.0056(13) 0.0247(15)
C16 0.0382(9) 0.0333(9) 0.0508(10) 0.0025(7) -0.0128(8) -0.0159(8)
C17 0.0556(12) 0.0439(11) 0.0512(12) 0.0080(9) -0.0117(9) -0.0124(9)
C18 0.0615(14) 0.0524(13) 0.0585(13) 0.0042(11) -0.0012(10) -0.0235(10)
C19 0.0447(12) 0.0472(12) 0.0803(16) 0.0114(9) -0.0109(11) -0.0278(11)
C20 0.0447(11) 0.0358(10) 0.0756(14) 0.0069(8) -0.0284(10) -0.0175(9)
C21 0.0456(11) 0.0398(10) 0.0535(11) 0.0032(8) -0.0189(9) -0.0176(9)
loop_
_atom_type_symbol
_atom_type_description
_atom_type_scat_dispersion_real
_atom_type_scat_dispersion_imag
_atom_type_scat_source
C C 0.0033 0.0016 'International Tables Vol C Tables 4.2.6.8 and 6.1.1.4'
H H 0.0000 0.0000 'International Tables Vol C Tables 4.2.6.8 and 6.1.1.4'
F F 0.0171 0.0103 'International Tables Vol C Tables 4.2.6.8 and 6.1.1.4'
N N 0.0061 0.0033 'International Tables Vol C Tables 4.2.6.8 and 6.1.1.4'
O O 0.0106 0.0060 'International Tables Vol C Tables 4.2.6.8 and 6.1.1.4'
loop_
_geom_angle_atom_site_label_1
_geom_angle_atom_site_label_2
_geom_angle_atom_site_label_3
_geom_angle
C11 O13 C14 116.37(15)
C8 N7 C6 118.80(15)
C6 C1 C2 118.52(17)
C10 C1 C2 124.76(16)
C10 C1 C6 116.69(16)
C1 C2 H2 119.8
C3 C2 C1 120.33(18)
C3 C2 H2 119.8
C2 C3 H3 119.5
C2 C3 C4 120.9(2)
C4 C3 H3 119.5
C3 C4 H4 119.8
C5 C4 C3 120.36(19)
C5 C4 H4 119.8
C4 C5 H5 119.6
C4 C5 C6 120.87(18)
C6 C5 H5 119.6
N7 C6 C1 122.89(16)
N7 C6 C5 118.10(16)
C5 C6 C1 119.01(18)
N7 C8 C9 121.95(17)
N7 C8 C16 117.07(16)
C9 C8 C16 120.97(16)
C8 C9 H9 119.9
C10 C9 C8 120.18(17)
C10 C9 H9 119.9
C1 C10 C11 121.64(16)
C9 C10 C1 119.46(16)
C9 C10 C11 118.89(16)
O12 C11 O13 124.14(17)
O12 C11 C10 124.31(18)
O13 C11 C10 111.54(15)
O13 C14 H14A 110.2
O13 C14 H14B 110.2
O13 C14 C15 107.47(18)
H14A C14 H14B 108.5
C15 C14 H14A 110.2
C15 C14 H14B 110.2
C14 C15 H15A 109.5
C14 C15 H15B 109.5
C14 C15 H15C 109.5
H15A C15 H15B 109.5
H15A C15 H15C 109.5
H15B C15 H15C 109.5
C17 C16 C8 122.06(17)
C17 C16 C21 118.63(18)
C21 C16 C8 119.30(17)
C16 C17 H17 120.6
C18 C17 C16 118.79(19)
C18 C17 H17 120.6
F22 C18 C17 117.8(2)
F22 C18 C19 118.2(2)
C19 C18 C17 124.0(2)
C18 C19 H19 122.2
C20 C19 C18 115.57(19)
C20 C19 H19 122.2
F23 C20 C19 118.31(19)
F23 C20 C21 117.9(2)
C19 C20 C21 123.82(19)
C16 C21 H21 120.4
C20 C21 C16 119.18(19)
C20 C21 H21 120.4
loop_
_geom_bond_atom_site_label_1
_geom_bond_atom_site_label_2
_geom_bond_distance
F22 C18 1.360(3)
F23 C20 1.361(2)
O12 C11 1.200(2)
O13 C11 1.325(2)
O13 C14 1.453(2)
N7 C6 1.367(2)
N7 C8 1.316(2)
C1 C2 1.422(3)
C1 C6 1.420(2)
C1 C10 1.417(3)
C2 H2 0.9300
C2 C3 1.362(3)
C3 H3 0.9300
C3 C4 1.394(3)
C4 H4 0.9300
C4 C5 1.362(3)
C5 H5 0.9300
C5 C6 1.408(3)
C8 C9 1.420(2)
C8 C16 1.487(2)
C9 H9 0.9300
C9 C10 1.361(2)
C10 C11 1.503(2)
C14 H14A 0.9700
C14 H14B 0.9700
C14 C15 1.487(4)
C15 H15A 0.9600
C15 H15B 0.9600
C15 H15C 0.9600
C16 C17 1.390(3)
C16 C21 1.395(3)
C17 H17 0.9300
C17 C18 1.377(3)
C18 C19 1.368(3)
C19 H19 0.9300
C19 C20 1.367(3)
C20 C21 1.370(3)
C21 H21 0.9300
loop_
_geom_hbond_atom_site_label_D
_geom_hbond_atom_site_label_H
_geom_hbond_atom_site_label_A
_geom_hbond_site_symmetry_A
_geom_hbond_distance_DH
_geom_hbond_distance_HA
_geom_hbond_distance_DA
_geom_hbond_angle_DHA
C2 H2 O12 . 0.93 2.41 2.986(2) 120
C21 H21 N7 . 0.93 2.47 2.778(3) 100
C19 H19 O12 1_645 0.93 2.47 3.399(3) 175
loop_
_geom_torsion_atom_site_label_1
_geom_torsion_atom_site_label_2
_geom_torsion_atom_site_label_3
_geom_torsion_atom_site_label_4
_geom_torsion
F22 C18 C19 C20 -179.1(2)
F23 C20 C21 C16 179.44(16)
N7 C8 C9 C10 -1.8(3)
N7 C8 C16 C17 168.68(18)
N7 C8 C16 C21 -10.6(3)
C1 C2 C3 C4 0.3(3)
C1 C10 C11 O12 -37.0(3)
C1 C10 C11 O13 144.05(17)
C2 C1 C6 N7 -179.66(16)
C2 C1 C6 C5 0.8(3)
C2 C1 C10 C9 178.70(17)
C2 C1 C10 C11 -2.5(3)
C2 C3 C4 C5 -0.1(3)
C3 C4 C5 C6 0.3(3)
C4 C5 C6 N7 179.84(18)
C4 C5 C6 C1 -0.6(3)
C6 N7 C8 C9 1.0(3)
C6 N7 C8 C16 -179.68(15)
C6 C1 C2 C3 -0.7(3)
C6 C1 C10 C9 0.6(3)
C6 C1 C10 C11 179.39(16)
C8 N7 C6 C1 0.6(3)
C8 N7 C6 C5 -179.84(17)
C8 C9 C10 C1 0.9(3)
C8 C9 C10 C11 -177.89(16)
C8 C16 C17 C18 179.82(19)
C8 C16 C21 C20 -179.52(17)
C9 C8 C16 C17 -12.0(3)
C9 C8 C16 C21 168.72(16)
C9 C10 C11 O12 141.7(2)
C9 C10 C11 O13 -37.2(2)
C10 C1 C2 C3 -178.75(19)
C10 C1 C6 N7 -1.4(3)
C10 C1 C6 C5 179.03(17)
C11 O13 C14 C15 162.0(2)
C14 O13 C11 O12 -2.5(3)
C14 O13 C11 C10 176.44(16)
C16 C8 C9 C10 178.90(16)
C16 C17 C18 F22 179.2(2)
C16 C17 C18 C19 0.5(4)
C17 C16 C21 C20 1.2(3)
C17 C18 C19 C20 -0.4(4)
C18 C19 C20 F23 -179.87(19)
C18 C19 C20 C21 0.7(3)
C19 C20 C21 C16 -1.1(3)
C21 C16 C17 C18 -0.9(3)

_cod_database_fobs_code 1543352
