#------------------------------------------------------------------------------
#$Date: 2016-08-10 04:12:06 +0300 (Wed, 10 Aug 2016) $
#$Revision: 185715 $
#$URL: file:///home/coder/svn-repositories/cod/cif/1/54/38/1543862.cif $
#------------------------------------------------------------------------------
#
# This file is available in the Crystallography Open Database (COD),
# http://www.crystallography.net/. The original data for this entry
# were provided by IUCr Journals, http://journals.iucr.org/.
#
# The file may be used within the scientific community so long as
# proper attribution is given to the journal article from which the
# data were obtained.
#
data_1543862
loop_
_publ_author_name
'G\"orbitz, Carl Henrik'
'Karen, Pavel'
'Du\<sek, Michal'
'Pet\<r\'i\<cek, V\'aclav'
_publ_section_title
;
 An exceptional series of phase transitions in hydrophobic amino acids
 with linear side chains
;
_journal_issue                   5
_journal_name_full               IUCrJ
_journal_page_first
;
;
_journal_paper_doi               10.1107/S2052252516010472
_journal_volume                  3
_journal_year                    2016
_chemical_absolute_configuration rm
_chemical_formula_moiety         'C5 H11 N O2'
_chemical_formula_sum            'C5 H11 N O2'
_chemical_formula_weight         117.15
_chemical_name_common            L-norvaline
_chemical_name_systematic
;
 S-2-aminopentanoic acid
;
_space_group_crystal_system      monoclinic
_space_group_IT_number           4
_space_group_name_Hall           'P 2yb'
_space_group_name_H-M_alt        'P 1 21 1'
_symmetry_space_group_name_Hall  'P 2yb'
_symmetry_space_group_name_H-M   'P 1 21 1'
_atom_sites_solution_hydrogens   geom
_atom_sites_solution_primary     direct
_atom_sites_solution_secondary   difmap
_audit_creation_method           SHELXL-2013
_cell_angle_alpha                90
_cell_angle_beta                 98.609(5)
_cell_angle_gamma                90
_cell_formula_units_Z            4
_cell_length_a                   9.6123(15)
_cell_length_b                   5.1222(9)
_cell_length_c                   13.183(2)
_cell_measurement_reflns_used    2984
_cell_measurement_temperature    100(2)
_cell_measurement_theta_max      26.35
_cell_measurement_theta_min      2.58
_cell_volume                     641.77(18)
_computing_cell_refinement       'APEX2 (Bruker, 2014)'
_computing_data_collection       'APEX2 (Bruker, 2014)'
_computing_data_reduction        'APEX2 (Bruker, 2014)'
_computing_molecular_graphics    'MERCURY (Macrae et al., 2008)'
_computing_publication_material  'SHELXL (Sheldrick, 2015b)'
_computing_structure_refinement  'SHELXL (Sheldrick, 2015b)'
_computing_structure_solution    'SHELXT (Sheldrick, 2015a)'
_diffrn_ambient_temperature      100(2)
_diffrn_detector_area_resol_mean 8.3
_diffrn_measured_fraction_theta_full 0.994
_diffrn_measured_fraction_theta_max 0.995
_diffrn_measurement_device_type  'Bruker Apex II CCD diffractometer'
_diffrn_measurement_method
'Sets of exposures each taken over 0.5\% \w rotation'
_diffrn_radiation_monochromator  graphite
_diffrn_radiation_type           MoK\a
_diffrn_radiation_wavelength     0.71073
_diffrn_reflns_av_R_equivalents  0.0409
_diffrn_reflns_av_unetI/netI     0.0597
_diffrn_reflns_Laue_measured_fraction_full 0.994
_diffrn_reflns_Laue_measured_fraction_max 0.995
_diffrn_reflns_limit_h_max       11
_diffrn_reflns_limit_h_min       -11
_diffrn_reflns_limit_k_max       6
_diffrn_reflns_limit_k_min       -6
_diffrn_reflns_limit_l_max       16
_diffrn_reflns_limit_l_min       -16
_diffrn_reflns_number            5169
_diffrn_reflns_point_group_measured_fraction_full 0.961
_diffrn_reflns_point_group_measured_fraction_max 0.960
_diffrn_reflns_theta_full        25.242
_diffrn_reflns_theta_max         25.681
_diffrn_reflns_theta_min         2.143
_exptl_absorpt_coefficient_mu    0.093
_exptl_absorpt_correction_T_max  1.000
_exptl_absorpt_correction_T_min  0.802
_exptl_absorpt_correction_type   multi-scan
_exptl_absorpt_process_details   'SADABS (Bruker, 2014)'
_exptl_crystal_colour            colourless
_exptl_crystal_density_diffrn    1.212
_exptl_crystal_density_method    'not measured'
_exptl_crystal_description       plate
_exptl_crystal_F_000             256
_exptl_crystal_size_max          0.52
_exptl_crystal_size_mid          0.48
_exptl_crystal_size_min          0.09
_refine_diff_density_max         0.219
_refine_diff_density_min         -0.205
_refine_diff_density_rms         0.050
_refine_ls_extinction_method     none
_refine_ls_goodness_of_fit_ref   1.062
_refine_ls_hydrogen_treatment    constr
_refine_ls_matrix_type           full
_refine_ls_number_parameters     147
_refine_ls_number_reflns         2352
_refine_ls_number_restraints     1
_refine_ls_restrained_S_all      1.062
_refine_ls_R_factor_all          0.0652
_refine_ls_R_factor_gt           0.0509
_refine_ls_shift/su_max          0.000
_refine_ls_shift/su_mean         0.000
_refine_ls_structure_factor_coef Fsqd
_refine_ls_weighting_details
;
 w=1/[\s^2^(Fo^2^)+(0.0298P)^2^+0.3485P]
 where P=(Fo^2^+2Fc^2^)/3
;
_refine_ls_weighting_scheme      calc
_refine_ls_wR_factor_gt          0.1002
_refine_ls_wR_factor_ref         0.1064
_reflns_Friedel_coverage         0.724
_reflns_Friedel_fraction_full    0.920
_reflns_Friedel_fraction_max     0.917
_reflns_number_gt                1990
_reflns_number_total             2352
_reflns_threshold_expression     'I > 2\s(I)'
_cod_data_source_file            ed5010.cif
_cod_data_source_block           Nva100
_cod_original_cell_volume        641.78(19)
_cod_database_code               1543862
_shelx_space_group_comment
;
The symmetry employed for this shelxl refinement is uniquely defined
by the following loop, which should always be used as a source of
symmetry information in preference to the above space-group names.
They are only intended as comments.
;
_shelxl_version_number           2013-2
_shelx_res_file
;
REM Solution 1  R1  0.128  Rweak  0.037,  Alpha = 0.0085  in P2(1)
REM Flack x = -0.136 ( 0.821 ) from Parsons' quotients
REM Formula:  C10 O6
TITL Nva100B in P2(1)
CELL  0.71073   9.6123   5.1222  13.1832   90.000   98.609   90.000
ZERR    4.00   0.00150   0.00090   0.00220   0.0000   0.0048   0.0000
LATT -1
SYMM -X, 1/2+Y, -Z
SFAC C H N O
UNIT 20 44 4 8
TEMP -173.140
SHEL 999 0.820

L.S. 5

ACTA
BOND $H
CONF

LIST 4
FMAP 2
PLAN -1

EQIV $1 X,-1+Y, Z
EQIV $2 1-X, 0.5+Y, 1-Z
EQIV $3 1-X, -0.5+Y, 1-Z
EQIV $4 1+X,-1+Y, Z
EQIV $5 1+X, Y, Z

HTAB N1A O1B
HTAB N1A O2A_$1
HTAB N1A O1B_$2

HTAB N1B O1A_$3
HTAB N1B O2A_$4
HTAB N1B O1A_$4
HTAB N1B O2B_$1
HTAB C2B O1A_$5

WGHT    0.029800    0.348500
FVAR       1.09082
O1A   4    0.105684    0.615822    0.406692    11.00000    0.00969    0.01951 =
         0.02826   -0.00043    0.00343   -0.00157
O2A   4    0.167945    1.000000    0.348131    11.00000    0.01384    0.01509 =
         0.03494    0.00057    0.00583    0.00348
N1A   3    0.358537    0.406353    0.419523    11.00000    0.00933    0.01596 =
         0.02818   -0.00048    0.00308    0.00256
AFIX  37
H1A   2    0.444891    0.341046    0.413284    11.00000   -1.50000
H2A   2    0.291082    0.289277    0.393975    11.00000   -1.50000
H3A   2    0.353457    0.436394    0.486903    11.00000   -1.50000
AFIX   0
C1A   1    0.191741    0.764826    0.373869    11.00000    0.01035    0.01712 =
         0.02121   -0.00439   -0.00158    0.00213
C2A   1    0.335932    0.655570    0.361295    11.00000    0.01205    0.01166 =
         0.02776    0.00127    0.00218    0.00048
AFIX  13
H21A  2    0.409100    0.783062    0.392034    11.00000   -1.20000
AFIX   0
C3A   1    0.354547    0.611061    0.249942    11.00000    0.01688    0.02168 =
         0.02721   -0.00132    0.00501    0.00084
AFIX  23
H31A  2    0.273126    0.510545    0.215196    11.00000   -1.20000
H32A  2    0.440179    0.504905    0.248017    11.00000   -1.20000
AFIX   0
C4A   1    0.367106    0.864182    0.191337    11.00000    0.03438    0.03128 =
         0.03443    0.00484    0.01003    0.00680
AFIX  23
H41A  2    0.275456    0.956001    0.182377    11.00000   -1.20000
H42A  2    0.437456    0.978562    0.232064    11.00000   -1.20000
AFIX   0
C5A   1    0.410474    0.817066    0.086999    11.00000    0.05147    0.05776 =
         0.03317    0.00672    0.01115   -0.00437
AFIX  33
H51A  2    0.417103    0.984490    0.052064    11.00000   -1.50000
H52A  2    0.340201    0.706604    0.045901    11.00000   -1.50000
H53A  2    0.502168    0.729629    0.095547    11.00000   -1.50000
AFIX   0
O1B   4    0.627954    0.242515    0.409514    11.00000    0.01198    0.01832 =
         0.03080    0.00390    0.00636    0.00135
O2B   4    0.688599    0.646202    0.367854    11.00000    0.01669    0.01455 =
         0.03994    0.00001    0.00754    0.00257
N1B   3    0.885535    0.058284    0.381336    11.00000    0.00869    0.01728 =
         0.02619   -0.00071    0.00398    0.00250
AFIX  37
H1B   2    0.892761    0.092954    0.449624    11.00000   -1.50000
H2B   2    0.972428    0.023620    0.365143    11.00000   -1.50000
H3B   2    0.828674   -0.082573    0.365685    11.00000   -1.50000
AFIX   0
C1B   1    0.704910    0.404119    0.372028    11.00000    0.00873    0.01866 =
         0.02307   -0.00166   -0.00203    0.00123
C2B   1    0.824495    0.289046    0.321627    11.00000    0.01385    0.01289 =
         0.02634    0.00209    0.00432    0.00344
AFIX  13
H21B  2    0.899401    0.424150    0.320735    11.00000   -1.20000
AFIX   0
C3B   1    0.769693    0.206734    0.211913    11.00000    0.01610    0.02493 =
         0.02805   -0.00080    0.00208    0.00114
AFIX  23
H31B  2    0.720794    0.357343    0.175395    11.00000   -1.20000
H32B  2    0.699270    0.066466    0.213799    11.00000   -1.20000
AFIX   0
C4B   1    0.882364    0.109428    0.150290    11.00000    0.02518    0.04217 =
         0.02414   -0.00730   -0.00033    0.00891
AFIX  23
H41B  2    0.938456   -0.028540    0.190036    11.00000   -1.20000
H42B  2    0.835520    0.030140    0.085597    11.00000   -1.20000
AFIX   0
C5B   1    0.979907    0.321289    0.125085    11.00000    0.03250    0.07117 =
         0.04117   -0.00583    0.02033   -0.00751
AFIX  33
H51B  2    1.049593    0.246987    0.086121    11.00000   -1.50000
H52B  2    1.028135    0.398688    0.188768    11.00000   -1.50000
H53B  2    0.925573    0.456288    0.083935    11.00000   -1.50000
AFIX   0
HKLF 4

REM  Nva100B in P2(1)
REM R1 =  0.0509 for    1990 Fo > 4sig(Fo)  and  0.0652 for all    2352 data
REM    147 parameters refined using      1 restraints

END

WGHT      0.0298      0.3485

REM Highest difference peak  0.219,  deepest hole -0.205,  1-sigma level  0.050
Q1    1   0.1786  1.0145  0.4217  11.00000  0.05    0.22
;
_shelx_res_checksum              4
_shelx_hkl_file
;
  -1   0   0    0.40    0.30
   2   0   0 1706.63   71.69
  -2   0   0 1672.73   72.09
  -2   0   0 1688.73   71.79
   2   0   0 1641.94   72.19
   3   0   0  679.73   30.60
  -3   0   0  674.03   30.40
  -3   0   0  683.53   30.10
   3   0   0  714.93   29.90
   4   0   0 3767.62  153.48
  -4   0   0 3541.45  154.28
   4   0   0 3520.45  154.48
  -4   0   0 3538.85  153.68
  -5   0   0    6.40    2.10
   5   0   0    7.70    2.30
   5   0   0    7.10    1.80
  -5   0   0    7.70    2.40
   6   0   0  400.46   20.70
  -6   0   0  426.16   19.80
  -6   0   0  439.56   20.50
  -7   0   0   46.50    6.20
  -7   0   0   59.29    5.70
   7   0   0   38.30    6.10
   8   0   0   26.30    4.80
  -8   0   0   33.20    6.20
  -8   0   0   31.90    5.30
  -9   0   0   34.50    5.70
   9   0   0   22.00    5.70
  10   0   0   56.29    9.10
  11   0   0   60.29    8.60
   0  -1   0    0.00    0.70
   0  -1   0    0.40    0.60
   0   1   0   -0.10    0.60
   0   1   0    1.10    0.90
   1  -1   0 4651.83  203.38
   1  -1   0 4703.83  202.98
  -1   1   0 4776.72  203.38
   1   1   0 4915.41  203.38
  -1   1   0 4752.32  202.98
  -2  -1   0  162.08    8.60
  -2  -1   0  171.68    7.70
   2  -1   0  167.28    8.50
   2  -1   0  157.38    7.70
  -2   1   0  180.68    8.60
  -2   1   0  169.18    7.70
   2   1   0  178.68    7.60
   2   1   0  162.58    8.50
  -3  -1   0 1327.57   59.69
   3  -1   0 1349.47   59.99
   3   1   0 1398.96   59.19
   3   1   0 1347.47   59.59
   3   1   0 1424.86   58.89
  -3   1   0 1367.26   59.99
   4  -1   0  335.07   16.40
  -4  -1   0  323.97   16.10
   4   1   0  325.07   15.60
  -4   1   0  332.27   16.40
   4   1   0  334.87   15.90
   4   1   0  346.77   15.20
   5  -1   0  235.98   12.60
  -5  -1   0  225.08   12.20
   5   1   0  230.68   11.80
   5   1   0  233.28   11.20
   5   1   0  234.78   11.90
  -5   1   0  230.28   12.70
  -6  -1   0  184.98   11.20
   6  -1   0  190.28   11.40
   6   1   0  193.88   10.50
  -6   1   0  197.18   11.70
   6   1   0  196.68   11.00
   6   1   0  193.18   10.10
  -7  -1   0  413.46   20.70
   7  -1   0  379.86   20.80
  -7   1   0  390.06   21.00
   7   1   0  431.16   20.90
   7   1   0  435.16   20.00
   7   1   0  409.66   19.60
  -8  -1   0  438.96   22.40
   8   1   0  427.46   21.40
   8   1   0  449.06   22.90
   8   1   0  458.75   21.70
  -9  -1   0  130.29   10.70
   9  -1   0  110.49   10.10
   9   1   0  115.89   10.20
  10  -1   0   76.79    9.90
  10   1   0   58.59    9.00
  10   1   0   56.29    8.30
  10   1   0   83.49   11.00
  11  -1   0   39.40    8.40
  11   1   0   38.60    8.10
   0  -2   0  290.57   13.40
   0   2   0  300.97   14.40
   0   2   0  290.67   14.20
   0   2   0  290.67   13.70
   1  -2   0  513.55   23.00
   1  -2   0  482.85   23.20
  -1   2   0  498.75   23.10
   1   2   0  532.45   23.80
  -1   2   0  509.85   23.10
   1   2   0  515.35   23.60
   2  -2   0   96.49    6.00
   2  -2   0   90.89    5.60
  -2   2   0   93.09    5.30
   2   2   0   93.59    6.20
   2   2   0   85.19    6.20
  -2   2   0   95.79    6.20
   3  -2   0  202.98   10.90
   3  -2   0  194.88   10.10
  -3   2   0  228.58   11.20
  -3   2   0  200.98    9.70
   3   2   0  190.58   11.10
   3   2   0  203.58   11.30
   4  -2   0  263.17   13.90
   4   2   0  255.37   14.00
  -4   2   0  273.87   14.10
  -5  -2   0 1003.00   46.50
   5  -2   0  999.90   46.60
   5   2   0 1033.30   45.30
   5   2   0 1021.30   46.30
  -5   2   0 1015.30   46.80
   5   2   0 1065.09   44.50
  -6  -2   0   11.00    4.10
   6   2   0   13.90    3.10
  -6   2   0    9.70    4.30
   6   2   0   11.20    2.10
   6   2   0    5.80    3.80
   7  -2   0  117.09    8.90
  -7   2   0   80.69    9.80
   7   2   0   92.29    9.40
   7   2   0   97.49    8.40
   7   2   0   95.59    6.20
   8   2   0   12.10    3.20
   8   2   0   15.40    5.40
   8   2   0   18.20    5.70
   8   2   0   14.40    4.90
   9  -2   0  276.37   17.10
   9   2   0  279.97   17.30
   9   2   0  245.78   13.90
  10   2   0   24.00    7.70
  11   2   0   42.70    8.80
  11   2   0   36.90    9.70
   0  -3   0    0.10    1.50
   0   3   0   -1.40    3.00
   0   3   0    0.80    2.30
  -1  -3   0   12.60    2.20
   1  -3   0   13.40    2.40
  -1   3   0    7.60    2.90
  -1   3   0   15.20    2.90
   1   3   0   11.90    3.20
   1   3   0   16.40    3.70
  -1   3   0   14.70    3.70
   2  -3   0  368.06   17.50
   2  -3   0  339.67   17.60
   2   3   0  351.16   18.20
  -2   3   0  361.26   17.30
   2   3   0  355.26   18.40
  -2   3   0  346.67   17.90
   3  -3   0  110.09    7.70
   3  -3   0  125.89    8.30
  -3   3   0  106.19    9.20
  -3   3   0  111.19    6.90
   3   3   0  109.69    9.00
   4  -3   0  259.47   14.70
  -4   3   0  255.07   14.90
   4   3   0  238.78   14.70
  -4   3   0  246.78   12.30
   4   3   0  247.18   14.50
   5  -3   0   39.50    7.20
   5  -3   0   32.20    5.70
   5   3   0   36.90    5.80
  -5   3   0   44.60    4.10
  -5   3   0   38.60    6.60
   5   3   0   35.20    6.20
   6   3   0  517.35   25.70
   6   3   0  450.85   25.30
   7  -3   0  109.79   12.50
   7   3   0  111.09   11.30
   8  -3   0   86.49   12.40
   8   3   0   68.09    9.60
   8   3   0   61.59   10.80
   8   3   0   63.29    6.40
   9   3   0   27.40    4.70
   9   3   0   26.10    7.50
   9   3   0   36.10    8.80
  10  -3   0  100.69   17.70
  10   3   0   62.89   10.10
  10   3   0   53.69   10.90
   0  -4   0   71.79    5.50
   0   4   0   73.59    7.20
   0   4   0   68.69    9.40
   1  -4   0  139.99    8.30
   1   4   0  118.49   11.30
  -1   4   0  133.49   11.30
  -1   4   0  141.09    9.30
  -1   4   0  106.69   10.10
   1   4   0  131.09    9.80
   2   4   0   71.29    7.80
  -2   4   0   75.99    9.50
   2   4   0   59.19    9.60
  -2   4   0   74.19    9.80
   3  -4   0  534.65   25.60
   3   4   0  535.65   28.10
  -3   4   0  498.45   27.20
  -3   4   0  536.05   25.10
  -3   4   0  517.15   26.50
   4  -4   0   86.79    8.80
  -4   4   0   90.89   10.40
  -4   4   0  106.19   12.00
  -4   4   0   83.79    6.90
   4   4   0   73.09    8.90
   5  -4   0  397.06   21.60
   5   4   0  384.06   21.90
  -5   4   0  373.46   20.70
  -5   4   0  385.76   18.90
   6  -4   0    3.70    5.40
   6   4   0    0.30    5.30
   7  -4   0   19.80    7.20
   7   4   0    4.60    7.00
   8  -4   0   20.00    9.00
   8   4   0   11.20    8.20
   9  -4   0  128.09   19.10
   9   4   0  116.79   16.90
   0  -5   0    7.20    3.50
   0   5   0    4.50    5.00
   1  -5   0  112.19    8.50
  -1   5   0  102.49   13.80
  -1   5   0  103.19   10.50
   1   5   0  112.09   10.80
   2  -5   0   85.59    8.50
   2   5   0  115.39   10.80
  -2   5   0  109.79   15.20
   3  -5   0  101.39    9.60
  -3   5   0  104.49    9.40
   3   5   0  102.19   11.50
  -3   5   0  115.09   15.50
   4  -5   0   49.00    8.90
   4   5   0   37.80    7.70
  -4   5   0   31.40   10.00
  -4   5   0   35.80    5.90
   5  -5   0  132.99   12.20
   5   5   0  134.39   13.60
  -5   5   0  103.99    9.60
   6  -5   0    0.10    6.40
  -6   5   0   19.10    5.10
   6   5   0    8.30    8.40
   7  -5   0   11.20    8.30
   7   5   0    2.30    8.80
   0   6   0   21.20    8.30
   1  -6   0   10.00    5.20
   1   6   0   18.50    7.90
  -1   6   0   -0.60    7.00
   2  -6   0   -7.30    5.30
   2   6   0   -1.60    7.50
  -2   6   0  -11.10    6.60
   3  -6   0    7.50    6.40
   3   6   0   11.20    8.70
  -3   6   0    8.10    6.80
   4  -6   0   27.60    7.80
  -4   6   0   26.60    7.60
  11   0  -1  321.87   20.00
  10   0  -1   89.49    9.30
  10   0  -1   78.59    9.90
 -10   0   1  114.89   11.00
   9   0  -1   -5.90    3.80
  -9   0   1   11.40    4.90
   9   0  -1   -2.00    3.60
  -8   0   1   21.30    5.00
  -8   0   1   17.90    4.20
   8   0  -1   24.50    4.60
   8   0  -1   13.70    3.40
  -7   0   1  101.19    7.50
  -7   0   1  110.79    8.40
   7   0  -1   86.29    7.50
  -6   0   1   -2.00    2.40
   6   0  -1    2.00    1.90
  -6   0   1    0.10    2.40
  -5   0   1    0.20    2.20
   5   0  -1    1.40    1.70
  -5   0   1    1.30    2.10
  -4   0   1  463.65   21.10
   4   0  -1  445.16   21.20
  -4   0   1  464.75   20.70
   3   0  -1  263.57   10.80
  -3   0   1  221.98   11.10
   3   0  -1  210.18   11.00
  -2   0   1   35.60    2.40
   2   0  -1   39.90    2.30
  -2   0   1   39.50    2.60
   2   0  -1   31.70    2.60
  -1   0   1    1.20    0.50
   1   0   1   10.50    1.10
   1   0   1    9.80    1.00
  -2   0  -1 4477.95  187.28
   2   0   1 4290.97  187.38
   3   0   1  410.96   18.50
   3   0   1  413.26   19.20
  -3   0  -1  441.36   19.20
   4   0   1 2108.79   90.49
   4   0   1 2064.89   89.39
   5   0   1  765.82   35.30
  -5   0  -1  815.32   35.10
   5   0   1  754.02   34.00
   6   0   1  734.53   35.30
  -6   0  -1  794.92   35.00
   7   0   1    9.70    3.70
  -7   0  -1   10.20    3.60
   8   0   1   54.09    6.90
  -8   0  -1   70.29    8.20
   9   0   1   27.60    5.90
  11   0   1   12.20    6.70
 -11  -1   1    7.80    7.30
 -10  -1   1   38.30    7.00
  10  -1  -1   34.40    6.80
  10   1  -1   33.10    6.20
  10   1  -1   27.90    6.00
   9  -1  -1  103.49    9.60
  -9  -1   1  104.69   10.40
   9   1  -1   92.49    8.40
   9   1  -1   73.09    8.00
   8  -1  -1  300.87   16.90
  -8  -1   1  310.97   17.30
  -8   1   1  266.47   17.40
   8   1  -1  325.77   16.20
   8   1  -1  294.57   15.40
   8   1  -1  305.97   16.70
  -7  -1   1  304.67   16.10
   7  -1  -1  288.77   16.20
   7  -1  -1  307.37   14.40
   7   1  -1  329.97   15.50
   7   1  -1  290.17   15.90
  -7   1   1  303.37   16.80
   7   1  -1  281.87   14.70
  -7   1   1  291.07   14.70
  -6  -1   1  125.69    8.00
   6  -1  -1  106.79    7.70
   6  -1  -1  116.09    6.30
   6   1  -1  119.69    7.30
  -6   1   1   93.29    6.60
   6   1  -1  101.39    6.40
  -6   1   1  102.89    8.30
   6   1  -1  107.29    7.60
   5  -1  -1  382.26   19.70
   5  -1  -1  420.46   18.30
  -5  -1   1  394.96   19.60
  -5   1   1  398.66   20.00
   5   1  -1  416.26   19.20
   5   1  -1  416.16   19.10
  -4  -1   1  464.15   21.30
   4  -1  -1  458.25   20.20
   4  -1  -1  445.36   21.50
   4   1  -1  453.05   21.00
   4   1  -1  457.55   20.70
  -4   1   1  473.15   21.60
   4   1  -1  434.56   20.20
  -3  -1   1 4159.48  180.08
   3  -1  -1 4060.99  180.28
   3  -1  -1 4216.28  179.18
  -3   1   1 4267.47  180.48
   3   1  -1 4296.37  179.88
   2  -1  -1  340.97   15.90
  -2  -1   1  334.77   15.90
   2  -1  -1  337.37   15.30
   2   1  -1  343.37   15.80
  -2   1   1  333.67   15.90
  -2   1   1  364.76   15.30
   1  -1  -1  390.86   17.40
  -1   1   1  387.46   17.60
  -1   1   1  384.66   17.30
   1   1  -1  399.06   17.70
   0  -1  -1   19.70    2.00
   0  -1  -1   20.80    1.50
   0  -1   1   18.50    2.10
   0   1  -1   21.20    2.00
   0   1   1   21.20    1.70
  -1  -1  -1 1463.25   63.49
   1  -1   1 1444.86   63.49
   1   1   1 1489.45   63.59
  -1   1  -1 1404.16   62.99
  -1   1  -1 1479.45   63.39
  -1   1  -1 1433.86   62.99
   1   1   1 1564.54   62.89
  -2  -1  -1  329.57   14.00
   2  -1   1  291.77   14.60
   2   1   1  300.17   14.60
   2   1   1  317.07   14.70
   2   1   1  335.17   13.90
  -2   1  -1  303.97   14.70
  -3  -1  -1   73.89    4.20
   3  -1   1   73.59    5.10
   3   1   1   74.19    4.90
   3   1   1   67.89    4.90
  -3   1  -1   76.79    5.20
   3   1   1   78.99    4.00
   4  -1   1   44.60    4.30
   4   1   1   40.00    3.00
  -4   1  -1   40.90    4.40
   4   1   1   35.00    3.50
   4   1   1   39.80    4.10
   5  -1   1   48.40    5.00
   5   1   1   52.79    4.50
  -5   1  -1   47.40    5.40
   5   1   1   52.19    3.90
   6   1   1    3.80    2.70
   6   1   1    7.70    2.30
   6   1   1    3.10    3.00
  -6   1  -1    2.80    3.20
  -7   1  -1   56.99    7.80
   7   1   1   59.79    6.50
   7   1   1   62.49    5.70
   7   1   1   67.19    7.20
   7   1   1   57.59    6.10
   8  -1   1   41.20    6.50
   8   1   1   49.99    6.40
   8   1   1   54.59    6.80
   8   1   1   42.70    7.90
   8   1   1   44.90    7.00
   9  -1   1   28.80    6.00
   9   1   1   31.40    6.20
   9   1   1   25.20    5.30
  10   1   1   12.40    6.60
  10   1   1   28.20    6.10
  11  -1   1   14.70    6.90
  11   1   1    7.00    8.00
  11   1   1    2.00    6.90
  11  -2  -1   19.60    9.10
  11   2  -1    3.50    9.20
  10  -2  -1   92.09   13.90
  10   2  -1   68.39    9.30
  -9  -2   1   57.39    9.90
   9  -2  -1   77.49   11.20
   9   2  -1   52.79    6.30
  -8  -2   1    6.60    4.80
   8  -2  -1    8.80    4.80
   8   2  -1   -0.60    2.60
   8   2  -1    2.20    5.30
   7  -2  -1   27.60    4.90
  -7  -2   1   21.10    5.20
  -7   2   1   20.80    5.30
   7   2  -1   23.70    5.00
   7   2  -1   17.20    2.80
   7   2  -1   15.80    4.40
   6  -2  -1   91.59    6.60
   6  -2  -1  115.99    8.70
  -6   2   1  113.19    9.80
   6   2  -1  107.09    8.50
   5  -2  -1   64.69    5.20
  -5  -2   1   71.29    7.10
   5  -2  -1   90.79    7.00
  -5   2   1   80.59    5.20
   5   2  -1   76.79    7.10
  -4  -2   1  215.48   12.30
   4  -2  -1  206.78   12.10
   4  -2  -1  204.28   10.90
  -4   2   1  224.08   10.70
  -4   2   1  253.57   12.50
   4   2  -1  218.28   12.00
   3  -2  -1   62.79    5.00
   3  -2  -1   55.39    4.30
  -3  -2   1   60.79    5.50
  -3   2   1   62.39    5.50
  -3   2   1   56.49    3.80
   3   2  -1   68.39    5.50
   2  -2  -1   69.49    4.80
   2  -2  -1   74.39    5.20
  -2  -2   1   76.69    5.50
   2   2  -1   75.49    5.60
  -2   2   1   72.79    4.50
   1  -2  -1  215.08   10.50
   1  -2  -1  213.18   10.80
  -1   2   1  213.88   10.70
  -1   2   1  210.88   10.70
   1   2  -1  214.08   11.10
   0  -2  -1  263.87   13.30
   0  -2  -1  278.87   12.50
   0   2   1  270.27   12.80
   0   2   1  265.87   13.20
   0   2  -1  272.87   13.30
   0   2  -1  269.47   13.30
   1  -2   1  648.64   29.30
  -1  -2  -1  685.23   28.70
  -1  -2  -1  641.14   29.90
  -1   2  -1  660.43   29.50
  -1   2  -1  652.93   29.40
  -1   2  -1  671.73   29.50
   1   2   1  658.83   30.00
   1   2   1  641.44   28.90
   2  -2   1  176.08    9.30
  -2  -2  -1  177.08    8.10
   2   2   1  174.58    8.30
  -2   2  -1  174.98    8.70
  -2   2  -1  182.58    9.60
   2   2   1  178.58   10.00
   2   2   1  168.18    9.70
  -2   2  -1  170.78    9.00
  -3  -2  -1  110.49    5.70
   3  -2   1  110.69    6.90
   3   2   1  109.19    7.20
  -3   2  -1  102.39    5.50
  -3   2  -1  104.09    7.40
   3   2   1  110.39    5.50
   3   2   1  106.39    7.30
  -4  -2  -1   68.29    4.40
   4  -2   1   66.39    5.50
   4   2   1   64.59    4.00
   4   2   1   63.69    5.80
   4   2   1   62.29    6.50
  -4   2  -1   67.99    6.40
   5  -2   1  138.79    9.40
   5   2   1  150.78   10.00
   5   2   1  143.99    9.70
   5   2   1  145.29    7.40
  -5   2  -1  140.19    9.90
   5   2   1  148.69    8.50
   6  -2   1   39.80    5.60
   6   2   1   38.80    5.30
   6   2   1   32.10    5.40
   6   2   1   41.70    3.90
   6   2   1   42.90    6.30
  -6   2  -1   44.30    7.20
   7   2   1  139.29   11.10
   7   2   1  139.69   10.70
   7   2   1  140.09    8.00
   8  -2   1   22.30    5.30
   8   2   1   24.20    5.60
   8   2   1   19.60    3.70
   8   2   1   12.90    5.90
   8   2   1   31.90    5.80
   9  -2   1   68.59    9.60
   9   2   1   69.59   10.90
   9   2   1   88.09   11.00
   9   2   1   88.49   11.10
  10  -2   1   40.40    7.30
  10   2   1   23.10    7.90
  10   2   1   28.90    8.20
  11   2   1   67.49   10.30
  10  -3  -1   18.60    9.10
  10   3  -1   14.60    9.60
   9  -3  -1   36.90    8.80
   9   3  -1   42.80    8.50
   8  -3  -1   60.19    8.90
   8   3  -1   50.29    8.50
   7  -3  -1  175.78   13.80
   7   3  -1  158.58   13.20
   6  -3  -1  457.15   22.50
   6   3  -1  449.06   24.50
   6   3  -1  502.65   24.90
  -6   3   1  452.55   21.60
   5  -3  -1  341.67   17.90
   5  -3  -1  368.16   19.30
  -5   3   1  349.47   19.90
   5   3  -1  366.66   19.60
  -5   3   1  362.76   17.00
   5   3  -1  342.67   19.30
   4  -3  -1   84.59    7.60
   4  -3  -1   83.89    7.10
  -4   3   1   69.69    9.00
   4   3  -1   85.49    8.20
   4   3  -1   79.49    7.70
  -4   3   1   74.69    5.50
   3  -3  -1  147.49    9.20
   3  -3  -1  150.98    9.40
  -3   3   1  139.69    8.40
   3   3  -1  162.78   10.60
  -3   3   1  150.38   10.30
   2  -3  -1  219.38   11.50
   2  -3  -1  210.38   12.00
   2   3  -1  226.28   12.50
  -2   3   1  196.28   12.00
  -2   3   1  215.68   11.30
   2   3  -1  219.58   12.70
   1  -3  -1  283.97   13.90
   1  -3  -1  274.27   14.80
   1   3  -1  290.07   15.10
  -1   3   1  285.37   14.50
  -1   3   1  278.67   14.50
   1   3  -1  284.07   15.30
   0  -3  -1  424.36   21.60
   0  -3   1  446.36   20.20
   0  -3  -1  449.76   20.20
   0   3  -1  461.35   21.80
   0   3   1  445.26   21.40
   0   3   1  439.46   20.80
   0   3  -1  430.06   20.70
   0   3  -1  442.36   21.50
   1  -3   1   19.40    3.30
  -1  -3  -1   16.00    2.50
   1   3   1   22.20    4.30
  -1   3  -1   19.60    3.50
   1   3   1   16.30    3.30
   1   3   1   16.50    2.60
  -1   3  -1   14.70    3.00
  -1   3  -1   21.40    4.00
   2  -3   1  318.87   16.00
  -2   3  -1  307.67   16.20
   2   3   1  331.07   17.20
  -2   3  -1  336.67   16.50
   2   3   1  304.57   15.00
  -2   3  -1  319.97   15.60
   2   3   1  305.47   16.60
   3  -3   1   79.79    6.70
  -3   3  -1   71.49    5.20
  -3   3  -1   62.69    6.60
  -3   3  -1   85.89    7.60
   3   3   1   67.79    4.70
   3   3   1   58.39    7.20
  -4  -3  -1   82.69    5.30
  -4   3  -1   85.59    9.00
   4   3   1   78.89    8.40
   4   3   1   77.69    7.40
  -4   3  -1   75.09    6.80
   4   3   1   77.19    5.10
  -4   3  -1   80.29    5.30
  -5  -3  -1   26.70    4.20
   5   3   1   27.60    3.60
   5   3   1   25.90    6.00
  -5   3  -1   22.90    5.90
   5   3   1   17.30    4.70
   6   3   1  379.16   17.50
   6   3   1  365.26   20.60
   6   3   1  380.96   18.70
   6   3   1  351.66   21.20
   7  -3   1   36.40    6.50
   7   3   1   23.10    6.60
   7   3   1   27.30    4.90
   7   3   1   38.40    5.60
   8   3   1   37.40    7.60
   8   3   1   45.30    6.20
   8   3   1   46.30    7.00
   9  -3   1   46.90    8.90
   9   3   1   53.19    9.00
  10  -3   1  177.08   18.40
  10   3   1  137.89   16.70
  10   3   1  114.89   15.50
   9  -4  -1   21.10    9.10
   9   4  -1   26.60   10.80
   8  -4  -1   55.89    9.70
   8   4  -1   68.59   11.10
   7  -4  -1   59.69   10.70
   7  -4  -1   77.29   12.20
   7   4  -1   94.29   12.60
   6  -4  -1  163.98   13.70
   6  -4  -1  158.08   12.80
   6   4  -1  174.68   14.40
  -6   4   1  166.48   10.40
   5  -4  -1  102.39   10.10
   5  -4  -1   87.29   10.40
   5   4  -1  119.19   11.30
  -5   4   1  109.89    7.70
   4  -4  -1    0.00    3.50
   4  -4  -1   -0.20    5.20
  -4   4   1   -5.60    7.00
   4   4  -1    5.30    4.80
  -4   4   1    3.90    3.10
   3  -4  -1   56.19    6.60
   3  -4  -1   47.80    8.30
   3   4  -1   47.30    8.20
  -3   4   1   51.59    7.50
   3   4  -1   65.29    9.50
   2  -4  -1  135.69   10.90
   2  -4  -1  145.19    9.10
   2   4  -1  146.39   11.90
  -2   4   1  119.09   11.30
   2   4  -1  138.89   10.60
  -2   4   1  143.19    9.20
   1  -4  -1   45.40    5.00
  -1   4   1   38.80    5.90
   1   4  -1   41.20    7.00
  -1   4   1   49.10    7.30
  -1   4   1   37.30    6.10
   1   4  -1   45.90    6.30
   0  -4  -1   21.60    4.00
   0  -4   1   27.20    4.10
   0   4   1   26.70    6.20
   0   4  -1   33.70    5.90
   0   4   1   19.50    4.50
   0   4   1   31.30    5.60
   0   4  -1   24.00    6.10
  -1  -4  -1  105.59    6.50
   1  -4   1  111.19    7.30
   1   4   1  107.39   10.70
   1   4   1  109.59    8.80
  -1   4  -1   85.09   10.20
  -1   4  -1  123.89    9.40
   1   4   1   94.99    8.00
   2  -4   1  133.69    8.80
   2   4   1  127.79   11.20
  -2   4  -1  129.99    9.30
  -2   4  -1  124.19   10.90
   2   4   1  122.99    9.60
   2   4   1  116.79    8.40
   3  -4   1  577.64   27.70
   3   4   1  548.95   26.40
  -3   4  -1  586.84   26.90
  -3   4  -1  564.94   28.00
  -3   4  -1  565.04   28.70
   4  -4   1   33.60    6.00
   4   4   1   29.30    5.70
  -4   4  -1   26.40    6.00
  -4   4  -1   31.30    4.60
  -4   4  -1   31.40    7.80
   5  -4   1  334.57   18.90
   5   4   1  305.37   18.90
  -5   4  -1  313.27   15.50
  -5   4  -1  287.07   17.20
   6  -4   1   82.49   12.10
   6   4   1   52.19    8.60
   7  -4   1   71.59   13.30
   7   4   1   35.90    8.20
   8   4   1   85.89   13.40
   9  -4   1  276.37   22.50
   9   4   1  209.18   19.70
   7  -5  -1    8.60    7.60
   7   5  -1   12.90    9.90
   6  -5  -1   21.30    7.00
  -6   5   1   29.70    6.00
   6   5  -1   14.10    8.40
   5  -5  -1   31.10    6.90
   5   5  -1   15.50    7.50
  -5   5   1   21.60    5.60
  -5   5   1   13.70   10.30
   4  -5  -1   49.99    9.20
   4   5  -1   76.19   10.20
  -4   5   1   62.69   11.40
   3  -5  -1   42.80    7.80
   3   5  -1   46.50    7.80
  -3   5   1   52.69    7.30
  -2   5   1    6.30    4.80
   2   5  -1   10.60    5.60
   1  -5  -1  110.29    8.40
  -1   5   1   86.49   10.90
  -1   5   1  108.09   10.10
   1   5  -1  129.29   10.90
   0   5   1  187.48   15.00
   0   5   1  224.58   14.80
   0   5  -1  223.78   14.90
  -1  -5  -1   45.30    5.50
   1  -5   1   53.29    6.60
   1   5   1   49.50    7.60
  -1   5  -1   72.59    8.90
  -1   5  -1   47.90    9.50
   2  -5   1  137.29    9.80
  -2   5  -1  104.69   15.80
   2   5   1  132.19   11.40
  -2   5  -1  121.59   11.10
   2   5   1  108.69   11.60
   3  -5   1   76.39    9.30
  -3   5  -1   76.49   11.10
  -3   5  -1   88.99    8.90
   3   5   1   95.79   10.70
   4  -5   1   89.39   10.10
   4   5   1   86.89   10.90
  -4   5  -1   63.49   10.60
  -4   5  -1   65.59    8.40
   5  -5   1   66.39   11.10
  -5   5  -1   52.89    7.70
   5   5   1   66.39   11.40
   6  -5   1   26.10    8.30
   6   5   1   28.50    8.80
   7  -5   1   13.30    8.90
   7   5   1   15.70    9.10
   4  -6  -1   26.70    7.30
  -4   6   1   16.30    6.90
   3  -6  -1   11.30    6.10
  -3   6   1    4.30    7.20
   3   6  -1   24.60    8.60
   2  -6  -1    4.40    5.50
  -2   6   1    5.30    6.60
   2   6  -1   14.00    8.40
   1  -6  -1    8.50    5.10
   1   6  -1    9.90    8.30
  -1   6   1    8.10    6.70
   0  -6  -1   26.80    5.30
   0   6   1   27.40    8.40
   0   6  -1   35.70    8.40
   1  -6   1   17.70    5.60
  -1  -6  -1   24.20    4.90
   1   6   1   21.50    8.30
  -1   6  -1   14.20    8.10
   2  -6   1    3.70    5.70
   2   6   1    9.30    7.70
  -2   6  -1   13.90    7.00
   3  -6   1    6.20    6.40
   3   6   1   20.70    8.30
  -3   6  -1   -2.60    6.80
  12   0  -2  219.08   19.00
  11   0  -2   89.89   11.70
 -11   0   2   73.39   12.50
 -10   0   2    4.80    5.80
  10   0  -2   10.60    5.30
  10   0  -2    5.40    5.10
  -9   0   2   31.50    5.70
  -9   0   2   26.80    6.60
   9   0  -2   23.30    4.90
  -8   0   2  147.49   10.40
   8   0  -2  159.98   10.40
  -8   0   2  143.19   11.10
  -7   0   2    8.10    3.70
  -7   0   2   21.60    3.80
   7   0  -2   15.30    3.20
   7   0  -2   16.30    3.10
   6   0  -2  213.98   12.00
  -6   0   2  232.78   11.90
  -6   0   2  223.78   12.20
   5   0  -2    3.70    1.90
  -5   0   2    5.70    2.30
  -5   0   2    4.40    2.10
   5   0  -2    7.70    1.90
   4   0  -2   15.60    2.30
   4   0  -2   16.30    2.70
  -4   0   2   14.60    2.50
  -4   0   2   13.80    2.30
   3   0  -2   20.20    2.20
  -3   0   2   13.90    2.40
  -3   0   2   14.50    2.40
   3   0  -2   13.80    2.00
   2   0  -2  594.34   26.70
  -2   0   2  623.84   26.80
  -1   0   2   30.10    1.80
   1   0  -2   28.10    1.80
  -1   0   2   31.40    2.10
   1   0  -2   35.90    2.20
   0   0   2  675.83   30.10
   0   0  -2  727.73   30.30
   0   0   2  701.23   30.20
  -1   0  -2    7.10    1.00
  -1   0  -2    6.70    1.10
   1   0   2    7.00    0.90
   1   0   2    5.60    0.90
   2   0   2 4440.86  193.18
   2   0   2 4600.94  193.08
   3   0   2   27.00    2.80
   3   0   2   30.20    2.60
   4   0   2  383.26   18.10
   5   0   2   32.60    4.40
   6   0   2   -2.40    2.80
   7   0   2   27.90    5.30
   7   0   2   27.40    5.30
   9   0   2    3.20    5.10
  10   0   2   66.29   10.80
 -11  -1   2    8.70    8.10
  11  -1  -2   17.70    8.50
  11   1  -2   18.20    6.70
 -10  -1   2   27.40    7.20
  10   1  -2   33.70    6.30
 -10   1   2   30.30    6.60
  10   1  -2   24.40    6.60
   9  -1  -2  133.99   11.10
  -9  -1   2  130.29   11.30
   9  -1  -2  110.99    8.70
   9   1  -2   99.49    8.50
  -9   1   2   99.69    9.10
   9   1  -2  112.39    9.80
  -8  -1   2   15.10    4.70
   8  -1  -2   15.30    3.60
  -8   1   2    5.60    5.60
  -8   1   2   11.60    3.80
   8   1  -2   17.50    4.50
   7  -1  -2   20.30    3.30
  -7  -1   2   23.20    4.60
  -7  -1   2   23.80    3.70
  -7   1   2   20.60    5.20
   7   1  -2   26.50    4.60
  -7   1   2   21.80    3.80
   6  -1  -2   14.30    2.80
  -6  -1   2   13.30    3.60
  -6  -1   2   18.50    2.90
  -6   1   2   14.20    4.00
   6   1  -2   22.30    3.70
   6   1  -2   15.40    3.40
  -6   1   2   18.10    3.10
   5  -1  -2  692.93   29.30
  -5  -1   2  639.24   30.20
  -5  -1   2  618.74   29.20
   5  -1  -2  636.64   30.40
   5   1  -2  649.14   29.70
  -5   1   2  666.23   30.60
   5   1  -2  694.43   29.90
   4  -1  -2  539.35   25.90
   4  -1  -2  574.24   24.90
  -4  -1   2  545.25   25.80
  -4   1   2  565.84   26.10
  -4   1   2  578.24   25.00
  -3  -1   2 1154.08   51.99
   3  -1  -2 1185.58   51.29
   3  -1  -2 1104.29   51.99
   3   1  -2 1196.98   51.79
  -3   1   2 1325.67   51.39
  -3   1   2 1145.19   52.19
  -2  -1   2   48.80    3.70
   2  -1  -2   48.60    3.10
   2  -1  -2   45.30    3.50
  -2   1   2   56.79    3.10
  -2   1   2   46.60    3.70
   2   1  -2   48.30    3.60
   1  -1  -2  664.03   30.10
   1  -1  -2  691.83   30.20
  -1  -1   2  677.43   30.30
  -1   1   2  719.23   30.10
  -1   1   2  698.33   30.30
   1   1  -2  677.63   30.30
   0  -1  -2  844.92   34.30
   0  -1  -2  787.52   34.60
   0  -1   2  720.13   34.40
   0   1   2  810.42   34.30
   0   1   2  811.62   34.60
   0   1  -2  773.02   34.40
  -1  -1  -2 3792.12  158.58
  -1  -1  -2 3937.31  158.38
   1  -1   2 3373.46  157.88
  -1   1  -2 3429.46  157.78
   1   1   2 3853.41  158.28
  -1   1  -2 3764.22  158.38
   1   1   2 3769.32  158.48
  -2  -1  -2  373.66   17.10
  -2  -1  -2  388.46   16.40
   2  -1   2  349.07   17.00
   2   1   2  358.96   17.00
   2   1   2  385.66   16.30
  -2   1  -2  354.16   17.00
   3  -1   2  650.03   30.70
  -3  -1  -2  689.83   30.00
   3   1   2  648.64   30.40
   3   1   2  697.93   30.60
  -3   1  -2  669.93   30.60
   3   1   2  721.73   29.80
   4  -1   2  209.68   11.50
   4   1   2  218.48   10.30
   4   1   2  208.18   11.10
   4   1   2  208.88   11.00
  -4   1  -2  226.78   11.50
   4   1   2  218.38   10.90
   5  -1   2  271.47   14.70
   5   1   2  273.97   14.00
  -5   1  -2  289.47   14.70
   5   1   2  267.17   13.90
   5   1   2  287.17   13.30
   6   1   2   78.09    6.40
  -6   1  -2   89.09    7.40
   6   1   2   73.49    6.30
   6   1   2   77.29    5.60
   6   1   2   79.89    6.50
   7  -1   2   40.70    6.60
   7   1   2   48.90    7.00
  -7   1  -2   49.00    7.40
   7   1   2   49.99    5.40
   7   1   2   46.50    6.10
   7   1   2   47.00    6.10
   8   1   2   98.19    8.70
   8   1   2  108.49    8.70
   8   1   2  119.39   10.20
   8   1   2  105.49    8.20
   9   1   2  264.37   14.80
   9   1   2  262.37   17.40
   9   1   2  269.77   15.30
  10   1   2   35.40    6.20
  10   1   2   48.10    8.50
  11  -1   2   23.30    7.10
  11   1   2   21.00    8.30
 -11  -2   2    8.80    8.60
  11  -2  -2   20.30    9.80
  10  -2  -2  148.79   16.50
 -10  -2   2  126.29   13.40
  10   2  -2  106.79    9.40
  -9  -2   2    3.40    6.20
   9  -2  -2   17.80    6.70
   9   2  -2   -0.40    3.20
   8  -2  -2   38.20    6.30
  -8  -2   2   29.50    6.70
   8  -2  -2   54.59    9.50
   8   2  -2   35.20    5.60
   8   2  -2   35.70    6.60
  -8   2   2   23.80    4.70
  -7  -2   2  156.48   11.70
   7  -2  -2  173.08   12.20
   7  -2  -2  156.48    9.60
   7   2  -2  151.58   11.30
  -7   2   2  164.58   12.80
   6  -2  -2   49.00    5.20
   6  -2  -2   56.79    7.10
  -6  -2   2   59.29    7.20
   6   2  -2   60.19    6.60
  -6   2   2   52.99    5.10
   5  -2  -2  254.67   14.30
  -5  -2   2  251.07   14.40
   5   2  -2  241.18   14.00
  -5   2   2  261.47   12.80
  -5   2   2  295.67   14.80
   4  -2  -2  157.18    9.00
   4  -2  -2  166.98   10.00
  -4  -2   2  176.48   10.30
  -4   2   2  180.08    8.90
  -4   2   2  183.98   10.60
   4   2  -2  168.28   10.00
   3  -2  -2  457.45   21.40
   3  -2  -2  460.25   21.90
  -3  -2   2  455.85   22.20
   3   2  -2  478.95   22.10
  -3   2   2  483.45   21.10
  -3   2   2  451.15   22.20
  -2  -2   2   33.20    4.10
   2  -2  -2   32.80    3.40
   2  -2  -2   30.80    3.20
  -2   2   2   32.90    2.90
   2   2  -2   28.30    3.90
  -2   2   2   31.20    3.70
  -1  -2   2   14.30    2.60
   1  -2  -2   15.90    2.40
   1  -2  -2   15.40    2.40
  -1   2   2   16.20    2.80
   1   2  -2   15.30    2.70
  -1   2   2   15.40    2.50
   0  -2  -2   59.39    4.60
   0  -2   2   57.09    4.40
   0  -2  -2   55.69    3.60
   0   2   2   58.39    3.90
   0   2   2   53.69    4.30
   0   2  -2   58.69    4.60
   1  -2   2  681.13   29.80
  -1  -2  -2  641.44   30.50
  -1  -2  -2  674.13   29.10
  -1   2  -2  642.44   29.70
  -1   2  -2  699.93   29.90
   1   2   2  660.33   29.30
   1   2   2  664.23   30.30
  -1   2  -2  661.83   29.80
   2  -2   2  449.36   20.70
  -2  -2  -2  433.06   21.10
  -2  -2  -2  455.25   19.70
   2   2   2  453.35   19.80
   2   2   2  434.76   21.00
  -2   2  -2  447.66   20.80
  -2   2  -2  413.66   20.10
  -2   2  -2  456.85   20.10
   3  -2   2   28.00    3.80
  -3  -2  -2   34.60    2.90
   3   2   2   33.50    2.80
  -3   2  -2   32.20    4.60
   3   2   2   27.20    4.00
   3   2   2   35.90    4.90
  -4  -2  -2   11.20    2.10
  -4   2  -2    9.30    3.30
   4   2   2    6.40    3.20
   4   2   2   10.80    1.80
   4   2   2    7.20    2.90
   5   2   2  181.58   11.20
   5   2   2  195.18    9.40
  -5   2  -2  183.58   11.60
   5   2   2  189.98   12.10
   6   2   2   92.19    5.80
   6   2   2   86.49    7.10
   6   2   2   96.19    9.20
  -6   2  -2   68.39    8.20
   6   2   2   84.39    7.70
   7   2   2    7.60    3.80
   7   2   2    6.20    2.70
   7   2   2    5.50    4.80
   7   2   2    1.60    3.70
   8  -2   2   18.60    5.10
   8   2   2   26.60    4.10
   8   2   2   35.90    6.30
   8   2   2   32.90    5.80
   8   2   2   31.00    6.30
   9  -2   2   71.69    9.20
   9   2   2   55.29    7.70
   9   2   2   89.89   11.10
   9   2   2   57.89   10.70
  10  -2   2   92.59   11.40
  10   2   2   73.79   11.20
  10   2   2  104.59   14.60
  10  -3  -2   22.10    9.30
  10   3  -2    5.90    9.20
   9  -3  -2   75.79   13.70
  -8  -3   2   26.80    7.20
  -8   3   2   16.00    4.70
  -7  -3   2   10.00    5.20
   7  -3  -2   11.60    5.30
   7  -3  -2   -0.40    4.60
  -7   3   2   16.30    3.90
   6  -3  -2   46.20    6.80
   6  -3  -2   49.60    8.70
  -6   3   2   53.19    5.40
   6   3  -2   51.49    8.60
   5  -3  -2  123.99    9.10
   5  -3  -2  136.29   10.10
  -5  -3   2  144.69   10.50
  -5   3   2  142.79   11.30
  -5   3   2  127.39    8.10
   5   3  -2  127.09   10.40
  -4  -3   2  332.17   17.90
   4  -3  -2  303.87   16.70
   4  -3  -2  336.17   17.30
  -4   3   2  331.67   18.30
   4   3  -2  344.67   17.90
  -4   3   2  331.87   16.00
   3  -3  -2   62.19    5.50
   3  -3  -2   59.59    6.20
  -3   3   2   42.60    6.50
  -3   3   2   58.09    4.80
   3   3  -2   56.59    6.60
   2  -3  -2  694.93   31.70
   2  -3  -2  687.93   32.30
  -2   3   2  697.93   31.70
   2   3  -2  707.83   32.70
  -2   3   2  687.63   32.30
   1  -3  -2   45.60    5.30
   1  -3  -2   36.50    4.00
  -1   3   2   38.60    4.40
   1   3  -2   42.30    6.00
  -1   3   2   35.50    4.70
   1   3  -2   40.40    5.10
   0  -3  -2 1173.58   54.49
   0  -3  -2 1232.08   53.09
   0   3   2 1229.98   53.79
   0   3   2 1217.08   54.29
   0   3  -2 1210.68   54.29
   0   3  -2 1229.98   54.29
  -1  -3  -2   14.90    2.60
  -1  -3  -2   20.00    3.80
   1  -3   2   21.10    3.70
  -1   3  -2   17.10    3.80
  -1   3  -2   18.60    3.30
   1   3   2   21.00    3.50
   1   3   2   17.60    3.40
  -2  -3  -2  343.87   15.60
   2  -3   2  346.67   17.00
  -2   3  -2  355.26   17.30
  -2   3  -2  345.37   16.60
   2   3   2  332.87   18.10
   2   3   2  323.07   16.00
   2   3   2  331.97   17.40
   3  -3   2   49.60    5.80
  -3  -3  -2   41.10    3.50
   3   3   2   38.50    5.40
   3   3   2   43.30    3.90
  -3   3  -2   52.79    7.20
  -3   3  -2   28.20    5.40
   3   3   2   38.20    6.70
  -3   3  -2   34.50    4.30
   4  -3   2  331.77   16.90
  -4  -3  -2  305.07   14.50
  -4   3  -2  301.47   16.90
   4   3   2  285.17   16.40
   4   3   2  299.37   14.40
   4   3   2  272.67   16.80
  -5  -3  -2  174.78    9.60
   5  -3   2  189.08   11.90
   5   3   2  162.18   11.40
  -5   3  -2  149.39   12.60
   5   3   2  163.38   13.10
   5   3   2  165.58    9.10
   6   3   2   71.89    8.50
   6   3   2   80.59   12.10
   6   3   2   81.59    7.80
   6   3   2   81.89    6.20
   7   3   2    4.60    3.20
   7   3   2   -1.40    4.40
   7   3   2   -6.70    4.60
   8  -3   2   63.39   10.90
   9   3   2   43.90    8.60
   9   3   2   61.89    9.20
  10  -3   2   42.90    9.90
  10   3   2   35.10    9.10
  10   3   2   41.70   10.00
   9  -4  -2  129.29   16.90
   9   4  -2  130.39   17.80
   8  -4  -2   46.00    9.20
   8   4  -2   77.69   14.20
   7  -4  -2  197.28   15.70
   7  -4  -2  220.88   15.80
  -7   4   2  198.18   12.70
   7   4  -2  224.08   16.70
   6  -4  -2   15.20    5.50
   6  -4  -2   18.00    7.00
   6   4  -2   21.40    6.70
  -6   4   2   17.80    4.50
   5  -4  -2   41.00    7.50
   5  -4  -2   56.49    9.80
  -5   4   2   48.30    5.70
   5   4  -2   52.69    8.90
   4  -4  -2    6.40    5.50
   4   4  -2    3.60    4.70
  -4   4   2    2.10    3.10
   3  -4  -2  526.55   25.20
   3  -4  -2  518.95   26.40
  -3   4   2  502.25   26.80
   3   4  -2  516.65   26.90
  -3   4   2  522.75   25.00
   2  -4  -2   -1.30    4.80
   2  -4  -2    0.40    2.90
   2   4  -2    4.80    4.20
  -2   4   2   -1.20    3.10
   2   4  -2    6.40    5.20
   1  -4  -2  102.99    7.10
   1  -4  -2  100.79    9.80
  -1   4   2   92.49    8.90
   1   4  -2  109.09    9.30
  -1   4   2  105.99    8.20
   1   4  -2  106.59   10.90
   0  -4  -2    2.20    2.40
   0   4  -2   -2.80    3.50
   0   4   2   -4.50    3.60
   0   4  -2    3.60    5.10
   0   4   2   -0.30    3.30
   1  -4   2   12.60    3.40
  -1  -4  -2   11.60    2.60
  -1   4  -2   20.80    4.80
   1   4   2   17.20    3.80
   1   4   2   10.70    5.60
   1   4   2   14.10    4.00
  -1   4  -2   16.60    5.70
   2  -4   2    6.60    3.30
  -2  -4  -2    2.50    2.10
   2   4   2    4.60    5.60
   2   4   2    5.30    3.40
  -2   4  -2    4.50    3.70
  -2   4  -2    6.70    5.40
   2   4   2    0.20    3.70
   3  -4   2   96.39    8.90
  -3   4  -2   80.29    9.60
   3   4   2   70.89    7.10
   3   4   2   82.49    8.10
  -3   4  -2   74.49    7.00
  -3   4  -2   82.39   11.30
   4  -4   2  134.29   11.60
  -4   4  -2  137.19    8.70
  -4   4  -2  120.49   10.80
   4   4   2  131.29    8.90
  -4   4  -2  136.09   13.70
   4   4   2  138.69   10.80
  -5  -4  -2   25.10    4.30
   5  -4   2   29.40    6.60
   5   4   2   17.50    4.00
   5   4   2   19.50    5.50
  -6  -4  -2   62.49    7.40
   6  -4   2   89.09   12.50
   6   4   2   71.99   10.20
   6   4   2   57.29    7.60
   7  -4   2   84.39   10.70
   7   4   2   75.29   11.50
   7   4   2   81.79    9.70
   7   4   2   61.79    8.50
   8  -4   2  124.39   18.60
   8   4   2  165.08   14.00
   8   4   2  150.88   15.70
   7  -5  -2   21.90    7.90
   7   5  -2   10.00   10.00
   6  -5  -2   19.50    7.00
  -6   5   2   18.70    5.90
   6   5  -2    8.40    8.20
   5  -5  -2   23.40    6.50
   5   5  -2   33.80    8.00
  -5   5   2   47.30    8.10
   4  -5  -2   91.09    9.80
  -4   5   2   88.19    8.60
   4   5  -2   89.19   12.30
   3  -5  -2   41.10    7.60
   3   5  -2   32.70    7.50
  -3   5   2   36.70    6.20
   2  -5  -2   25.50    4.80
  -2   5   2   18.30    5.10
   2   5  -2   12.70    6.20
  -1   5   2   16.00    4.90
   1   5  -2   13.30    5.70
   0  -5  -2  298.57   15.70
   0   5  -2  328.57   18.40
   0   5   2  283.87   18.90
   0   5   2  316.17   18.10
  -1  -5  -2    0.80    3.00
   1   5   2    0.80    5.30
   1   5   2    9.30    6.10
   2  -5   2   24.40    4.90
  -2  -5  -2   22.90    3.80
  -2   5  -2   19.10    6.10
   2   5   2   29.20    6.50
   2   5   2   26.10    6.00
  -2   5  -2   30.80    9.30
   3  -5   2   93.69   10.60
  -3  -5  -2   77.69    7.00
   3   5   2   94.59   11.20
   3   5   2   88.29   10.50
  -3   5  -2  113.49    9.50
  -3   5  -2   89.59   15.20
  -4  -5  -2   87.09    7.30
   4  -5   2   81.79   10.50
  -4   5  -2   85.49   15.00
  -4   5  -2   82.49    8.70
   4   5   2   76.59   10.60
   4   5   2   83.29   11.50
   5  -5   2  181.18   15.60
   5   5   2  187.68   15.50
  -5   5  -2  167.18   11.60
   5   5   2  154.58   14.00
   6  -5   2   30.40    8.90
   6   5   2   35.10    9.10
   7  -5   2   32.00   10.20
   7   5   2   33.40   10.00
   4  -6  -2    4.80    6.70
  -4   6   2   -3.00    6.50
   4   6  -2   22.70   10.30
   3  -6  -2   39.20    7.40
   3   6  -2   51.59   10.90
  -3   6   2   55.09   10.30
   2  -6  -2    2.90    5.60
  -2   6   2   14.30    7.50
   2   6  -2   21.50    8.50
   1  -6  -2    2.80    5.00
   1   6  -2    3.00    7.70
  -1   6   2   11.80    7.00
   0  -6  -2    9.70    5.10
   0   6   2   28.00    7.70
   0   6  -2    5.00    7.70
  -1  -6  -2   14.80    4.90
  -1   6  -2   12.50    8.20
   1   6   2    8.10    7.30
   2  -6   2   16.70    6.10
  -2  -6  -2   21.40    4.70
   2   6   2    8.00    8.70
  -2   6  -2    8.90    7.60
  -3  -6  -2   21.60    5.30
   3  -6   2   22.00    7.10
   3   6   2   11.10    9.00
  -3   6  -2   31.80    7.90
  12   0  -3  103.99   18.30
  11   0  -3   28.80    7.90
 -10   0   3   35.40    7.50
  10   0  -3   33.00    6.30
  -9   0   3  141.29   10.80
  -9   0   3  128.19   11.80
   9   0  -3  121.59    9.60
  -8   0   3  525.25   27.60
   8   0  -3  598.54   27.90
  -8   0   3  601.64   27.50
   8   0  -3  550.54   26.40
  -7   0   3   18.80    4.00
   7   0  -3   17.00    3.20
  -7   0   3   14.90    4.20
  -6   0   3  564.54   27.80
  -6   0   3  580.04   27.40
   6   0  -3  583.64   27.70
   6   0  -3  648.24   27.10
   5   0  -3   -0.40    1.70
  -5   0   3   -1.30    2.00
  -5   0   3    0.50    2.50
  -4   0   3 1347.17   59.69
   4   0  -3 1265.67   59.39
  -4   0   3 1476.15   59.49
  -3   0   3  339.07   17.20
  -3   0   3  399.56   17.20
   3   0  -3  432.46   17.10
   3   0  -3  325.47   16.90
  -2   0   3  164.68    8.60
  -2   0   3  189.18    8.80
   2   0  -3  193.28    8.80
  -1   0   3   14.90    1.80
  -1   0   3   10.60    1.30
   1   0  -3    9.90    1.80
   1   0  -3   10.10    1.10
   0   0   3 1276.27   54.69
   0   0  -3 1200.68   54.49
   0   0   3 1275.67   54.49
   0   0  -3 1339.57   54.79
   1   0   3    0.20    0.60
  -1   0  -3    0.30    0.70
   1   0   3   -0.20    0.70
  -1   0  -3    0.00    0.70
   2   0   3 1960.40   83.69
  -2   0  -3 1957.00   83.89
   2   0   3 1955.00   84.09
   3   0   3  110.69    6.30
   4   0   3   37.40    3.90
   4   0   3   42.40    3.60
   5   0   3  109.19    6.70
   5   0   3  104.29    7.30
   6   0   3  203.58   11.90
   6   0   3  200.08   11.10
   7   0   3   38.50    6.00
   7   0   3   39.60    5.70
   8   0   3  114.19   10.60
   9   0   3    1.20    5.60
  11   0   3   97.49   14.90
 -11  -1   3   25.60    9.00
  11  -1  -3   49.20    9.70
 -10  -1   3  200.48   15.40
  10  -1  -3  211.68   16.90
 -10   1   3  180.88   13.50
  10   1  -3  193.18   14.70
   9  -1  -3  104.29    8.80
  -9  -1   3   99.29   10.90
   9  -1  -3  135.29   12.30
   9   1  -3  105.09    9.30
   9   1  -3  113.59    9.50
  -9   1   3  107.29    9.60
  -8  -1   3  206.08   11.80
  -8  -1   3  200.98   13.20
   8  -1  -3  219.48   13.60
   8  -1  -3  194.48   11.20
  -8   1   3  185.28   11.70
   8   1  -3  209.28   11.90
  -8   1   3  163.88   13.60
   8   1  -3  198.98   12.00
  -7  -1   3   26.50    4.60
  -7  -1   3   30.40    5.30
   7  -1  -3   44.70    6.70
   7  -1  -3   27.50    4.60
   7   1  -3   38.90    5.00
  -7   1   3   22.30    4.20
  -7   1   3   28.50    5.40
   7   1  -3   27.00    4.90
   6  -1  -3  116.39    7.10
  -6  -1   3  111.59    7.10
   6  -1  -3  113.79    8.50
  -6  -1   3  114.39    8.40
   6   1  -3  102.59    7.20
   6   1  -3  123.99    8.00
  -6   1   3  109.49    7.30
  -6   1   3  140.39    9.20
  -5  -1   3  199.08   11.30
   5  -1  -3  194.18   11.40
  -5   1   3  189.68   10.50
   5   1  -3  219.88   11.10
  -5   1   3  232.88   11.80
   4  -1  -3  506.65   23.20
   4  -1  -3  483.75   24.00
  -4  -1   3  505.75   24.00
  -4   1   3  512.75   24.40
  -4   1   3  523.75   23.40
   4   1  -3  573.44   23.90
   3  -1  -3  865.31   37.80
   3  -1  -3  800.92   38.20
  -3  -1   3  871.21   38.40
   3   1  -3  922.31   38.30
  -3   1   3  897.71   37.90
  -3   1   3  818.92   38.40
   2  -1  -3  465.15   21.90
  -2  -1   3  464.25   22.00
   2  -1  -3  482.15   21.70
  -2   1   3  479.05   22.10
  -2   1   3  527.45   21.80
   2   1  -3  496.65   22.00
   1  -1  -3  211.78   10.00
  -1  -1   3  206.88   10.10
   1  -1  -3  207.58    9.80
  -1   1   3  206.88    9.90
   1   1  -3  208.58   10.10
  -1   1   3  214.68   10.00
   0  -1  -3  116.29    5.40
   0  -1  -3  104.79    5.70
   0   1   3  111.09    5.40
   0   1   3  108.29    5.70
   0   1  -3   96.99    5.60
   1  -1   3  594.64   27.30
  -1  -1  -3  619.84   27.60
  -1  -1  -3  664.43   27.00
   1  -1   3  567.54   26.90
   1   1   3  653.23   27.00
  -1   1  -3  612.54   27.20
   1   1   3  620.74   27.50
  -2  -1  -3  266.97   12.00
   2  -1   3  243.88   12.50
  -2  -1  -3  266.47   12.70
  -2   1  -3  254.07   12.50
   2   1   3  261.87   12.50
   2   1   3  273.27   11.90
  -3  -1  -3 1129.69   49.70
  -3  -1  -3 1198.58   50.29
   3  -1   3 1078.29   50.29
  -3   1  -3 1137.49   50.29
   3   1   3 1197.08   49.50
   3   1   3 1106.99   49.99
   4  -1   3   62.39    5.50
  -4   1  -3   69.39    5.40
   4   1   3   69.89    4.80
   4   1   3   63.99    4.20
   4   1   3   66.79    5.50
   5  -1   3  118.69    8.50
   5   1   3  126.89    7.90
   5   1   3  127.79    7.60
   5   1   3  125.39    7.00
  -5   1  -3  128.59    8.30
   6  -1   3   44.70    6.20
   6   1   3   39.20    4.40
  -6   1  -3   51.29    6.30
   6   1   3   46.70    5.90
   6   1   3   47.10    5.70
   6   1   3   45.90    4.90
   7  -1   3  188.78   13.00
   7   1   3  220.48   13.00
   7   1   3  201.78   11.30
  -7   1  -3  213.08   13.10
   7   1   3  202.88   11.50
   7   1   3  200.88   11.80
   8   1   3  147.09   10.20
   8   1   3  168.58   12.40
   8   1   3  158.58   10.10
   9   1   3   40.50    7.00
   9   1   3   44.30    8.10
   9   1   3   43.60    7.50
  10  -1   3   -6.00    6.30
  10   1   3   25.40    8.50
  11   1   3   64.99   11.90
  11  -2  -3   22.60    9.40
 -11  -2   3    9.20    8.30
  11   2  -3    7.10    7.10
 -10  -2   3   44.40    9.50
  10  -2  -3   55.99    9.60
  -9  -2   3   65.39   10.80
   9  -2  -3   52.49    8.20
  -9   2   3   39.60    6.20
   8  -2  -3   27.50    5.10
   8  -2  -3   42.50    6.80
   8   2  -3   42.40    7.50
  -8   2   3   29.30    5.20
   7  -2  -3   45.80    6.00
  -7  -2   3   60.29    8.10
   7  -2  -3   60.69    7.70
  -7   2   3   36.20    5.60
  -7   2   3   73.39    9.60
   7   2  -3   55.39    8.00
   6  -2  -3   36.40    6.10
  -6  -2   3   36.30    6.40
   6  -2  -3   27.20    4.80
  -6   2   3   28.30    4.70
   6   2  -3   35.30    6.30
  -5  -2   3  160.68   10.40
   5  -2  -3  156.28    9.20
  -5   2   3  159.28    9.00
  -5   2   3  180.28   11.00
   5   2  -3  161.28    9.90
   4  -2  -3   70.79    5.30
  -4  -2   3   69.49    6.40
   4  -2  -3   70.49    5.90
  -4   2   3   60.49    6.40
   4   2  -3   73.69    5.90
  -4   2   3   77.69    5.10
   3  -2  -3  236.48   12.10
  -3  -2   3  234.48   12.80
   3  -2  -3  240.88   12.40
   3   2  -3  251.77   12.70
  -3   2   3  241.28   12.80
  -3   2   3  243.68   11.70
  -2  -2   3  503.15   23.90
   2  -2  -3  505.25   23.40
   2  -2  -3  497.95   23.50
   2   2  -3  512.95   23.70
  -2   2   3  516.95   23.80
  -2   2   3  523.15   23.20
   1  -2  -3  240.68   12.70
   1  -2  -3  265.57   12.30
  -1  -2   3  251.77   12.80
  -1   2   3  266.07   12.60
  -1   2   3  259.47   12.50
   1   2  -3  249.48   13.10
   0  -2  -3  173.18    8.00
   0  -2   3  153.78    8.60
   0  -2  -3  152.68    8.70
   0   2   3  163.98    8.70
   0   2  -3  159.88    8.70
  -1  -2  -3  231.68   11.90
   1  -2   3  215.28   11.10
   1   2   3  232.98   11.70
  -1   2  -3  214.18   11.10
  -1   2  -3  235.68   11.20
   2  -2   3  485.35   22.40
  -2  -2  -3  497.95   21.40
  -2  -2  -3  480.25   22.90
   2   2   3  498.35   21.60
  -2   2  -3  443.66   21.50
  -2   2  -3  496.05   22.40
   2   2   3  459.25   22.50
  -3  -2  -3  748.73   31.80
   3  -2   3  671.63   32.80
   3   2   3  753.32   31.80
  -3   2  -3  720.83   32.90
   3   2   3  701.13   32.90
  -4  -2  -3   76.29    5.20
   4   2   3   80.09    6.30
   4   2   3   81.49    4.80
  -4   2  -3   67.99    6.90
   4   2   3   84.69    7.50
  -5  -2  -3  192.78   10.00
   5  -2   3  158.98   10.80
   5   2   3  174.58   11.80
   5   2   3  192.88    9.30
   5   2   3  186.58   10.90
  -5   2  -3  185.28   11.70
   6  -2   3  130.99    9.80
   6   2   3  162.18   10.00
   6   2   3  151.98    8.40
   6   2   3  155.98   11.70
  -6   2  -3  158.28   11.60
   6   2   3  150.68   10.10
   7  -2   3   28.00    5.00
   7   2   3   20.50    3.60
   7   2   3   20.50    4.50
   7   2   3   24.20    6.30
   7   2   3   16.40    4.40
   8  -2   3   17.60    5.10
   8   2   3   12.60    4.80
   8   2   3   12.30    6.00
   9   2   3   88.69   11.90
   9   2   3   78.69    9.60
   9   2   3   55.49    8.80
  10  -2   3   21.10    6.60
  10   2   3   32.10    7.10
  10   2   3   24.10    8.90
 -10  -3   3   32.50    9.20
  10  -3  -3   19.90    8.80
  -9  -3   3   15.50    7.50
   9  -3  -3   12.40    7.10
   8  -3  -3   10.10    5.90
   8  -3  -3   23.90    6.50
  -8  -3   3   15.20    6.80
  -8   3   3    8.60    4.70
  -7  -3   3   49.50    8.00
   7  -3  -3   60.39    8.70
   7  -3  -3   54.79    8.90
  -7   3   3   61.29    6.70
   6  -3  -3    4.90    4.20
   6  -3  -3   10.10    4.50
  -6   3   3    6.70    3.10
  -5  -3   3   71.79    8.60
   5  -3  -3   80.69    7.50
   5  -3  -3   67.59    7.30
   5   3  -3   72.69    8.10
  -5   3   3   75.89    6.20
   4  -3  -3   62.59    6.00
  -4  -3   3   59.79    7.50
   4  -3  -3   59.09    6.60
  -4   3   3   54.19    7.50
  -4   3   3   65.69    5.00
   4   3  -3   63.89    7.30
  -3  -3   3    9.20    4.00
   3  -3  -3    9.50    3.40
   3   3  -3   10.80    3.80
  -3   3   3    9.20    3.60
  -3   3   3    9.00    2.40
   2  -3  -3   63.39    6.40
  -2  -3   3   70.49    6.60
   2  -3  -3   72.69    5.50
  -2   3   3   62.49    5.40
  -2   3   3   60.19    6.20
   2   3  -3   74.49    6.80
   1  -3  -3   83.69    7.00
  -1  -3   3   82.09    6.60
   1  -3  -3   81.99    5.50
  -1   3   3   83.09    6.60
  -1   3   3   83.49    6.20
   1   3  -3   80.69    7.30
   0  -3  -3  367.16   19.10
   0  -3  -3  395.76   17.70
   0   3  -3  386.96   19.00
   0   3  -3  379.46   18.90
   0   3   3  379.56   18.90
   0   3   3  369.26   18.30
   1  -3   3   52.29    4.70
  -1  -3  -3   36.70    3.20
  -1  -3  -3   37.10    5.60
  -1   3  -3   49.20    5.50
   1   3   3   37.30    4.40
   1   3   3   35.40    4.80
  -1   3  -3   49.20    5.30
  -2  -3  -3   94.49    5.30
   2  -3   3   94.99    7.10
  -2  -3  -3   81.19    7.80
  -2   3  -3   92.29    7.60
   2   3   3   90.09    6.00
  -2   3  -3   87.59    6.50
  -3  -3  -3   70.69    4.70
   3   3   3   64.39    5.00
  -3   3  -3   73.59    5.30
  -3   3  -3   59.59    7.40
   3   3   3   57.09    7.90
   3   3   3   64.39    6.50
  -4  -3  -3   59.19    5.20
   4   3   3   69.09    8.70
   4   3   3   66.79    6.80
  -4   3  -3   59.79    8.40
   4   3   3   55.49    4.90
   5  -3   3  184.28   11.30
  -5  -3  -3  163.58    9.60
   5   3   3  163.78    9.30
  -5   3  -3  161.78   12.90
   5   3   3  172.38   11.30
   5   3   3  140.49   13.10
   6  -3   3  128.29   10.00
   6   3   3  125.99   13.60
   6   3   3  111.49   10.60
   6   3   3  123.29    8.10
   7  -3   3   15.10    5.20
   7   3   3   10.20    5.10
   7   3   3   12.90    5.30
   7   3   3   15.30    4.00
   8  -3   3   19.00    5.60
   8   3   3    6.50    5.80
   8   3   3   11.80    6.00
   9  -3   3  115.39   12.60
   9   3   3  101.59   13.70
   9   3   3  108.89   13.00
   9  -4  -3  170.88   17.60
   9   4  -3  200.68   20.10
   8  -4  -3   92.69   13.00
  -8   4   3  106.89   10.40
   8   4  -3   91.29   15.00
   7  -4  -3   60.19    9.90
   7  -4  -3   73.69   10.70
  -7   4   3   80.09    8.30
   7   4  -3   67.59   12.40
   6  -4  -3   48.60    8.50
   6  -4  -3   53.49    8.50
   6   4  -3   46.90    7.90
  -6   4   3   49.99    7.00
   5  -4  -3  237.88   14.60
   5  -4  -3  227.58   16.00
   5   4  -3  230.98   15.80
  -5   4   3  223.58   12.90
   4  -4  -3   93.29   10.60
   4  -4  -3   91.29    8.30
  -4   4   3   87.89    7.30
   4   4  -3   87.59   10.10
   3  -4  -3  691.33   33.30
   3  -4  -3  710.33   32.10
  -3   4   3  625.74   33.30
  -3   4   3  688.33   31.90
   2  -4  -3   11.60    3.40
   2  -4  -3   12.30    5.70
   2   4  -3   13.70    5.90
  -2   4   3   13.50    3.60
   2   4  -3   14.40    4.50
  -2   4   3    9.00    4.80
   1  -4  -3   72.19    6.10
   1  -4  -3   77.49    9.20
  -1   4   3   59.69    7.80
   1   4  -3   67.89    9.70
   1   4  -3   72.69    8.30
  -1   4   3   77.19    7.10
   0  -4  -3   32.10    4.30
   0  -4  -3   26.80    5.70
   0   4   3   31.70    5.10
   0   4   3   39.20    6.90
   0   4  -3   31.80    5.30
  -1  -4  -3   49.60    4.40
  -1  -4  -3   45.10    8.00
   1   4   3   40.90    6.70
  -1   4  -3   60.29    8.90
   1   4   3   50.99    6.60
  -1   4  -3   54.89    6.90
  -2  -4  -3    1.00    2.30
   2  -4   3    2.90    3.60
   2   4   3    6.20    3.30
  -2   4  -3    1.70    5.30
  -2   4  -3    8.90    5.40
  -2   4  -3    7.60    3.70
  -3  -4  -3   70.69    5.60
   3  -4   3   89.19    9.40
   3   4   3   67.79    7.20
  -3   4  -3   67.49    7.50
  -3   4  -3   70.49    8.90
   3   4   3   72.79    8.10
  -3   4  -3   78.29   10.60
   4  -4   3   28.50    6.00
  -4  -4  -3   24.60    3.80
   4   4   3   19.30    4.10
  -4   4  -3   20.10    4.00
   4   4   3   16.50    5.20
  -4   4  -3   11.90    7.30
  -5  -4  -3   74.19    6.80
   5  -4   3   62.39   11.60
   5   4   3   59.99    7.30
   5   4   3   63.49    9.40
   6  -4   3   19.90    7.90
   6   4   3   17.10    6.20
   7  -4   3  113.49   16.20
   7   4   3  117.89   13.00
   7   4   3   92.19   11.60
   8  -4   3   60.09   11.30
   8   4   3   34.90    8.80
   7  -5  -3   10.40    7.70
  -7   5   3   10.20    6.70
   7   5  -3   17.00    9.50
   6  -5  -3    6.70    6.90
   6   5  -3   19.80    8.90
  -6   5   3   20.50    7.00
   5  -5  -3   59.19    9.80
   5   5  -3   99.69   13.70
  -5   5   3   68.09    8.50
   4  -5  -3   62.39    8.90
  -4   5   3   54.99    7.90
   4   5  -3   79.29   12.80
   3  -5  -3   36.00    5.70
  -3   5   3   38.10    6.00
   3   5  -3   39.40    8.60
   2  -5  -3   56.89    7.40
  -2   5   3   54.19    7.80
   2   5  -3   57.89    8.90
   1  -5  -3   56.09    6.70
   1   5  -3   43.30    7.60
  -1   5   3   54.99    8.40
   0  -5  -3  109.39    8.80
   0   5   3  133.19   10.70
   0   5  -3  123.99   11.60
   1   5   3   58.59   10.80
   1   5   3   56.09    8.90
   2  -5   3   38.10    5.80
  -2   5  -3   26.60    9.10
   2   5   3   30.00    7.20
  -2   5  -3   39.20    6.40
   2   5   3   29.90    7.00
  -2   5  -3   45.30    9.20
  -3   5  -3   13.00   10.20
   3   5   3   17.20    6.00
  -3   5  -3    8.00    5.50
   3   5   3    9.50    6.10
  -3   5  -3   13.00    8.40
  -4  -5  -3  209.18   12.70
   4  -5   3  225.08   16.20
  -4   5  -3  229.58   13.80
   4   5   3  227.68   16.50
   5  -5   3   29.20    8.20
  -5  -5  -3   28.10    5.60
   5   5   3   28.30    8.20
  -6  -5  -3   35.30    6.40
   6  -5   3   27.80    9.20
   6   5   3   29.10    9.00
   3  -6  -3   13.40    6.60
   3   6  -3   21.80    9.60
  -3   6   3   18.40    7.20
   2  -6  -3   15.10    6.20
   2   6  -3   24.50    9.10
   1  -6  -3    1.60    5.30
  -1   6   3    0.80    6.90
   1   6  -3   10.50    8.30
   0  -6  -3   15.20    5.10
   0   6  -3   25.30    8.60
   0   6   3   33.70    8.40
  -1   6  -3   30.30    8.10
   1   6   3   25.50    7.90
   2  -6   3   69.99   10.30
  -2  -6  -3   71.19    7.80
  -2   6  -3   70.39   10.10
   2   6   3   76.49   13.50
   3  -6   3   27.20    7.00
  -3  -6  -3   20.50    5.50
  -3   6  -3   19.80    7.90
  11   0  -4   79.59   15.00
 -10   0   4   63.29   10.70
  10   0  -4   70.69    9.50
  -9   0   4   -6.90    5.20
   9   0  -4   15.90    5.10
   9   0  -4    3.80    4.60
  -9   0   4    2.80    5.00
   8   0  -4   44.30    6.50
  -8   0   4   53.79    8.30
  -8   0   4   61.69    7.70
   7   0  -4  166.88   10.40
  -7   0   4  188.68   11.10
   7   0  -4  202.28   11.40
  -7   0   4  179.48   11.60
   6   0  -4  138.59    8.60
  -6   0   4  132.39    9.10
   6   0  -4  130.79    8.00
  -6   0   4  140.89    8.70
   5   0  -4  314.37   16.10
  -5   0   4  337.27   16.70
  -5   0   4  338.17   16.40
   5   0  -4  347.57   15.90
   4   0  -4  230.08   11.30
  -4   0   4  242.38   11.80
   4   0  -4  210.38   11.20
  -4   0   4  235.18   11.70
   3   0  -4   30.50    2.60
   3   0  -4   29.70    3.00
  -3   0   4   22.40    3.00
  -3   0   4   29.80    3.10
   2   0  -4   98.99    5.30
  -2   0   4   91.79    5.20
   2   0  -4   84.89    4.60
  -2   0   4   86.19    4.90
   1   0  -4  521.75   22.50
  -1   0   4  536.05   23.10
  -1   0   4  480.25   22.60
   1   0  -4  532.85   23.00
   0   0  -4 8855.41  394.26
   0   0   4 8954.20  394.76
   0   0   4 9999.00  394.26
   0   0  -4 9186.58  394.16
  -1   0  -4  539.35   23.60
  -1   0  -4  500.45   23.60
   1   0   4  552.64   23.50
   1   0   4  557.44   23.80
  -2   0  -4  107.29    6.00
   2   0   4  117.69    5.80
  -2   0  -4  118.79    5.90
   3   0   4    2.40    1.40
   3   0   4    1.90    1.60
   4   0   4  843.82   39.10
   4   0   4  902.11   38.70
   5   0   4   38.30    4.30
   5   0   4   39.00    4.90
   6   0   4  187.18   10.40
   6   0   4  177.28   11.40
   7   0   4   33.50    6.00
   7   0   4   28.80    5.50
   8   0   4    1.20    5.10
   9   0   4    8.50    6.70
  10   0   4  235.58   18.60
  11  -1  -4   21.80    8.40
 -11  -1   4   24.00    8.80
  11   1  -4   31.60    8.10
 -11   1   4   11.50    8.20
 -10  -1   4   56.09    8.50
  10  -1  -4   44.60    6.80
  10  -1  -4   59.09    8.80
 -10   1   4   56.99    7.80
  -9  -1   4   50.29    7.80
   9  -1  -4   45.20    7.50
   9  -1  -4   54.79    7.70
   9   1  -4   42.80    7.90
  -9   1   4   48.90    8.10
   8  -1  -4  178.88   12.50
  -8  -1   4  180.88   12.60
   8  -1  -4  162.58   10.60
  -8  -1   4  163.68   10.80
   8   1  -4  210.68   11.50
  -8   1   4  161.88   11.30
   8   1  -4  193.28   11.40
  -8   1   4  164.58   13.90
  -7  -1   4  337.97   17.20
   7  -1  -4  357.06   18.60
   7  -1  -4  343.97   17.30
  -7  -1   4  363.86   18.60
  -7   1   4  343.97   17.80
   7   1  -4  385.46   17.90
  -7   1   4  326.77   19.50
   6  -1  -4   66.09    6.30
  -6  -1   4   69.39    6.50
   6  -1  -4   67.09    5.40
   6   1  -4   64.39    6.00
  -6   1   4   53.09    5.50
   5  -1  -4   47.10    5.00
  -5  -1   4   50.09    5.60
   5  -1  -4   52.49    4.60
  -5   1   4   52.49    4.80
   5   1  -4   53.99    5.10
  -4  -1   4   86.19    6.10
   4  -1  -4   78.79    5.60
   4  -1  -4   77.99    5.10
  -4   1   4   70.89    6.30
  -4   1   4   86.69    5.50
   4   1  -4   95.79    5.80
  -3  -1   4 1764.42   79.29
   3  -1  -4 1790.92   79.09
   3  -1  -4 1752.72   79.19
   3   1  -4 1959.90   79.29
  -3   1   4 1861.41   78.99
  -2  -1   4  381.96   18.40
   2  -1  -4  401.06   18.20
   2  -1  -4  384.96   18.10
  -2   1   4  393.26   18.40
  -2   1   4  420.36   18.30
   2   1  -4  404.46   18.40
   1  -1  -4  131.29    6.70
  -1  -1   4  122.29    6.80
   1  -1  -4  128.69    6.40
  -1   1   4  126.89    6.60
   1   1  -4  121.89    6.70
   0  -1   4  261.57   12.90
   0  -1  -4  287.17   12.70
   0  -1  -4  287.37   13.20
   0   1   4  293.27   13.10
   0   1   4  296.27   12.90
   0   1  -4  254.97   12.90
   1  -1   4 1072.19   49.10
   1  -1   4 1130.39   48.90
  -1  -1  -4 1158.48   49.60
  -1  -1  -4 1205.28   48.90
   1   1   4 1195.38   49.00
   1   1   4 1147.29   49.40
  -1   1  -4 1011.90   48.70
  -2  -1  -4  553.34   24.10
  -2  -1  -4  565.04   24.80
   2  -1   4  530.75   24.30
   2  -1   4  504.95   24.50
   2   1   4  525.25   24.50
   2   1   4  584.14   24.10
  -3  -1  -4  193.28   10.20
  -3  -1  -4  187.28    9.40
   3  -1   4  178.38   10.00
   3   1   4  188.68    9.70
   3   1   4  196.18    9.10
  -4  -1  -4   12.90    2.40
   4  -1   4   15.60    3.40
   4   1   4   12.30    2.00
   4   1   4   14.90    3.30
   4   1   4   12.20    2.50
   5   1   4   61.99    5.00
   5   1   4   50.99    6.00
   5   1   4   55.39    5.60
   5   1   4   50.99    4.30
   6  -1   4   14.50    4.30
   6   1   4   11.00    3.80
   6   1   4   13.70    2.80
   6   1   4   18.00    3.30
   6   1   4   12.20    3.80
   7  -1   4  163.88   12.10
   7   1   4  158.58   10.70
   7   1   4  171.98   10.20
   7   1   4  189.58   11.70
   7   1   4  175.18   10.10
   8  -1   4   78.19   10.30
   8   1   4  107.59    8.10
   8   1   4   90.19   10.90
   8   1   4   90.59    8.70
   9   1   4   48.30    8.30
   9   1   4   44.10    7.60
   9   1   4   35.30    6.20
  10   1   4   14.90    9.10
  11  -2  -4    1.80    8.40
 -11  -2   4    9.70    9.80
 -10  -2   4   80.99   11.00
  10  -2  -4   77.39   13.50
 -10   2   4   50.09    8.10
   9  -2  -4   34.20    7.00
   9  -2  -4   31.50    6.40
  -9   2   4   26.50    6.20
   8  -2  -4   19.90    5.90
   8  -2  -4   21.90    4.90
  -8  -2   4   32.30    6.50
  -7  -2   4   18.00    5.40
   7  -2  -4   18.60    5.20
   7  -2  -4   22.70    4.40
   7   2  -4   23.80    6.00
  -7   2   4    7.20    6.50
  -7   2   4   23.10    4.10
  -6  -2   4  140.59   10.10
   6  -2  -4  134.19    9.60
   6  -2  -4  126.59    8.60
  -6   2   4  110.69   11.10
   6   2  -4  149.99    9.80
  -6   2   4  130.59    8.50
   5  -2  -4  124.49    8.20
   5  -2  -4  136.79    9.00
  -5  -2   4  136.89    9.80
  -5   2   4  131.79   10.00
  -5   2   4  129.89    8.10
   5   2  -4  141.09    9.00
   4  -2  -4  217.28   11.30
  -4  -2   4  207.58   12.20
   4  -2  -4  209.78   11.60
   4   2  -4  223.88   12.00
  -4   2   4  207.78   12.30
  -4   2   4  220.98   11.10
  -3  -2   4  156.28    9.60
   3  -2  -4  158.08    9.10
   3  -2  -4  163.38    9.10
  -3   2   4  163.08    9.70
  -3   2   4  170.18    8.70
   3   2  -4  178.58    9.70
   2  -2  -4  591.04   26.60
   2  -2  -4  567.84   26.70
  -2  -2   4  566.84   27.00
   2   2  -4  592.64   27.00
  -2   2   4  598.04   27.00
  -2   2   4  587.94   26.50
   1  -2  -4  369.06   17.60
  -1  -2   4  345.57   17.50
   1  -2  -4  377.76   17.00
   1   2  -4  364.76   17.50
  -1   2   4  366.56   17.40
  -1   2   4  375.96   17.30
   0  -2  -4   75.59    4.40
   0  -2   4   65.09    5.00
   0  -2  -4   72.59    5.30
   0   2  -4   74.19    5.30
   0   2   4   71.69    5.00
   0   2   4   69.39    4.60
  -1  -2  -4  629.24   26.40
   1  -2   4  566.34   26.70
  -1  -2  -4  597.44   27.60
   1  -2   4  576.54   26.80
  -1   2  -4  628.24   26.70
   1   2   4  600.74   27.30
   1   2   4  593.94   26.60
  -1   2  -4  561.04   26.60
  -2  -2  -4  297.17   14.90
   2  -2   4  275.27   14.30
  -2  -2  -4  294.27   13.30
   2  -2   4  275.17   13.50
   2   2   4  291.47   13.50
   2   2   4  291.77   14.60
  -3  -2  -4  289.37   15.30
  -3  -2  -4  297.47   13.90
   3  -2   4  267.37   14.80
  -3   2  -4  306.17   15.10
   3   2   4  302.57   13.80
   3   2   4  290.07   15.00
  -4  -2  -4  179.88    9.40
   4  -2   4  155.68   10.40
   4   2   4  174.98   11.30
   4   2   4  178.08    9.00
   4   2   4  176.88   10.30
  -4   2  -4  187.68   11.00
   5  -2   4  665.33   32.60
  -5  -2  -4  684.43   31.40
   5   2   4  678.03   32.10
   5   2   4  686.43   30.70
  -5   2  -4  722.13   32.70
   5   2   4  690.03   32.90
   6  -2   4   79.79    8.40
   6   2   4   96.99   10.20
   6   2   4   98.89    6.50
  -6   2  -4  104.59    9.80
   6   2   4  109.29    8.30
   7   2   4  170.88   13.60
   7   2   4  158.18   11.20
   8  -2   4   41.60    6.20
   8   2   4   67.79   10.90
   8   2   4   62.29    8.80
   9  -2   4  230.68   15.20
   9   2   4  197.78   14.10
   9   2   4  170.68   15.40
   9   2   4  187.68   16.10
  10   2   4   31.40    9.80
  10   2   4   20.60    7.20
  10  -3  -4   83.09   14.90
 -10  -3   4   75.49   12.00
  -9  -3   4   14.00    8.50
   9  -3  -4   11.50    7.10
  -9   3   4    5.90    5.90
  -8  -3   4   24.60    7.70
   8  -3  -4   20.20    6.40
   8  -3  -4   26.50    7.20
  -8   3   4   28.20    6.10
   7  -3  -4   43.50    6.90
   7  -3  -4   41.20    6.50
  -7  -3   4   55.49    8.10
  -7   3   4   57.89    6.80
   6  -3  -4  146.49   11.10
  -6  -3   4  150.38   12.30
   6  -3  -4  144.69   10.70
  -6   3   4  137.09    9.90
  -5  -3   4   32.30    6.00
   5  -3  -4   49.10    7.20
   5  -3  -4   39.80    5.90
  -5   3   4   27.90    6.50
  -5   3   4   31.80    5.50
   5   3  -4   48.10    7.40
   4  -3  -4   71.79    7.50
  -4  -3   4   75.59    7.80
   4  -3  -4   80.59    6.80
  -4   3   4   59.19    7.80
   4   3  -4   78.89    7.70
  -4   3   4   74.89    5.80
   3  -3  -4   -0.50    3.20
  -3  -3   4    2.30    3.40
   3  -3  -4    3.20    2.40
   3   3  -4   -1.70    3.20
  -3   3   4   -0.10    2.10
  -3   3   4    1.10    3.40
   2  -3  -4  233.48   12.90
   2  -3  -4  230.98   13.10
  -2  -3   4  243.68   13.60
  -2   3   4  234.98   13.20
  -2   3   4  245.08   12.50
   2   3  -4  231.28   13.30
  -1  -3   4    5.80    3.30
   1  -3  -4    4.30    2.00
   1  -3  -4    3.20    2.90
  -1   3   4    4.90    2.10
   1   3  -4    5.70    3.20
  -1   3   4    4.60    2.70
   0  -3  -4  107.59    6.20
   0  -3  -4  105.99    7.90
   0  -3   4  100.69    7.40
   0   3   4  105.29    7.30
   0   3  -4  101.69    8.00
   0   3   4   97.29    6.90
  -1  -3  -4   23.10    2.80
  -1  -3  -4   23.90    4.20
  -1   3  -4   22.40    4.00
  -1   3  -4   20.50    3.40
   1   3   4   20.80    3.90
  -2  -3  -4  547.75   24.30
  -2  -3  -4  515.55   26.30
   2  -3   4  572.34   25.50
   2   3   4  524.05   26.00
  -2   3  -4  539.55   25.10
   2   3   4  520.35   24.70
  -2   3  -4  548.65   25.60
   3  -3   4   56.69    5.60
   3   3   4   46.40    4.60
  -3   3  -4   36.70    5.80
   3   3   4   48.10    5.90
   4  -3   4   54.09    6.30
  -4  -3  -4   53.29    5.00
   4   3   4   43.80    5.00
   4   3   4   49.80    7.20
  -4   3  -4   43.60    6.50
   4   3   4   54.69    6.30
  -5  -3  -4  120.69    8.50
   5  -3   4  137.69    9.80
  -5   3  -4  128.09   12.20
   5   3   4  131.39   10.00
   5   3   4  131.19    8.10
   5   3   4  118.29   12.30
  -6  -3  -4  528.05   24.40
   6  -3   4  494.75   25.70
   6   3   4  479.75   23.60
   7  -3   4   85.69    9.40
   7   3   4   91.09   10.10
   7   3   4   80.79   10.30
   8  -3   4   16.90    6.30
   8   3   4    9.00    6.40
   8   3   4    8.90    6.40
   9  -3   4   14.80    7.60
   9   3   4   22.50    7.80
   9   3   4   31.20    8.30
   9  -4  -4  156.08   16.40
   8  -4  -4   36.50    7.60
  -8  -4   4   33.80    9.00
   7  -4  -4    6.90    8.10
  -7  -4   4   18.30    7.30
   7  -4  -4   16.00    6.00
  -7   4   4   26.70    5.40
  -6  -4   4   17.70    6.60
   6  -4  -4   17.20    5.50
   6  -4  -4    5.30    7.30
  -6   4   4   21.60    5.10
   5  -4  -4  462.55   23.10
  -5  -4   4  441.36   24.50
   5  -4  -4  441.26   24.20
  -5   4   4  413.96   21.60
  -4  -4   4   29.00    5.80
   4  -4  -4   24.80    4.80
   4  -4  -4   15.70    6.90
  -4   4   4   21.50    4.40
  -3  -4   4  390.66   22.20
   3  -4  -4  422.06   22.50
  -3   4   4  407.76   20.40
   2  -4  -4  112.09    8.10
   2  -4  -4  113.59   11.00
  -2   4   4  113.59    8.50
   2   4  -4  122.49   10.40
   2   4  -4  122.99   11.50
   1  -4  -4  216.48   11.60
   1  -4  -4  206.28   14.20
  -1   4   4  200.28   13.50
   1   4  -4  224.88   13.80
   1   4  -4  210.68   14.30
  -1   4   4  212.88   12.70
   0  -4  -4   11.90    5.00
   0  -4  -4    7.00    3.00
   0   4   4    6.00    4.10
   0   4  -4    6.50    5.30
   0   4   4    9.50    4.00
   0   4  -4   17.40    4.70
  -1  -4  -4  135.79    7.70
   1   4   4  126.49    9.60
  -1   4  -4  123.69   10.80
  -1   4  -4  124.29    9.90
  -2  -4  -4   17.50    2.90
   2  -4   4   17.20    4.60
   2   4   4   13.40    4.50
  -2   4  -4   20.60    4.70
  -2   4  -4    9.20    5.20
   2   4   4   14.20    3.90
  -2   4  -4   17.20    5.80
  -3  -4  -4   44.40    4.90
  -3   4  -4   48.50    6.60
   3   4   4   39.60    7.00
  -3   4  -4   51.69    8.40
   3   4   4   40.60    6.50
  -3   4  -4   39.10    7.40
  -4  -4  -4   10.60    3.40
   4  -4   4   12.50    5.80
  -4   4  -4   -0.40    7.20
   4   4   4    6.10    3.90
   4   4   4    8.90    4.60
   5  -4   4  145.29   13.60
   5   4   4  105.79   10.90
  -6  -4  -4  118.49   10.00
   6  -4   4  162.48   14.90
   6   4   4  133.49   12.50
   7   4   4   67.89   11.30
   7   4   4   68.39   11.80
   8  -4   4   25.60    9.60
   8   4   4   32.80    8.70
   8   4   4   14.30    8.10
   7  -5  -4   12.70    7.70
  -7   5   4   14.70    7.30
   7   5  -4   38.20   10.90
   6  -5  -4   10.10    6.90
   6   5  -4   12.50    8.60
  -6   5   4   -9.00    5.90
   5  -5  -4    6.50    5.70
   5   5  -4   10.00    7.40
  -5   5   4   10.60    5.40
   4  -5  -4   59.29    9.00
   4   5  -4   70.09   12.70
  -4   5   4   56.59    8.20
   3  -5  -4    9.80    4.90
  -3   5   4    6.00    5.00
   3   5  -4    4.80    7.00
   2  -5  -4  158.28   11.10
  -2   5   4  151.58   11.80
   2   5  -4  190.88   15.00
   1  -5  -4   37.50    6.30
   1   5  -4   34.50    7.50
  -1   5   4   40.10    6.50
   0  -5  -4   25.20    4.40
   0   5   4   31.60    6.50
   0   5  -4   22.30    6.80
  -1  -5  -4   64.09    6.50
   1   5   4   81.19    9.50
   2  -5   4   85.79    8.70
  -2  -5  -4   66.89    6.20
   2   5   4   52.59    9.70
  -2   5  -4   63.99   10.00
  -2   5  -4   73.19   10.20
  -2   5  -4   68.19   10.00
  -3  -5  -4   15.90    4.00
  -3   5  -4   10.00    6.30
   3   5   4   20.60    6.90
  -3   5  -4   24.00    9.00
  -3   5  -4   26.80    9.90
   4  -5   4   68.59    9.20
  -4  -5  -4   55.79    7.40
   4   5   4   70.79   10.00
   5  -5   4    9.90    7.80
  -5  -5  -4   15.50    5.10
   5   5   4    6.70    7.40
   6  -5   4   -6.50    9.80
  -6  -5  -4    2.10    5.80
   6   5   4   -4.10    8.60
   3  -6  -4   13.80    6.70
   3   6  -4   11.90    9.90
  -3   6   4   19.10    7.20
   2  -6  -4   13.30    6.10
  -2   6   4   18.40    7.00
   2   6  -4    5.10    9.20
   1  -6  -4   29.80    6.40
   1   6  -4   43.10    9.90
  -1   6   4   29.90    8.00
   0  -6  -4   -2.00    5.10
   0   6   4   10.70    7.60
   0   6  -4   31.40    9.00
  -1  -6  -4    2.00    5.10
  -1   6  -4    7.90    8.50
   1   6   4    4.40    8.30
  -2  -6  -4   60.59    8.10
  -2   6  -4   38.50   10.20
   2   6   4   72.79   12.60
 -11   0   5  128.69   15.00
  10   0  -5  114.79   12.10
 -10   0   5   96.59   11.50
  -9   0   5   88.49   10.20
   9   0  -5  104.79   10.10
   9   0  -5   87.49    9.30
  -9   0   5   93.69   11.40
   8   0  -5  129.29    9.30
  -8   0   5  111.79    9.30
  -8   0   5   90.29   10.10
   8   0  -5  104.19    8.80
  -7   0   5  270.57   16.10
   7   0  -5  301.37   15.20
  -7   0   5  289.47   15.80
   7   0  -5  266.97   14.70
   6   0  -5  232.18   12.60
  -6   0   5  241.08   13.10
   6   0  -5  241.78   12.60
   5   0  -5  215.68   11.20
  -5   0   5  219.18   12.20
  -5   0   5  215.38   11.70
   5   0  -5  203.88   11.00
  -4   0   5   -1.50    2.50
   4   0  -5    3.40    1.90
   4   0  -5    3.00    1.50
  -4   0   5    4.70    2.10
  -3   0   5 1286.57   56.59
   3   0  -5 1268.17   55.99
   3   0  -5 1348.37   56.49
  -3   0   5 1271.57   56.39
  -2   0   5 1214.58   51.99
   2   0  -5 1190.98   51.29
   2   0  -5 1179.78   51.69
  -2   0   5 1166.28   51.59
  -1   0   5   42.30    2.90
   1   0  -5   44.30    3.50
  -1   0   5   56.09    3.70
   0   0  -5 3555.14  154.98
   0   0   5 3526.55  154.98
   0   0   5 3938.51  155.48
   0   0  -5 3498.85  155.18
   1   0   5  556.44   24.30
   1   0   5  578.04   24.60
  -1   0  -5  530.05   24.50
  -1   0  -5  555.74   24.60
   2   0   5  151.28    7.20
   2   0   5  151.38    7.30
  -2   0  -5  141.49    7.40
  -2   0  -5  137.09    7.50
   3   0   5    4.90    1.90
   3   0   5    6.00    1.40
  -3   0  -5    4.30    1.60
   3   0   5    4.50    1.50
   4   0   5 1383.16   61.79
   4   0   5 1420.46   61.19
   5   0   5  126.79    7.80
   5   0   5  136.39    8.70
   6   0   5   88.09    6.90
   6   0   5   95.79    8.00
   7   0   5   29.90    5.90
   8   0   5   89.89   11.00
   9   0   5   44.60    9.30
  10   0   5   -9.90    8.60
 -11  -1   5   25.00    9.30
  11  -1  -5   50.19    9.30
  11   1  -5   35.80    8.80
 -11   1   5   28.20    9.40
 -10  -1   5   79.09   10.60
 -10  -1   5   77.89   10.60
  10  -1  -5   95.29   11.90
  10  -1  -5   57.19   10.00
 -10   1   5   85.29   11.10
  10   1  -5   86.19   12.60
  -9  -1   5   36.50    7.50
   9  -1  -5   46.10    7.10
  -9  -1   5   34.60    6.00
   9  -1  -5   35.30    6.00
   9   1  -5   51.29    7.30
  -9   1   5   41.30    7.10
   8  -1  -5  402.26   21.00
  -8  -1   5  454.85   22.70
  -8  -1   5  407.26   21.00
   8  -1  -5  442.06   22.50
   8   1  -5  455.95   21.50
  -8   1   5  402.36   23.70
  -8   1   5  402.56   21.50
   8   1  -5  440.56   21.60
  -7  -1   5  458.15   22.70
   7  -1  -5  408.16   21.10
   7  -1  -5  424.96   22.20
   7   1  -5  486.95   21.80
  -7   1   5  435.76   23.60
  -7   1   5  433.76   22.40
   6  -1  -5   96.69    7.00
  -6  -1   5  110.19    9.00
   6  -1  -5   95.49    7.50
  -6   1   5   90.09    7.20
  -6   1   5   86.39    9.70
   6   1  -5  117.99    7.50
  -5  -1   5   73.69    6.40
   5  -1  -5   80.59    5.70
   5  -1  -5   69.79    5.70
  -5   1   5   66.09    5.90
  -5   1   5   65.89    7.40
   5   1  -5   83.89    5.90
   4  -1  -5  439.86   21.10
  -4  -1   5  447.16   21.50
   4  -1  -5  450.65   20.90
  -4   1   5  444.36   21.10
   4   1  -5  481.85   21.30
  -4   1   5  446.26   21.70
   3  -1  -5 1379.26   61.49
  -3  -1   5 1387.96   61.89
   3  -1  -5 1379.86   61.59
   3   1  -5 1505.45   61.79
  -3   1   5 1396.86   61.99
  -3   1   5 1421.76   61.69
   2  -1  -5  394.96   18.10
  -2  -1   5  378.86   18.50
   2  -1  -5  401.96   18.30
  -2   1   5  409.16   18.40
   2   1  -5  391.76   18.50
   1  -1  -5    8.10    1.40
  -1  -1   5    9.70    2.30
  -1   1   5    9.00    1.90
  -1   1   5    8.10    1.70
   1   1  -5    8.50    1.90
   0  -1   5  206.68   10.50
   0  -1  -5  224.28   10.80
   0   1  -5  214.78   10.50
   0   1   5  223.88   10.60
   1  -1   5 1084.09   52.59
   1  -1   5 1161.68   52.89
   1  -1   5 1242.58   52.59
  -1  -1  -5 1245.98   53.39
  -1  -1  -5 1270.97   52.69
   1   1   5 1248.88   52.79
   1   1   5 1222.08   53.09
  -1   1  -5 1262.27   52.69
  -2  -1  -5  425.56   19.90
   2  -1   5  429.76   19.40
  -2  -1  -5  436.36   19.30
   2  -1   5  403.06   19.70
   2   1   5  416.56   19.50
   2   1   5  441.06   19.20
   3  -1   5   25.80    3.70
  -3  -1  -5   19.80    2.90
   3  -1   5   26.40    3.30
   3   1   5   21.40    3.10
   3   1   5   20.90    2.40
   4  -1   5  220.48   12.50
  -4  -1  -5  232.78   11.80
  -4  -1  -5  235.88   12.30
   4  -1   5  225.28   11.90
   4   1   5  233.28   11.20
   4   1   5  231.78   11.70
   5  -1   5   25.50    3.90
   5  -1   5   32.00    5.80
   5   1   5   21.90    3.90
   5   1   5   31.70    4.00
   5   1   5   23.80    4.60
   5   1   5   24.20    3.50
   6  -1   5    2.00    3.50
   6  -1   5    1.20    3.70
   6   1   5    2.60    2.60
   6   1   5   -1.80    4.00
   6   1   5    2.60    2.80
   6   1   5    1.70    3.20
   7  -1   5  100.99   10.30
   7   1   5  102.89    7.90
   7   1   5  111.89    9.60
   7   1   5  105.99    9.20
   8  -1   5   13.60    6.20
   8   1   5   17.20    5.40
   8   1   5   17.90    6.20
   8   1   5   15.70    4.20
   9   1   5   12.80    7.40
  10  -1   5    8.50    7.90
  10   1   5   -8.40    8.40
  11  -2  -5   26.30    9.30
 -11  -2   5   43.50   11.00
  10  -2  -5   79.19   11.90
 -10  -2   5  106.09   14.90
  10  -2  -5  101.89   13.50
 -10   2   5   69.39    9.80
  -9  -2   5   77.29   12.30
   9  -2  -5   70.99   11.00
   9  -2  -5   52.59    9.80
  -9   2   5   72.19    9.70
   8  -2  -5  121.29   10.80
   8  -2  -5  105.19    9.60
  -8  -2   5  115.29   11.60
  -8   2   5  103.49    9.40
   7  -2  -5    5.90    4.10
  -7   2   5    2.50    3.80
   7   2  -5    6.30    5.30
   6  -2  -5  120.09    8.70
  -6  -2   5  129.99   10.10
   6  -2  -5  123.69    9.10
  -6   2   5  111.89    8.40
   6   2  -5  130.29    9.80
  -6   2   5  154.38   11.50
   5  -2  -5  190.88   10.90
  -5  -2   5  192.28   11.80
   5  -2  -5  188.28   11.00
   5   2  -5  206.18   11.80
  -5   2   5  173.68   12.20
  -5   2   5  185.98   10.70
   4  -2  -5   34.80    4.50
  -4  -2   5   35.70    5.40
   4  -2  -5   42.10    5.00
  -4   2   5   41.50    4.50
   4   2  -5   43.90    5.60
  -4   2   5   32.40    5.00
   3  -2  -5    4.30    2.10
   3  -2  -5    7.40    2.40
  -3  -2   5    9.20    2.80
  -3   2   5    5.80    2.70
  -3   2   5    6.10    2.10
   3   2  -5    7.10    2.80
   2  -2  -5   79.19    5.80
   2  -2  -5   81.19    5.30
  -2  -2   5   79.09    6.20
   2   2  -5   87.29    6.30
  -2   2   5   77.49    5.20
  -2   2   5   81.69    6.00
  -1  -2   5  424.16   20.50
   1  -2  -5  439.66   20.60
   1  -2  -5  440.86   19.80
  -1   2   5  426.86   20.20
   1   2  -5  428.16   20.40
  -1   2   5  431.66   20.20
   0  -2  -5  174.18    9.70
   0  -2   5  164.18    9.40
   0  -2  -5  182.98    8.70
   0   2  -5  150.58    9.60
   0   2   5  186.88    9.50
   0   2   5  182.78    9.10
   1  -2   5  152.48    8.70
  -1  -2  -5  161.98    9.40
  -1  -2  -5  170.98    8.20
  -1   2  -5  152.68    8.80
   1   2   5  169.68    8.50
   1   2   5  166.88    9.10
  -2  -2  -5  288.27   14.90
   2  -2   5  276.27   14.20
  -2  -2  -5  281.17   13.30
   2   2   5  282.77   13.50
   2   2   5  277.67   14.30
  -2   2  -5  291.27   14.10
   3  -2   5  200.48   11.50
  -3  -2  -5  205.68   11.90
  -3  -2  -5  202.78   10.30
   3   2   5  204.28   10.20
  -3   2  -5  209.38   11.50
   3   2   5  204.48   11.30
   4  -2   5   56.89    7.40
  -4  -2  -5   62.59    5.10
  -4  -2  -5   57.69    7.30
  -4   2  -5   77.19    7.30
   4   2   5   62.99    4.80
   4   2   5   58.59    6.00
   5  -2   5   45.40    6.00
  -5  -2  -5   63.59    5.80
   5   2   5   61.69    5.00
   5   2   5   48.60    6.20
   5   2   5   60.69    8.60
  -5   2  -5   63.09    8.10
   6   2   5   -0.30    2.70
   6   2   5   -0.50    3.60
   6   2   5    0.00    3.90
   7  -2   5  233.18   15.10
   7   2   5  234.98   16.50
   7   2   5  227.28   14.50
   7   2   5  220.28   13.80
   8   2   5   47.50    8.80
   8   2   5   53.29    9.80
   8   2   5   40.70    6.80
   9   2   5   43.40    8.80
   9   2   5   30.80    7.00
  10   2   5    6.30    9.60
  10   2   5    0.20    7.40
  10  -3  -5    6.20    8.40
 -10  -3   5   -9.50    9.30
 -10   3   5    3.00    8.30
   9  -3  -5   40.70    9.00
   9  -3  -5   65.19   11.90
  -9  -3   5   73.59   11.00
  -8  -3   5   64.89    9.70
   8  -3  -5   37.40    7.80
   8  -3  -5   54.49    9.40
  -8   3   5   50.89    9.30
   7  -3  -5   19.10    5.20
  -7  -3   5   34.40    7.20
   7  -3  -5   14.30    5.90
  -7   3   5   29.00    5.10
  -6  -3   5  287.57   16.70
   6  -3  -5  241.08   15.30
   6  -3  -5  268.77   15.30
  -6   3   5  242.18   14.00
   5  -3  -5   35.00    6.00
  -5   3   5   38.10    5.30
   5   3  -5   31.30    5.90
   4  -3  -5   66.99    6.30
  -4  -3   5   71.19    7.80
   4  -3  -5   73.09    7.70
   4   3  -5   72.89    7.80
  -4   3   5   49.70    6.80
  -4   3   5   63.59    5.60
  -3  -3   5   83.69    7.60
   3  -3  -5   72.99    7.30
   3  -3  -5   74.69    6.20
   3   3  -5   73.89    7.60
  -3   3   5   59.29    7.10
  -3   3   5   69.09    5.80
   2  -3  -5  256.27   12.70
   2  -3  -5  232.48   13.70
  -2   3   5  248.98   13.00
   2   3  -5  240.18   13.80
  -2   3   5  243.28   13.80
  -1  -3   5   61.39    6.40
   1  -3  -5   59.69    5.00
   1  -3  -5   50.29    6.00
   1   3  -5   57.59    6.80
  -1   3   5   60.99    5.20
  -1   3   5   49.00    5.60
   0  -3  -5  319.97   17.30
   0  -3   5  318.87   16.60
   0   3   5  339.77   16.60
   0   3   5  329.17   16.30
   0   3  -5  312.27   16.60
  -1  -3  -5    4.60    3.40
   1  -3   5   10.60    3.20
   1   3   5    7.00    2.80
   1   3   5    2.70    2.50
  -1   3  -5    8.70    3.70
  -2  -3  -5  199.28   10.20
   2  -3   5  212.78   11.40
  -2  -3  -5  183.18   12.40
  -2   3  -5  203.28   11.20
  -2   3  -5  222.08   12.20
   2   3   5  188.88   10.80
   2   3   5  209.38   11.90
  -3  -3  -5    2.10    4.30
   3  -3   5    6.00    3.20
  -3  -3  -5    4.30    2.30
   3   3   5    1.40    3.20
  -3   3  -5   12.00    4.70
   3   3   5    2.70    2.50
   4  -3   5   21.10    4.50
  -4  -3  -5   33.60    4.60
   4   3   5   22.30    4.90
  -4   3  -5   32.60    6.10
   4   3   5   22.50    3.50
   4   3   5   21.80    6.40
   5  -3   5   -3.30    4.00
  -5  -3  -5    6.70    3.40
   5   3   5    1.90    4.30
   5   3   5    7.70    3.20
   5   3   5   10.60    6.70
  -5   3  -5    7.60    6.50
  -6  -3  -5  257.07   13.90
   6  -3   5  214.88   14.80
   6   3   5  241.18   15.00
   7  -3   5   32.20    6.30
   7   3   5   37.30    6.90
   7   3   5   36.90    6.70
   8  -3   5   33.00    7.40
   8   3   5   31.20    7.60
   8   3   5   31.10    7.50
   9  -3   5   10.60    7.40
   9   3   5   -2.30    8.00
   9   3   5    5.30    8.00
  -9  -4   5   60.39   11.10
  -9   4   5   37.00    9.70
  -8  -4   5    6.50    8.30
   8  -4  -5    8.20    6.70
  -8   4   5   20.60    6.90
   7  -4  -5   20.20    6.30
  -7  -4   5   17.20    8.10
  -7   4   5   30.50    6.20
  -6  -4   5   15.50    6.90
   6  -4  -5    2.70    5.00
  -6   4   5   11.00    4.80
  -5  -4   5  279.87   18.10
   5  -4  -5  297.27   16.50
  -5   4   5  255.77   16.20
   4  -4  -5   50.69    6.80
   4  -4  -5   26.70    7.40
  -4  -4   5   45.10    7.30
   3  -4  -5    9.10    3.60
  -3  -4   5   12.80    5.50
   3  -4  -5    9.40    6.30
   2  -4  -5   74.09   10.40
  -2  -4   5   89.99    9.20
   2   4  -5   64.49   10.50
   1  -4  -5  277.07   13.60
   1   4  -5  236.68   15.90
  -1   4   5  252.97   15.60
   0  -4  -5   81.99    6.20
   0   4  -5   92.59    8.80
   0   4   5   71.49    8.50
   0   4  -5   68.99    9.70
   0   4   5   86.99    7.90
  -1  -4  -5  159.58    8.90
   1   4   5  159.68   11.00
  -1   4  -5  137.79   11.90
   1   4   5  157.38   10.80
  -2  -4  -5    5.80    2.70
  -2   4  -5    2.50    5.30
  -2   4  -5    9.50    5.60
  -2   4  -5    0.60    4.20
   2   4   5   10.80    4.20
   2   4   5    3.80    4.20
   3  -4   5   81.69   10.40
   3   4   5   58.89    7.90
  -3   4  -5   73.49    9.10
  -3   4  -5   60.09    8.20
  -3   4  -5   78.59    7.60
   3   4   5   57.09    8.40
  -4  -4  -5   22.30    4.10
  -4   4  -5   14.00    7.90
   4   4   5   16.60    5.30
  -5  -4  -5   16.50    4.50
   5  -4   5   31.70    7.10
   5   4   5    9.50    6.40
  -6  -4  -5   14.20    5.10
   6   4   5   -2.30    6.50
   7  -4   5   26.90    8.70
   7   4   5   -9.30    7.80
   8   4   5   -8.00    8.70
   8   4   5    5.80    8.50
  -7   5   5    4.50    7.50
   6  -5  -5    5.40    6.60
  -6   5   5    1.70    6.30
   6   5  -5    5.00    8.50
   5  -5  -5   53.99   10.20
  -5   5   5   52.19    9.00
   5   5  -5   44.90   10.30
   4  -5  -5   63.09    9.10
  -4   5   5   62.09    9.40
   4   5  -5   81.29   12.80
   3  -5  -5   11.80    4.80
   3   5  -5   21.40    7.80
  -3   5   5    9.10    5.10
   2  -5  -5    7.70    4.60
  -2   5   5   -0.80    5.10
   2   5  -5    5.00    7.60
   1  -5  -5   36.30    6.50
   1   5  -5   42.30    8.40
   0  -5  -5   11.60    3.90
   0   5   5   17.00    5.90
   0   5  -5   10.30    7.00
  -1  -5  -5   24.10    4.30
   1   5   5   33.70    6.60
  -2  -5  -5   30.10    4.40
  -2   5  -5   25.40    9.60
   2   5   5   32.10    6.80
  -3  -5  -5   58.99    7.40
   3   5   5   86.19   10.80
  -3   5  -5   73.39   11.70
  -3   5  -5   88.99   10.50
  -4  -5  -5    9.60    4.60
   4  -5   5    5.10    7.70
   4   5   5    2.60    6.80
  -5  -5  -5   33.00    6.70
   5  -5   5   47.60   10.50
   5   5   5   30.00    8.70
   2  -6  -5    7.00    5.90
   2   6  -5   -2.60    9.70
  -2   6   5    6.00    7.20
   1  -6  -5   34.50    6.80
  -1   6   5   28.30    8.00
   1   6  -5   33.80   10.40
   0  -6  -5   59.19    8.70
   0   6   5   87.09   12.60
   0   6  -5   68.79   11.10
  -1  -6  -5   11.50    5.90
  -1   6  -5   30.30    9.50
   1   6   5   16.40    9.00
  11   0  -6   70.29   13.00
 -11   0   6   66.49   10.50
 -10   0   6   13.60    8.10
  10   0  -6   21.90    6.40
  -9   0   6    5.30    6.10
  -9   0   6   12.50    6.20
   9   0  -6    5.90    4.70
   8   0  -6  151.68   11.10
   8   0  -6  170.18   10.90
  -8   0   6  160.78   11.70
  -8   0   6  168.28   12.50
   7   0  -6  373.26   18.80
   7   0  -6  357.56   18.90
  -7   0   6  380.16   19.60
  -7   0   6  392.66   20.20
   6   0  -6  646.44   31.90
  -6   0   6  782.42   32.80
   6   0  -6  664.63   31.70
   5   0  -6   84.39    5.70
  -5   0   6   90.49    7.50
  -5   0   6   92.09    7.10
   5   0  -6   87.99    6.50
  -4   0   6    4.90    2.70
  -4   0   6   10.00    2.70
   4   0  -6    9.50    1.90
   4   0  -6    8.60    2.30
   3   0  -6   41.90    3.10
   3   0  -6   36.70    3.90
  -3   0   6   43.50    4.00
  -3   0   6   40.60    4.20
  -2   0   6   15.80    2.50
  -2   0   6   19.90    3.40
   2   0  -6   15.20    2.00
   2   0  -6   15.60    2.80
  -1   0   6  417.06   19.40
  -1   0   6  452.25   20.00
   0   0  -6  241.88   11.30
   0   0   6  261.97   12.00
   0   0  -6  238.18   11.70
   0   0   6  239.18   11.30
  -1   0  -6  370.36   17.60
  -1   0  -6  399.96   17.90
   1   0   6  386.26   17.50
   1   0   6  401.56   17.80
   2   0   6  560.74   24.20
   2   0   6  548.85   24.10
  -2   0  -6  512.15   24.40
  -2   0  -6  541.35   24.30
   3   0   6  680.73   30.20
  -3   0  -6  693.63   30.60
   3   0   6  680.73   30.40
   4   0   6  588.74   26.60
   5   0   6   38.00    4.50
   5   0   6   38.80    5.60
   6   0   6    5.30    3.00
   6   0   6   19.50    4.00
   7   0   6   11.40    5.70
   8   0   6  123.19   12.80
   9   0   6   32.40    9.20
  10   0   6   10.80    9.40
  11  -1  -6   93.39   13.90
 -11  -1   6   79.29   12.10
 -11   1   6   91.29   14.10
  11   1  -6   91.59   13.10
 -10  -1   6   17.50    6.10
 -10  -1   6   16.30    8.30
  10  -1  -6   19.50    7.00
  10   1  -6   24.30    6.10
 -10   1   6    8.90    7.10
   9  -1  -6   25.20    6.00
  -9  -1   6   21.90    6.50
   9  -1  -6   28.60    6.10
   9   1  -6   32.10    5.90
   8  -1  -6  142.79   10.30
   8  -1  -6  151.28   11.00
  -8  -1   6  152.88   12.30
  -8   1   6  128.09   11.00
   7  -1  -6  116.29    8.90
  -7  -1   6  122.09    9.90
   7  -1  -6  120.09    8.90
   7   1  -6  131.79    9.10
  -7   1   6  115.59    9.20
  -6  -1   6  258.37   14.50
   6  -1  -6  236.98   13.60
  -6   1   6  278.67   15.90
   6   1  -6  265.37   13.80
   5  -1  -6  690.13   31.80
   5  -1  -6  688.93   31.60
  -5   1   6  709.83   32.80
  -5   1   6  659.53   31.90
   5   1  -6  719.93   31.90
   4  -1  -6   48.60    4.30
   4  -1  -6   44.20    4.30
  -4  -1   6   48.00    5.20
   4   1  -6   44.80    4.70
  -4   1   6   47.20    4.80
  -4   1   6   43.90    5.50
  -3  -1   6  567.04   27.30
   3  -1  -6  589.24   26.80
   3  -1  -6  598.64   27.00
   3   1  -6  616.24   27.20
  -3   1   6  589.44   27.20
  -3   1   6  600.94   27.40
  -2  -1   6  129.19    7.70
   2  -1  -6  130.69    6.90
   2  -1  -6  129.69    7.40
   2   1  -6  124.79    7.50
  -2   1   6  133.09    7.40
  -2   1   6  125.79    7.30
  -1  -1   6  233.98   11.80
   1  -1  -6  237.38   11.10
   1  -1  -6  232.98   11.70
   1   1  -6  223.18   11.70
  -1   1   6  241.98   11.70
  -1   1   6  228.28   11.30
   0  -1   6  370.76   15.40
   0  -1  -6  351.66   16.40
   0  -1   6  320.47   16.10
   0   1   6  341.07   15.90
   0   1   6  357.86   16.20
   0   1  -6  352.86   16.20
   0   1  -6  320.27   15.60
   1  -1   6  795.12   35.70
  -1  -1  -6  811.92   36.10
   1  -1   6  726.23   35.40
   1  -1   6  832.42   35.20
  -1  -1  -6  858.21   35.40
   1   1   6  838.92   35.50
  -1   1  -6  805.22   35.40
   1   1   6  783.62   35.80
  -2  -1  -6  116.69    7.30
   2  -1   6  114.89    6.50
  -2  -1  -6  122.39    6.50
   2  -1   6  106.79    7.00
   2   1   6  113.39    6.70
   2   1   6  121.59    6.30
  -2   1  -6  120.19    6.30
   3  -1   6   68.09    5.00
  -3  -1  -6   59.69    5.70
  -3  -1  -6   64.79    4.70
   3  -1   6   59.09    5.40
   3   1   6   64.39    4.30
   3   1   6   69.39    4.90
   4  -1   6   72.89    5.90
  -4  -1  -6   76.99    5.80
  -4  -1  -6   77.59    6.70
   4   1   6   75.39    5.50
   4   1   6   71.69    5.00
   5  -1   6   -2.50    3.50
   5  -1   6    3.20    3.10
   5   1   6   -0.80    2.30
   5   1   6    2.40    2.20
   5   1   6    3.50    3.30
   5   1   6    2.50    4.10
   6   1   6   83.49    8.80
   6   1   6   85.89    6.60
   7  -1   6   36.60    6.90
   7   1   6   32.00    6.10
   7   1   6   50.79    8.10
   7   1   6   38.10    5.90
   8  -1   6   10.20    6.70
   8   1   6   36.30    7.00
   9  -1   6    6.80    7.40
   9   1   6   -3.80    7.80
  10   1   6   63.29   11.30
  11  -2  -6   54.29   10.10
 -11   2   6   59.39   11.00
  10  -2  -6   10.00    7.00
 -10  -2   6   18.70    9.30
 -10   2   6    9.30    7.80
   9  -2  -6    4.70    5.60
  -9  -2   6    9.60    7.70
   8  -2  -6   22.70    5.30
  -8  -2   6   18.90    6.50
   8  -2  -6   24.20    6.00
  -8   2   6   17.20    5.40
   7  -2  -6    8.90    4.10
  -7  -2   6   10.20    5.50
   7  -2  -6   12.30    4.80
  -7   2   6   12.90    4.80
   6  -2  -6    8.70    3.40
   6  -2  -6   12.40    4.00
  -6  -2   6   14.80    4.70
   6   2  -6   13.00    4.90
  -6   2   6    8.60    5.90
  -6   2   6   14.30    3.90
   5  -2  -6   62.19    6.10
   5  -2  -6   61.59    6.60
  -5  -2   6   73.09    7.10
  -5   2   6   67.79    6.50
  -5   2   6   61.19    7.90
   5   2  -6   65.99    7.30
   4  -2  -6   65.19    5.50
   4  -2  -6   60.69    5.80
  -4  -2   6   62.99    6.60
  -4   2   6   58.39    5.40
   4   2  -6   59.09    6.70
  -4   2   6   51.39    6.60
   3  -2  -6   46.00    4.90
   3  -2  -6   47.20    4.40
  -3  -2   6   44.70    5.60
  -3   2   6   45.90    5.60
   3   2  -6   46.20    5.60
  -3   2   6   42.20    4.60
   2  -2  -6   12.90    2.30
   2  -2  -6   13.80    2.90
  -2  -2   6   17.40    3.30
  -2   2   6   12.00    2.70
  -2   2   6   20.30    3.00
   2   2  -6   16.70    3.70
   1  -2  -6  173.68    9.90
  -1  -2   6  171.18    9.80
   1  -2  -6  184.08    9.00
  -1   2   6  174.18    9.50
   1   2  -6  169.68   10.00
  -1   2   6  166.58    9.40
   0  -2   6   68.39    5.50
   0  -2  -6   71.99    4.50
   0  -2  -6   76.89    6.00
   0   2   6   70.19    4.90
   0   2  -6   57.39    5.70
   0   2   6   69.49    5.10
  -1  -2  -6   19.60    3.40
  -1  -2  -6   16.00    2.40
   1  -2   6   20.20    3.00
   1  -2   6   17.00    2.90
   1  -2   6   17.00    3.10
   1   2   6   22.50    3.00
  -1   2  -6   18.00    3.10
   1   2   6   18.10    3.40
  -2  -2  -6   22.20    4.00
   2  -2   6   22.40    3.60
  -2  -2  -6   24.40    3.10
   2  -2   6   22.50    3.10
   2   2   6   23.20    3.10
   2   2   6   25.20    4.00
  -3  -2  -6   20.10    3.50
   3  -2   6   16.10    3.30
  -3  -2  -6   24.90    4.50
   3  -2   6   15.50    3.90
   3   2   6   19.60    3.50
   3   2   6   23.40    3.20
  -4  -2  -6   -4.20    4.00
  -4  -2  -6    2.10    2.30
   4  -2   6   -0.80    3.30
   4  -2   6   -0.50    3.50
   4   2   6    4.60    2.30
   4   2   6    3.00    2.90
   5  -2   6   11.70    4.50
  -5  -2  -6   13.60    3.60
   5  -2   6   13.10    4.90
   5   2   6    9.50    5.30
   5   2   6    9.60    2.80
   5   2   6   17.10    4.00
   6  -2   6   30.00    6.00
   6   2   6   37.40    5.70
   6   2   6   45.90    6.40
   6   2   6   31.60    7.30
   7   2   6    9.30    7.60
   7   2   6   17.00    5.50
   8  -2   6   12.80    6.40
   8   2   6    7.80    6.60
   8   2   6   12.80    5.30
   8   2   6   19.60    9.10
   9   2   6   78.29   13.80
 -10  -3   6   10.00    9.70
  10  -3  -6   11.70    8.00
 -10   3   6    6.30    9.00
  -9  -3   6   82.19   15.30
   9  -3  -6   41.80    7.80
   8  -3  -6  109.29   11.30
  -8   3   6   99.29   10.80
  -7  -3   6   11.00    6.40
   7  -3  -6    2.80    4.80
   7  -3  -6    4.80    6.50
  -7   3   6   15.60    5.40
   6  -3  -6   84.59    8.90
   6  -3  -6   94.09   10.30
  -6  -3   6  112.39   10.90
  -6   3   6  100.29    8.40
   5  -3  -6  151.38   11.80
   5  -3  -6  185.58   11.00
  -5  -3   6  190.68   12.70
  -5   3   6  164.88   10.60
   4  -3  -6   15.30    4.70
  -4  -3   6    8.20    4.60
   4  -3  -6   15.70    3.30
  -4   3   6   12.50    3.50
   4   3  -6   19.20    5.10
  -4   3   6   11.60    4.60
   3  -3  -6   11.80    4.20
   3  -3  -6   12.60    3.10
  -3  -3   6   12.50    4.50
  -3   3   6    9.90    2.80
  -3   3   6    9.10    3.90
   3   3  -6   15.10    4.50
  -2  -3   6  265.67   14.80
   2  -3  -6  254.97   14.60
   2  -3  -6  270.97   13.60
  -2   3   6  259.57   14.50
  -2   3   6  253.87   13.80
   2   3  -6  268.47   14.90
   1  -3  -6   50.19    6.50
  -1  -3   6   50.49    6.40
   1  -3  -6   52.59    4.70
  -1   3   6   50.89    5.20
   1   3  -6   54.09    7.00
  -1   3   6   47.30    5.60
   0  -3  -6   60.69    7.20
   0  -3  -6   66.49    4.90
   0  -3   6   82.39    6.90
   0   3   6   73.69    6.10
   0   3   6   61.69    6.10
   0   3  -6   67.89    7.40
  -1  -3  -6   15.40    4.50
  -1  -3  -6   14.20    2.40
   1  -3   6    9.30    3.60
  -1   3  -6    9.20    3.90
   1   3   6   11.20    3.00
   1   3   6   12.30    3.20
   2  -3   6   89.09    7.40
  -2  -3  -6  115.49    9.30
  -2  -3  -6  106.79    6.40
   2  -3   6  101.19    7.40
   2   3   6   99.29    7.10
  -2   3  -6   81.09    7.90
  -2   3  -6  120.29    8.60
   2   3   6  105.59    8.10
   3  -3   6   58.29    7.40
  -3  -3  -6   53.19    5.00
  -3  -3  -6   55.39    8.40
  -3   3  -6   68.89    8.50
   3   3   6   45.30    5.70
   3   3   6   61.29    6.70
  -4  -3  -6  123.99   12.00
   4  -3   6  131.69    9.90
   4   3   6  117.39    8.40
  -4   3  -6  127.79   11.50
   4   3   6  134.39    9.80
  -5  -3  -6   95.99    8.10
   5  -3   6  113.09   10.10
   5   3   6  107.09    9.50
   6  -3   6   18.90    5.50
  -6  -3  -6   20.70    4.60
   7   3   6   77.69   11.20
   7   3   6   77.59   10.30
   8   3   6   25.90    7.50
   8   3   6   22.80    8.00
  -8  -4   6   32.70   10.10
  -8   4   6   40.60    7.90
  -7  -4   6   82.29   14.80
   7  -4  -6   76.69   10.30
  -7   4   6   56.69   10.20
  -6  -4   6   38.20    8.90
   6  -4  -6   35.30    6.20
  -6   4   6   36.30    6.20
  -5  -4   6   39.70    8.10
   5  -4  -6   45.60    7.50
  -5   4   6   32.00    5.80
  -4  -4   6   26.40    7.00
   4  -4  -6   23.80    4.90
  -4   4   6   24.80    4.50
  -3  -4   6  238.48   16.30
   3  -4  -6  267.77   14.20
  -3   4   6  245.08   14.40
   2  -4  -6    9.60    3.50
  -2   4   6    9.90    4.10
  -1  -4   6  155.78   11.60
   1  -4  -6  153.58    9.40
  -1   4   6  142.99   10.30
   1   4  -6  154.58   13.10
   0  -4  -6   11.70    3.10
   0   4   6   12.60    4.80
   0   4  -6   18.10    6.50
  -1  -4  -6   24.00    4.20
   1   4   6   28.50    5.40
  -1   4  -6   20.20    6.60
  -2  -4  -6    6.90    3.00
  -2   4  -6   13.90    6.10
  -2   4  -6   -5.30    4.50
   2   4   6    5.70    4.10
  -3  -4  -6   12.00    3.70
   3  -4   6   27.60    5.70
  -3   4  -6   15.60    7.20
   3   4   6   14.50    5.40
  -4  -4  -6    6.40    3.80
  -4   4  -6    2.90    8.70
   4   4   6    6.70    4.80
  -5  -4  -6   -0.30    4.30
   5   4   6    9.70    6.20
   7   4   6   81.09   13.30
   6  -5  -6   14.50    7.20
   6   5  -6    9.60    9.20
  -6   5   6   10.30    6.90
   5  -5  -6   23.00    6.50
  -5   5   6   24.60    6.20
   5   5  -6   44.60   10.10
   4  -5  -6  110.79   11.10
   4   5  -6  131.19   15.20
  -4   5   6  116.89   10.70
   3  -5  -6   30.00    6.00
  -3   5   6   29.50    6.00
   3   5  -6   44.30    9.10
   2  -5  -6  166.08   11.80
  -2   5   6  172.38   12.70
   2   5  -6  210.78   16.30
   1  -5  -6   20.80    4.80
  -1   5   6   25.10    6.40
   1   5  -6   34.00    8.20
   0  -5  -6  132.19    9.70
   0   5   6  134.09   12.10
   0   5  -6  159.28   14.40
  -1  -5  -6    2.80    3.80
   1   5   6   12.30    6.30
  -1   5  -6   -1.20    6.80
  -2  -5  -6   41.00    6.40
  -2   5  -6   20.30    7.00
  -2   5  -6   40.20   11.40
   2   5   6   28.70    7.40
  -3  -5  -6  104.49    9.20
  -3   5  -6  127.09   11.90
   3   5   6  131.09   13.30
   4  -5   6   56.19   10.40
  -4  -5  -6   28.70    5.90
   4   5   6   41.10    8.90
   5  -5   6  130.59   18.80
   5   5   6  106.29   14.60
  11   0  -7  140.89   14.60
 -11   0   7  170.08   16.50
 -10   0   7   -2.80    7.50
  10   0  -7    3.30    5.40
  -9   0   7   44.20    7.80
  -9   0   7   50.69    9.40
   9   0  -7   41.50    7.90
   8   0  -7  519.55   25.50
  -8   0   7  536.75   27.30
   7   0  -7   27.00    4.60
  -7   0   7   23.90    6.20
   7   0  -7   15.00    4.30
  -7   0   7   16.90    5.10
  -6   0   7   60.09    7.30
   6   0  -7   66.09    5.40
   6   0  -7   55.69    6.40
   5   0  -7   -0.30    1.80
   5   0  -7   -2.30    2.40
   4   0  -7    3.40    1.50
  -4   0   7   -1.20    2.70
  -4   0   7    1.10    2.80
   4   0  -7   -0.60    2.20
  -3   0   7   -0.70    2.20
   3   0  -7    0.80    1.40
   3   0  -7   -1.90    1.90
  -2   0   7  239.48   12.30
  -2   0   7  232.88   11.60
   2   0  -7  237.68   11.00
   2   0  -7  240.18   12.00
  -1   0   7   10.50    2.50
   1   0  -7    9.60    2.30
   1   0  -7    9.20    1.70
   0   0   7  613.24   27.70
   0   0   7  666.33   28.40
   0   0  -7  614.14   28.20
   0   0  -7  615.34   27.70
   1   0   7   53.09    3.60
   1   0   7   55.29    4.50
  -1   0  -7   52.89    4.00
   2   0   7  895.01   39.30
  -2   0  -7  903.31   39.70
   2   0   7  935.31   39.60
  -2   0  -7  855.51   39.70
  -3   0  -7   31.70    4.30
   3   0   7   36.50    3.60
  -3   0  -7   45.20    4.50
   3   0   7   37.10    3.80
   4   0   7  238.88   13.30
   4   0   7  240.08   11.80
  -4   0  -7  259.57   12.80
   4   0   7  237.68   12.20
   5   0   7   -1.10    2.40
   5   0   7   -2.60    3.30
   6   0   7   17.00    4.80
   7   0   7   22.00    6.90
   8   0   7   68.29   12.20
   9   0   7    6.50    8.50
  11  -1  -7   69.99   12.70
 -11  -1   7   55.29   11.50
  11   1  -7   54.39    8.40
 -11   1   7   59.59   11.00
  10  -1  -7   63.39   10.60
 -10  -1   7   49.00    9.50
 -10   1   7   44.20    9.10
  -9  -1   7   15.50    6.80
   9  -1  -7   14.30    5.10
  -9   1   7    3.30    6.30
  -8  -1   7   31.40    6.90
   8  -1  -7   19.20    5.30
   7  -1  -7   -3.00    3.70
   7  -1  -7    5.80    3.40
  -7   1   7   -8.60    7.10
   7   1  -7    3.90    4.60
  -7   1   7    8.70    4.40
   6  -1  -7   24.10    4.30
  -6  -1   7   28.20    4.90
   6  -1  -7   30.10    4.90
  -6   1   7   20.10    6.10
   6   1  -7   23.70    4.20
  -6   1   7   26.90    4.60
   5  -1  -7  138.79    8.90
   5  -1  -7  161.18    8.90
  -5  -1   7  161.08   10.00
  -5   1   7  147.79   10.60
   5   1  -7  146.29    9.30
  -5   1   7  137.49    9.50
   4  -1  -7   91.69    5.90
   4  -1  -7   85.49    6.10
  -4  -1   7   85.29    7.10
  -4   1   7   84.89    6.50
  -4   1   7   75.89    6.90
   4   1  -7   85.19    6.60
   3  -1  -7  285.67   14.20
  -3  -1   7  286.37   14.60
   3  -1  -7  290.17   13.70
   3   1  -7  279.77   14.30
  -3   1   7  265.87   14.30
  -3   1   7  290.37   14.50
   2  -1  -7   21.20    3.70
  -2  -1   7   23.90    3.80
   2  -1  -7   22.90    2.70
  -2   1   7   23.70    3.50
   2   1  -7   19.60    3.30
  -2   1   7   22.40    3.60
   1  -1  -7  168.28    8.40
  -1  -1   7  162.58    9.40
   1  -1  -7  169.98    9.30
   1   1  -7  173.78    9.40
  -1   1   7  166.78    8.80
  -1   1   7  176.28    9.20
   0  -1   7  269.77   14.10
   0  -1  -7  294.87   13.50
   0  -1  -7  299.47   14.50
   0  -1   7  312.17   13.30
   0   1   7  280.57   13.80
   0   1   7  301.97   14.40
   0   1  -7  293.67   14.20
   0   1  -7  272.97   13.50
   1  -1   7  500.75   21.80
   1  -1   7  494.35   22.40
  -1  -1  -7  493.25   22.90
   1  -1   7  449.36   22.20
  -1  -1  -7  494.85   22.00
   1   1   7  496.65   22.50
  -1   1  -7  495.45   22.20
   1   1   7  474.85   22.10
   2  -1   7  131.79    8.00
   2  -1   7  131.29    7.10
  -2  -1  -7  142.49    8.60
   2  -1   7  124.19    7.40
  -2  -1  -7  136.39    7.40
  -2   1  -7  131.49    7.20
   2   1   7  140.29    7.70
   2   1   7  132.79    7.20
  -3  -1  -7  374.76   17.70
   3  -1   7  369.76   18.30
  -3  -1  -7  380.36   18.40
   3  -1   7  371.66   17.50
   3   1   7  349.87   17.20
   3   1   7  380.86   17.70
   4  -1   7   74.09    6.20
  -4  -1  -7   79.09    6.10
  -4  -1  -7   87.29    7.30
   4  -1   7   87.19    7.20
   4   1   7   74.09    5.40
   4   1   7   79.09    5.90
   5  -1   7   23.90    5.20
  -5  -1  -7   25.20    5.00
   5  -1   7   31.60    5.70
   5   1   7   23.40    3.70
   5   1   7   25.50    4.80
   6  -1   7   99.49   10.20
   6   1   7   88.49    8.90
   6   1   7   93.69    7.20
   6   1   7   96.59   10.20
   7  -1   7   12.80    6.60
   7   1   7    9.20    6.30
   7   1   7   13.40    5.70
   7   1   7   19.40    4.10
   8  -1   7   89.69   13.60
   8   1   7  123.39   12.60
   9  -1   7  -13.30    8.20
   9   1   7    8.40    8.70
  10  -2  -7   34.40    7.60
 -10  -2   7   31.20    9.90
 -10   2   7   24.70    8.80
   9  -2  -7   81.49   10.40
  -9  -2   7   69.99   10.30
  -9   2   7   67.59   11.20
  -8  -2   7   37.00    7.60
   8  -2  -7   45.60    8.10
  -8   2   7   38.40    6.50
  -7  -2   7   55.29    9.20
   7  -2  -7   43.10    7.00
   7  -2  -7   37.40    6.40
  -7   2   7   43.60    7.90
   6  -2  -7  177.78   10.90
   6  -2  -7  167.38   11.40
  -6  -2   7  206.78   12.90
  -6   2   7  165.58   11.10
  -6   2   7  138.39   13.40
   5  -2  -7    1.20    3.50
  -5  -2   7    1.50    3.90
   5  -2  -7    2.70    2.80
   5   2  -7    2.20    3.90
  -5   2   7    1.20    3.60
   4  -2  -7  136.99    9.20
   4  -2  -7  148.59    8.70
  -4  -2   7  156.28   10.10
   4   2  -7  149.99    9.80
  -4   2   7  132.19    9.80
  -4   2   7  128.69    8.80
   3  -2  -7  282.37   13.70
   3  -2  -7  263.67   14.30
  -3   2   7  259.87   13.80
  -3   2   7  271.57   14.60
   3   2  -7  269.27   14.50
   2  -2  -7  114.79    8.00
  -2  -2   7  130.19    8.70
  -2   2   7  126.59    8.00
   2   2  -7  126.09    8.50
  -1  -2   7   19.50    3.70
   1  -2  -7   13.40    3.20
   1  -2  -7   16.90    2.90
  -1   2   7   16.10    3.00
   1   2  -7   14.50    3.70
  -1   2   7   12.20    2.40
   0  -2  -7   19.60    3.70
   0  -2   7   20.60    3.60
   0   2  -7   19.30    3.50
   0   2   7   19.30    3.50
   0   2   7   20.10    3.60
   1  -2   7  188.88   10.60
   1  -2   7  206.68   10.70
  -1  -2  -7  196.08    9.90
   1  -2   7  203.48    9.70
  -1  -2  -7  189.78   11.50
   1   2   7  209.48   10.90
   1   2   7  195.98   10.30
  -1   2  -7  181.88   10.70
   2  -2   7  275.97   14.10
  -2  -2  -7  263.97   14.70
  -2  -2  -7  270.27   13.10
   2  -2   7  275.17   13.20
   2   2   7  273.57   14.20
  -2   2  -7  258.27   13.20
   2   2   7  257.17   13.20
  -3  -2  -7   61.29    5.20
   3  -2   7   63.39    7.10
  -3  -2  -7   73.29    7.50
   3  -2   7   72.49    6.20
   3   2   7   58.99    5.00
  -4  -2  -7  139.99    8.80
   4  -2   7  136.59   10.60
  -4  -2  -7  137.79   10.70
   4  -2   7  143.29    9.60
   4   2   7  134.49    9.20
   4   2   7  137.09    8.30
  -5  -2  -7   13.80    3.70
   5  -2   7   13.30    5.70
   5  -2   7   11.20    4.90
   5   2   7   16.10    4.00
   6  -2   7   49.90    7.60
   6   2   7   41.00    7.00
   6   2   7   45.90    8.40
   7  -2   7   64.29    8.80
   7   2   7   53.69   10.10
   7   2   7   73.99   10.20
   7   2   7   72.29    8.60
   8   2   7   17.00    6.00
   8   2   7    7.50   10.50
   8   2   7    6.70    7.40
   9  -2   7   74.59   10.80
   9  -3  -7   11.90    6.70
  -9  -3   7   19.50    9.70
  -9   3   7    7.30    7.40
   8  -3  -7   32.00    6.70
  -8  -3   7   48.80    9.10
  -8   3   7   29.90    7.30
   7  -3  -7   48.30    8.60
  -7  -3   7   59.69   11.10
  -7   3   7   75.29    8.80
  -6   3   7   36.50    5.90
   5  -3  -7   64.09    6.80
  -5  -3   7   61.79    9.00
   5  -3  -7   47.70    8.70
   4  -3  -7  110.69    7.90
   4  -3  -7   98.99    9.80
  -4   3   7   99.99    8.10
   3  -3  -7  205.28   11.10
   3  -3  -7  180.28   12.40
  -3  -3   7  209.88   12.80
  -3   3   7  191.88   11.20
  -3   3   7  185.88   12.60
   3   3  -7  194.38   13.30
   2  -3  -7  304.57   14.80
   2  -3  -7  287.67   16.40
  -2  -3   7  305.87   16.40
  -2   3   7  282.47   15.10
  -2   3   7  280.97   15.90
   2   3  -7  280.07   16.50
   1  -3  -7   11.50    2.80
   1  -3  -7    9.20    4.00
  -1   3   7    9.20    2.90
   1   3  -7    5.20    4.90
  -1   3   7   10.50    3.30
   0  -3  -7   23.40    4.60
   0  -3   7   37.90    6.10
   0  -3  -7   28.40    3.70
   0   3   7   26.00    4.70
   0   3   7   25.20    4.20
   0   3  -7   26.60    5.30
  -1  -3  -7    2.20    2.20
  -1  -3  -7    2.10    4.20
   1  -3   7    9.70    3.70
   1   3   7    1.10    2.80
  -1   3  -7   -3.10    3.90
   1   3   7    1.70    2.90
  -2  -3  -7   91.79    9.50
   2  -3   7   71.39    7.10
   2  -3   7   77.09    6.80
   2  -3   7   82.19    7.30
  -2  -3  -7   78.89    5.80
  -2   3  -7   65.99    7.50
   2   3   7   76.39    6.70
   2   3   7   83.19    7.60
   3  -3   7   71.29    7.80
  -3  -3  -7   77.79   10.00
   3   3   7   89.29    8.40
   4  -3   7   41.00    5.80
   4  -3   7   32.00    5.70
   4   3   7   46.30    7.30
   5  -3   7   69.09    7.90
  -5  -3  -7   69.29    7.80
   5   3   7   85.09    9.10
   6  -3   7   10.40    5.60
  -6  -3  -7   21.60    5.30
   6   3   7   21.90    6.10
   7  -3   7   27.90    7.10
   7   3   7   14.80    7.10
   7   3   7   14.70    6.30
   8  -3   7   41.10    8.50
   8   3   7   53.49    8.80
   8   3   7   37.30    9.00
   8  -4  -7   79.39   11.60
  -8  -4   7   61.09   11.50
  -8   4   7   68.49   12.20
  -7  -4   7   48.60    9.80
   7  -4  -7   38.60    7.40
  -7   4   7   28.20    7.70
   6  -4  -7    6.60    5.30
  -6  -4   7   14.90    8.00
  -6   4   7    8.30    5.80
   5  -4  -7   69.89    8.70
  -5  -4   7   73.79   12.50
  -5   4   7   55.89    8.40
   4  -4  -7   63.09    7.70
  -4  -4   7   69.89   11.40
  -4   4   7   76.59    7.80
  -3  -4   7  475.45   25.10
   3  -4  -7  450.25   22.80
  -3   4   7  453.65   23.10
  -2  -4   7   -0.10    5.60
   2  -4  -7    5.20    3.50
  -2   4   7    4.20    3.60
   1  -4  -7   58.89    6.30
  -1  -4   7   63.09    9.40
  -1   4   7   64.19    7.30
   0  -4   7   31.40    6.00
   0  -4  -7   26.90    4.80
   0   4  -7   28.80    7.10
   0   4   7   20.50    4.50
  -1  -4  -7  115.69    8.00
  -1   4  -7  109.69   11.70
   1   4   7  131.39   10.30
  -1   4  -7  141.69   11.20
  -2  -4  -7   38.80    5.30
  -2   4  -7   35.70    6.10
   2   4   7   43.20    7.50
  -3  -4  -7   22.00    4.20
   3   4   7   26.30    5.80
  -4  -4  -7    0.70    4.20
   4   4   7    0.40    5.70
  -5  -4  -7   21.00    5.70
   5   4   7   17.90    7.00
  -6  -4  -7   -4.10    5.80
   6   4   7   -3.80    7.20
   7   4   7   51.39    9.70
  -6  -5   7   34.90   11.00
  -6   5   7   40.80    8.40
  -5  -5   7    9.20    8.60
   5  -5  -7    5.50    6.20
  -5   5   7   -1.10    6.90
   4  -5  -7   15.80    6.20
  -4  -5   7   17.70    8.40
  -4   5   7   26.10    6.20
   3  -5  -7   10.80    5.30
  -3   5   7    5.70    5.90
   2  -5  -7   69.99    8.60
  -2   5   7   64.49    9.40
   2   5  -7  100.39   13.70
   1  -5  -7    4.70    4.30
   1   5  -7   16.10    7.80
  -1   5   7    9.90    5.40
   0  -5  -7   81.99    7.90
   0   5   7   88.09   10.30
   0   5  -7  118.09   14.10
  -1  -5  -7   36.90    6.60
  -1   5  -7   31.90    8.70
   1   5   7   39.80    7.70
  -2  -5  -7   31.20    5.30
   2   5   7   34.80    7.50
  -2   5  -7   28.30    7.90
  -3  -5  -7   21.50    5.50
   3   5   7   24.80    7.50
  -4  -5  -7  125.69   11.20
   4   5   7  155.28   15.20
  11   0  -8    1.10    6.60
 -11   0   8  -12.40   10.40
  10   0  -8  123.99   11.00
 -10   0   8  125.99   14.50
  -9   0   8   23.00    7.40
   9   0  -8   40.10    7.10
  -9   0   8   30.40    8.20
   8   0  -8  172.38   10.80
  -8   0   8  192.78   14.80
  -8   0   8  159.98   13.10
   6   0  -8   17.00    3.90
  -6   0   8   19.50    5.80
  -6   0   8   27.40    5.30
   6   0  -8   24.60    4.20
  -5   0   8   10.00    3.80
   5   0  -8    5.60    2.90
   5   0  -8    6.60    2.10
  -5   0   8    0.90    4.10
  -4   0   8   92.39    7.30
   4   0  -8  102.89    5.90
  -4   0   8  105.59    7.60
   4   0  -8   94.79    7.10
  -3   0   8    1.80    2.30
   3   0  -8    2.30    1.60
   3   0  -8    1.70    2.40
  -3   0   8    4.40    2.80
   2   0  -8    0.30    1.20
  -2   0   8    3.60    2.80
   2   0  -8   -1.40    2.20
  -2   0   8    0.20    1.80
   1   0  -8   22.20    2.50
  -1   0   8   18.80    3.20
   1   0  -8   15.30    2.90
  -1   0   8   23.20    3.00
   0   0   8  348.77   16.20
   0   0  -8  335.37   15.40
   0   0  -8  324.27   16.00
   0   0   8  319.57   15.40
   1   0   8   57.59    5.30
  -1   0  -8   55.29    4.40
  -1   0  -8   51.69    5.00
   1   0   8   52.79    4.00
   2   0   8  104.79    6.70
  -2   0  -8  100.49    6.70
  -2   0  -8   90.39    6.40
   2   0   8   93.89    5.70
  -3   0  -8  162.78    9.50
   3   0   8  174.78    9.10
   3   0   8  148.99    8.70
  -3   0  -8  177.08    9.70
   4   0   8   24.50    4.10
   4   0   8   28.50    4.30
   4   0   8   21.10    4.10
   5   0   8  294.07   16.60
   6   0   8   73.29    9.10
   7   0   8   71.99   11.00
   8   0   8   10.30    8.10
   9   0   8   97.89   17.00
 -11  -1   8   51.49   12.00
  11  -1  -8   71.89   12.10
 -11   1   8   47.40   11.30
  10  -1  -8    9.60    5.90
 -10  -1   8    8.90    8.50
 -10   1   8    7.80    8.70
  -9  -1   8   70.09   10.50
   9  -1  -8   72.59    8.80
   8  -1  -8   43.60    7.00
  -8  -1   8   43.50    7.80
  -8   1   8   41.00    7.30
   7  -1  -8   24.90    4.50
  -7  -1   8   31.50    5.90
  -7   1   8   32.70    8.00
   6  -1  -8   51.39    5.60
  -6  -1   8   39.60    7.10
   6   1  -8   37.70    6.60
  -6   1   8   37.30    7.30
  -6   1   8   36.50    6.50
  -5  -1   8  155.28   10.20
   5  -1  -8  123.79    8.70
   5   1  -8  135.89    9.30
  -5   1   8  127.79    9.60
  -5   1   8  144.49   10.70
   4  -1  -8   60.99    5.70
   4  -1  -8   71.79    5.30
  -4  -1   8   64.49    6.80
   4   1  -8   61.09    6.40
  -4   1   8   70.39    6.10
  -4   1   8   76.49    7.30
   3  -1  -8  466.55   20.70
  -3  -1   8  447.46   22.30
   3  -1  -8  439.36   21.40
  -3   1   8  449.16   21.60
   3   1  -8  434.66   21.50
   2  -1  -8   54.79    5.10
   2  -1  -8   45.80    3.90
  -2  -1   8   48.70    6.00
   2   1  -8   47.00    5.80
  -2   1   8   48.80    4.90
  -2   1   8   49.30    4.70
   1  -1  -8  184.88   10.50
  -1  -1   8  190.58   10.70
   1  -1  -8  193.38    9.50
   1   1  -8  189.68   10.60
  -1   1   8  182.68    9.90
  -1   1   8  188.68   10.30
   0  -1   8  172.88    8.20
   0  -1  -8  163.78    8.40
   0  -1   8  159.28    9.50
   0  -1  -8  171.08    9.70
   0   1   8  156.48    8.80
   0   1  -8  157.78    8.60
   0   1   8  171.38    9.50
   0   1  -8  170.98    9.40
   1  -1   8  180.58   10.50
  -1  -1  -8  197.58   11.10
  -1  -1  -8  203.48    9.90
   1  -1   8  193.98    9.60
   1   1   8  191.58   10.00
   1   1   8  199.98   10.70
  -1   1  -8  207.88   10.60
   2  -1   8    2.80    2.00
   2  -1   8    4.40    2.80
  -2  -1  -8    4.50    3.30
  -2  -1  -8    2.50    2.10
   2  -1   8    3.90    2.80
  -2   1  -8    3.70    2.50
   2   1   8    7.00    2.50
   2   1   8    6.60    2.00
   3  -1   8   82.09    7.30
  -3  -1  -8   92.69    7.70
  -3  -1  -8   83.99    6.10
   3  -1   8   79.59    5.90
   3   1   8   77.49    5.60
   3   1   8   90.39    6.10
  -4  -1  -8  192.38   11.50
   4  -1   8  168.28    9.90
  -4  -1  -8  172.38   10.30
   4  -1   8  184.98   11.40
   4   1   8  150.98    9.30
   4   1   8  180.38    9.90
   5  -1   8   11.80    5.30
  -5  -1  -8    3.10    4.60
   5   1   8    1.00    3.20
   6  -1   8   13.30    6.10
   6   1   8   10.10    3.50
   6   1   8    5.20    6.00
   6   1   8   14.70    5.20
   7   1   8   28.30    7.80
   7   1   8   41.00    7.40
   7   1   8   48.60    6.90
   8  -1   8   35.00    9.30
   8   1   8   47.70    8.50
   9  -1   8    0.90    9.50
   9   1   8   -7.30    9.80
 -10  -2   8   10.90   10.50
  10  -2  -8   12.50    7.00
 -10   2   8   21.70    9.30
  -9  -2   8   -0.30    8.80
   9  -2  -8   -2.20    5.60
  -9   2   8    4.40    7.00
   8  -2  -8    7.20    4.70
  -8  -2   8   24.10    7.10
  -8   2   8    6.70    5.80
   7  -2  -8  130.49    9.70
  -7  -2   8  143.19   11.80
  -7   2   8  105.69   10.70
   6  -2  -8   23.40    4.30
   6  -2  -8   18.20    5.40
   5  -2  -8   19.40    3.60
   5  -2  -8   10.20    4.30
   5   2  -8   17.30    4.60
  -5   2   8    9.90    4.10
  -5   2   8   13.70    5.50
   4  -2  -8  312.47   15.10
   4  -2  -8  276.27   15.60
  -4  -2   8  315.27   16.60
   4   2  -8  306.67   16.10
  -4   2   8  261.57   15.10
  -4   2   8  288.67   16.60
  -3  -2   8   77.29    7.50
   3  -2  -8   76.79    5.80
   3  -2  -8   82.39    7.30
  -3   2   8   78.69    6.60
  -3   2   8   71.39    7.20
   3   2  -8   73.59    7.70
   2  -2  -8  224.28   13.30
   2  -2  -8  258.17   12.30
  -2   2   8  238.58   13.10
  -2   2   8  234.58   12.90
   2   2  -8  248.68   13.50
  -1  -2   8   71.49    6.60
   1  -2  -8   67.59    6.50
   1  -2  -8   57.19    4.50
  -1   2   8   65.59    5.30
   1   2  -8   55.29    6.90
  -1   2   8   53.29    5.70
   0  -2  -8  271.17   12.60
   0  -2   8  252.77   13.70
   0  -2  -8  257.57   14.30
   0   2   8  249.58   13.20
   0   2   8  268.37   13.40
   0   2  -8  244.68   13.60
   1  -2   8   55.19    6.00
  -1  -2  -8   48.10    4.10
   1  -2   8   43.30    5.80
  -1  -2  -8   47.80    6.30
   1  -2   8   48.40    4.10
   1   2   8   46.90    5.30
   1   2   8   50.69    5.00
  -1   2  -8   40.00    5.90
   2  -2   8  184.78   10.30
  -2  -2  -8  182.88   12.00
  -2  -2  -8  192.48   10.00
   2  -2   8  201.18   11.70
   2  -2   8  186.18   10.00
   2   2   8  195.08   11.00
   2   2   8  183.28   10.30
  -3  -2  -8  167.98    9.70
  -3  -2  -8  182.98   12.30
   3  -2   8  167.78   10.00
   3  -2   8  179.78   11.50
   3   2   8  159.18    9.50
   3   2   8  175.08   10.50
   4  -2   8  245.48   14.00
   4  -2   8  261.27   15.40
  -4  -2  -8  237.58   13.50
  -4  -2  -8  267.87   16.10
   4   2   8  255.57   14.00
   5  -2   8   55.19   10.00
  -5  -2  -8   62.29   10.20
  -5  -2  -8   51.99    7.00
   5   2   8   65.19    7.20
   6  -2   8   77.09   11.50
   6   2   8   77.09    7.90
   6   2   8   56.79    9.50
   7  -2   8   41.30    8.70
   7   2   8   37.00    6.00
   7   2   8   24.70   10.10
   7   2   8   39.10    8.10
   8   2   8   18.70    8.30
   9  -3  -8   29.00    7.60
  -9  -3   8   42.00   10.30
  -9   3   8   23.10    8.60
  -8  -3   8   53.89    9.90
   8  -3  -8   52.59    9.80
  -8   3   8   43.10    8.20
   7  -3  -8    6.40    4.90
  -7  -3   8   18.60    7.40
  -7   3   8   18.20    5.80
  -6  -3   8  209.38   15.00
   6  -3  -8  210.48   12.80
  -6   3   8  161.38   12.70
  -5  -3   8   37.70    7.10
   5  -3  -8   49.60    6.40
  -5   3   8   41.30    6.90
   4  -3  -8   74.69    6.80
  -4  -3   8   51.69    9.00
  -4   3   8   77.99    7.30
  -3  -3   8    0.60    4.70
   3  -3  -8    4.10    2.80
  -3   3   8    5.90    3.50
   3   3  -8    3.20    5.70
  -2  -3   8   66.79    8.30
   2   3  -8   59.69    9.50
  -1  -3   8   53.29    7.50
   1  -3  -8   53.29    7.50
  -1   3   8   67.29    7.20
   1   3  -8   56.69    8.60
   0  -3  -8    2.60    4.40
   0  -3   8    5.10    4.00
   0   3  -8    3.00    4.80
  -1  -3  -8   25.60    4.00
   1  -3   8   41.00    6.60
  -1   3  -8   25.10    5.00
   2  -3   8    0.30    3.40
   2  -3   8    5.00    4.10
  -2  -3  -8   -2.30    2.60
   2   3   8    3.50    3.90
  -2   3  -8   -0.10    4.20
  -3  -3  -8   43.20    5.30
   3  -3   8   47.10    7.20
   3   3   8   33.90    5.50
   4  -3   8   19.20    5.70
  -4  -3  -8    5.70    4.10
   4   3   8   -1.60    4.60
  -5  -3  -8   36.00    5.80
   5   3   8   38.40    6.30
   6   3   8   42.10    7.10
   7   3   8   13.00    6.90
   7   3   8    5.40    7.60
  -8   4   8   78.09   13.20
  -7  -4   8   16.00    9.70
   7  -4  -8    4.60    6.30
  -7   4   8   -2.10    6.80
   6  -4  -8   17.40    5.60
  -6   4   8   16.40    6.40
   5  -4  -8  156.68   11.40
  -5  -4   8  180.68   15.50
  -5   4   8  123.49   11.40
   4  -4  -8   -2.90    4.30
  -4  -4   8   25.00    7.30
  -4   4   8   -2.10    5.40
  -3  -4   8  135.89   12.70
   3  -4  -8  124.39    9.20
  -3   4   8  102.59    9.50
   2  -4  -8   28.20    4.80
  -2  -4   8   44.90    7.20
  -2   4   8   33.20    5.80
   1  -4  -8   13.90    3.60
  -1   4   8   17.00    4.90
   0  -4  -8   15.80    3.80
   0  -4   8   14.70    5.60
   0   4  -8   13.40    7.70
   0   4   8   12.00    4.80
  -1  -4  -8   87.99    7.20
   1  -4   8  116.09   10.50
  -1   4  -8   89.29   11.70
   1   4   8  103.79    9.40
  -2  -4  -8   18.40    3.80
   2   4   8   22.80    5.80
  -2   4  -8   13.40    6.70
  -2   4  -8   25.30    6.10
  -3  -4  -8    5.60    4.20
   3  -4   8    5.70    6.00
   3   4   8    1.50    6.10
  -4  -4  -8    6.30    4.70
   4   4   8    6.10    6.10
   5  -4   8   11.40    6.90
  -5  -4  -8   16.10    5.90
   5   4   8   15.00    7.10
  -6  -4  -8   -0.10    6.90
   6  -4   8   12.20    8.00
   6   4   8    6.90    7.70
   5  -5  -8    4.90    6.40
  -5  -5   8   10.60   10.10
  -5   5   8    6.90    7.20
   4  -5  -8   13.50    6.10
  -4  -5   8   13.30    9.20
  -4   5   8   23.60    7.50
   3  -5  -8   -4.20    5.30
  -3  -5   8   10.10    8.60
  -3   5   8   19.90    6.10
   2  -5  -8    8.90    5.30
  -2  -5   8   -2.40    7.90
  -2   5   8    8.20    6.20
   1  -5  -8    9.80    4.90
   1   5  -8   19.70    8.90
  -1   5   8   19.70    6.10
   0  -5  -8    2.00    4.50
   0   5  -8    8.60    8.50
   0   5   8   -6.60    5.60
  -1  -5  -8   16.00    4.80
  -1   5  -8   21.70    9.40
   1   5   8   21.60    7.20
  -2  -5  -8    9.40    5.20
  -2   5  -8   -1.40    7.70
   2   5   8   10.20    6.80
  -3  -5  -8   26.30    5.90
   3   5   8   10.20    8.70
  10   0  -9  240.28   15.00
 -10   0   9  227.78   18.10
  -9   0   9    5.20    7.50
   9   0  -9    6.30    4.80
   8   0  -9   25.30    4.50
  -8   0   9   41.10    9.20
  -8   0   9   15.30    6.90
   7   0  -9   78.39    6.50
  -7   0   9   57.79    7.80
  -7   0   9   70.29    9.70
  -6   0   9  379.26   20.40
   6   0  -9  360.66   17.70
  -5   0   9   52.29    7.80
   5   0  -9   60.29    4.80
  -5   0   9   56.49    7.00
   5   0  -9   50.19    6.30
   4   0  -9   21.50    3.30
  -4   0   9   21.00    4.20
  -4   0   9   20.20    4.30
   4   0  -9   16.70    4.00
   3   0  -9  234.78   10.80
  -3   0   9  231.88   12.00
   3   0  -9  209.78   12.10
  -3   0   9  212.38   12.40
   2   0  -9    3.40    2.90
   2   0  -9    0.30    1.60
  -2   0   9   -1.30    2.20
  -1   0   9    2.00    2.90
   1   0  -9   -0.80    1.70
  -1   0   9    2.00    1.90
   1   0  -9   -0.60    2.60
   0   0   9   55.09    5.50
   0   0  -9   58.99    4.40
   0   0   9   46.00    4.30
   0   0  -9   48.40    5.70
  -1   0  -9   -0.60    2.20
   1   0   9    9.40    3.10
  -1   0  -9    2.10    2.80
   1   0   9    3.70    2.00
  -2   0  -9   -1.80    2.60
   2   0   9    0.90    3.30
  -2   0  -9   -0.50    2.90
   2   0   9    2.00    2.00
   3   0   9   23.30    3.90
   3   0   9   25.70    4.20
  -3   0  -9   21.40    4.00
  -3   0  -9   33.10    6.00
  -4   0  -9  450.55   21.10
   4   0   9  400.76   20.50
   4   0   9  438.76   20.50
   5   0   9  240.08   15.00
   6   0   9   74.69   10.10
   7   0   9  120.99   13.40
   8   0   9   16.90    8.80
  10  -1  -9   50.49    8.00
 -10  -1   9   83.19   14.50
 -10   1   9   42.30   10.30
   9  -1  -9    1.60    4.70
  -9  -1   9    7.00    8.10
  -9   1   9    4.30    7.50
  -8  -1   9   83.69   11.20
   8  -1  -9   79.19    8.00
  -8   1   9   78.19   10.80
  -7  -1   9  245.38   15.30
   7  -1  -9  242.98   13.30
  -7   1   9  254.67   18.70
  -7   1   9  198.48   14.50
   6  -1  -9   86.89    6.70
  -6  -1   9   69.09    8.70
  -6   1   9   65.99    8.80
  -6   1   9   64.29    8.20
  -5  -1   9   10.50    4.60
   5  -1  -9   17.20    3.20
   5  -1  -9   12.10    3.60
   5   1  -9    9.50    4.30
  -5   1   9    8.90    5.20
  -5   1   9   14.50    4.60
   4  -1  -9    9.70    2.60
  -4  -1   9    9.70    4.30
   4  -1  -9    6.70    3.30
  -4   1   9    9.00    3.70
  -4   1   9    9.40    4.30
   4   1  -9    6.90    4.00
   3  -1  -9  856.61   39.80
  -3  -1   9  916.01   40.30
   3  -1  -9  937.21   39.40
   3   1  -9  880.41   40.00
  -3   1   9  859.61   39.80
  -3   1   9  792.32   39.60
   2  -1  -9  275.07   14.20
   2  -1  -9  279.67   13.10
   2   1  -9  265.37   14.40
  -2   1   9  263.67   14.00
  -2   1   9  261.67   14.30
  -1  -1   9  130.79    8.70
   1  -1  -9  123.59    8.30
  -1  -1   9  117.09    6.70
  -1   1   9  111.69    7.50
   1   1  -9  102.29    8.00
   1   1  -9  124.69    6.80
  -1   1   9  127.39    8.20
   0  -1  -9  107.79    6.10
   0  -1   9   85.39    7.40
   0  -1  -9  100.29    7.60
   0  -1   9  105.09    5.80
   0   1  -9   92.59    7.30
   0   1  -9   92.89    6.30
   0   1   9   85.79    7.30
   0   1   9   88.79    6.40
   1  -1   9  347.97   16.70
  -1  -1  -9  362.16   18.40
  -1  -1  -9  370.46   17.10
   1   1   9  344.37   17.20
   1   1   9  374.86   18.00
  -1   1  -9  374.36   17.70
   2  -1   9  376.46   18.60
  -2  -1  -9  409.66   19.20
  -2  -1  -9  428.96   20.50
  -2   1  -9  418.16   19.20
   2   1   9  374.26   18.90
   2   1   9  411.16   19.70
  -3  -1  -9   33.00    5.00
   3  -1   9   25.00    5.00
   3  -1   9   29.40    4.60
  -3  -1  -9   32.40    5.00
   3   1   9   27.90    5.10
   3   1   9   21.20    3.20
  -4  -1  -9  106.49   10.00
  -4  -1  -9   90.29    7.80
   4  -1   9  119.09    9.20
   4  -1   9   83.69    7.40
   4   1   9  109.19    7.60
   5  -1   9  129.69   11.50
  -5  -1  -9   95.39   10.70
   5   1   9  110.99    8.10
   6  -1   9  143.69   13.90
   6   1   9  143.09    9.50
   6   1   9  118.59   12.20
   6   1   9  143.09   13.60
   7  -1   9   40.90    9.00
   7   1   9   30.20    5.20
   7   1   9   21.70    7.90
   8  -1   9    6.30    9.40
   8   1   9   10.80    8.20
 -10  -2   9   32.80   11.30
  10  -2  -9   28.20    7.60
 -10   2   9   36.90   10.30
   9  -2  -9   62.89    9.80
  -9  -2   9   53.39   10.30
  -9   2   9   67.39   12.30
  -8  -2   9   21.30    7.70
   8  -2  -9   15.30    5.20
  -8   2   9   13.20    6.70
   7  -2  -9    1.30    4.10
  -7  -2   9   11.20    6.40
  -7   2   9    7.00    5.40
   6  -2  -9  169.58   10.40
  -6  -2   9  163.68   13.00
  -6   2   9  121.69   11.00
  -5  -2   9   52.99    8.60
  -5   2   9   58.39    7.60
   4  -2  -9   83.99    6.70
  -4  -2   9   96.49    9.00
   4  -2  -9   80.29    8.10
  -4   2   9   80.49    9.40
   4   2  -9   92.39    8.90
   3  -2  -9   13.20    4.70
   3  -2  -9   10.50    2.70
  -3  -2   9   13.80    4.30
  -3   2   9    6.20    4.10
  -3   2   9    4.90    3.10
   3   2  -9    5.80    4.60
   2  -2  -9  660.73   28.20
   2  -2  -9  562.24   29.10
  -2  -2   9  655.83   29.60
  -2   2   9  582.34   29.00
   2   2  -9  625.44   29.20
  -2   2   9  590.44   28.80
   1  -2  -9  126.19    7.30
   1  -2  -9  125.69    9.20
   1   2  -9  115.99    9.50
  -1   2   9  114.99    8.20
  -1   2   9  117.09    8.50
   0  -2  -9   60.09    4.60
   0  -2   9   56.19    6.80
   0  -2  -9   68.09    7.70
   0   2   9   60.49    5.90
   0   2  -9   43.60    7.30
   0   2   9   56.39    5.60
  -1  -2  -9  108.19    7.00
   1  -2   9  119.49    8.50
   1  -2   9  121.89    6.80
  -1  -2  -9  120.19    9.90
   1   2   9  128.29    8.20
   1   2   9  114.29    7.60
  -1   2  -9  105.89    8.70
  -2  -2  -9  224.58   14.30
   2  -2   9  224.68   12.50
   2  -2   9  240.88   13.70
   2  -2   9  218.68   11.60
  -2   2  -9  209.58   12.20
   2   2   9  243.08   12.90
   3  -2   9    4.80    3.40
  -3  -2  -9    3.40    5.70
   3  -2   9   13.20    5.10
  -3  -2  -9   12.60    3.60
   3   2   9    4.20    3.70
  -4  -2  -9   27.40    4.60
  -4  -2  -9   29.70    6.70
   4  -2   9   22.40    4.90
   4   2   9   26.70    4.70
   5  -2   9   40.00    7.30
  -5  -2  -9   46.30    7.30
  -5  -2  -9   30.20    7.70
   5   2   9   44.60    7.50
   6  -2   9  141.39   14.50
   6   2   9  145.59   10.90
   6   2   9  122.19   16.30
   7  -2   9   20.10    9.10
   7   2   9   13.70    7.60
   8  -2   9   32.50   10.70
   8   2   9   35.80    7.30
   8   2   9   26.20    9.40
   9  -3  -9    6.10    7.30
  -9   3   9    2.10    8.80
  -8  -3   9   11.40    9.20
   8  -3  -9    7.30    5.80
  -8   3   9   12.80    8.30
   7  -3  -9   38.10    6.60
  -7  -3   9   18.30    8.10
  -7   3   9   36.70    7.40
  -6  -3   9   46.30    8.50
   6  -3  -9   43.80    7.60
  -6   3   9   51.89    8.90
   5  -3  -9   13.90    4.30
  -5  -3   9   18.40    6.50
  -5   3   9   19.60    5.20
   4  -3  -9   21.30    4.10
  -4  -3   9   27.90    6.70
  -4   3   9   27.50    5.10
   3  -3  -9  235.68   12.90
  -3  -3   9  247.98   15.30
  -3   3   9  215.28   13.70
  -2  -3   9   96.19   10.10
   2  -3  -9   95.59    7.40
   2   3  -9   96.49   10.90
  -2   3   9  104.79    8.20
  -1  -3   9   95.79    9.60
   1  -3  -9   80.39    6.50
  -1   3   9   94.49    7.60
   1   3  -9   95.29   10.00
   0  -3   9  202.28   12.40
   0  -3  -9  187.08   10.40
   0   3  -9  172.38   13.00
   0   3   9  199.38   11.90
  -1  -3  -9  103.19    7.10
   1  -3   9  115.79    9.40
  -1   3  -9   88.39    9.90
   1   3   9  110.69    8.80
   2  -3   9   18.10    4.10
  -2  -3  -9   18.60    3.80
   2   3   9   13.90    4.60
  -2   3  -9    7.10    5.20
  -3  -3  -9   52.79    6.00
   3  -3   9   33.60    6.90
   3  -3   9   45.60    7.70
   3   3   9   47.00    7.90
   4  -3   9   -0.70    6.10
  -4  -3  -9    1.90    4.30
   4   3   9   -0.30    5.10
   5  -3   9    1.30    6.90
   5   3   9    2.60    5.50
  -6  -3  -9   81.59   10.80
   6   3   9   77.99   10.90
   7   3   9    5.20    8.90
   7   3   9    1.70    7.00
   7  -4  -9   42.40    7.40
  -7   4   9   39.90    9.10
   6  -4  -9   18.30    5.90
  -6  -4   9   34.30    9.60
  -6   4   9   18.40    6.90
   5  -4  -9   82.79    9.20
  -5   4   9   67.49   10.20
   4  -4  -9   15.90    4.80
  -4  -4   9   25.40    8.10
  -4   4   9   11.60    5.70
   3  -4  -9    4.30    3.90
  -3  -4   9   17.10    7.20
  -3   4   9   11.80    5.40
   2  -4  -9   -0.40    3.70
  -2  -4   9   13.80    6.50
  -2   4   9    2.30    4.80
  -1  -4   9  245.08   16.10
   1  -4  -9  209.08   12.40
  -1   4   9  204.48   13.80
   0  -4   9   24.80    7.30
   0  -4  -9   26.30    4.20
   0   4   9   21.20    5.40
   0   4  -9   29.00    8.50
  -1  -4  -9   85.19    7.10
   1  -4   9  107.29   11.20
  -1   4  -9   74.89   12.30
   1   4   9   95.59    9.70
  -2  -4  -9   17.00    4.30
   2   4   9   23.00    6.40
  -3  -4  -9   56.69    7.40
   3  -4   9   41.50    7.60
   3  -4   9   58.29    9.80
   3   4   9   60.99   10.10
   4  -4   9    1.50    6.60
  -4  -4  -9    3.70    5.60
   4   4   9    6.70    6.30
  -5  -4  -9   22.50    6.80
   5  -4   9   13.70    7.70
   5   4   9    9.80    7.40
  -4  -5   9   21.20    9.60
   4  -5  -9   18.80    6.70
  -3  -5   9   10.90    9.30
   3  -5  -9    5.60    6.00
  -3   5   9   10.00    6.70
  -2  -5   9   21.90    8.90
   2  -5  -9    4.70    5.50
  -2   5   9   15.70    7.00
   1  -5  -9   16.70    5.50
  -1   5   9    6.50    6.60
   0  -5  -9    0.60    4.90
   0   5   9   -8.90    6.10
   0   5  -9   -0.90    8.70
  -1  -5  -9    8.40    4.90
  -1   5  -9    3.00    9.20
   1   5   9   -1.90    6.60
  -2  -5  -9   17.10    5.90
   2   5   9   27.70    7.80
 -10   0  10   32.60   10.70
  10   0 -10   32.00    6.70
  -9   0  10   -1.10    8.50
   9   0 -10    9.00    4.60
   8   0 -10   39.80    6.50
  -8   0  10   27.50    8.00
  -7   0  10   74.69   10.30
   7   0 -10   87.29    6.90
  -6   0  10  850.41   38.70
  -6   0  10  751.12   38.00
  -5   0  10   10.50    4.40
   5   0 -10    2.20    2.30
  -5   0  10   -5.20    4.90
   4   0 -10   82.09    8.00
   4   0 -10  112.09    6.30
  -4   0  10  113.59    8.80
  -4   0  10   98.09    8.60
   3   0 -10    6.00    2.00
  -3   0  10   11.50    4.30
  -3   0  10    8.50    3.60
   3   0 -10   13.40    3.80
   2   0 -10   24.00    4.40
  -2   0  10   24.30    4.40
   2   0 -10   32.10    3.40
  -2   0  10   20.80    3.50
  -1   0  10    9.80    2.70
  -1   0  10    8.90    4.00
   1   0 -10    6.60    2.30
   1   0 -10    4.80    3.40
   0   0 -10   24.40    4.00
   0   0 -10   16.30    3.90
   0   0  10   13.20    2.70
   0   0  10   19.70    4.40
  -1   0 -10    1.50    2.80
  -1   0 -10    2.60    3.50
   1   0  10    6.60    2.50
   1   0  10    6.00    3.60
   2   0  10   16.00    3.20
  -2   0 -10   16.90    4.20
  -2   0 -10   16.50    3.90
   3   0  10   11.10    4.00
  -3   0 -10    4.90    4.50
   3   0  10   -0.30    2.80
  -3   0 -10    2.90    3.70
  -4   0 -10  179.48   12.00
   4   0  10  183.18   12.70
   4   0  10  182.28   11.00
   5   0  10   14.60    5.40
   6   0  10    8.80    6.40
   7   0  10   25.30    8.30
   8   0  10   48.40   11.50
  10  -1 -10   10.40    6.70
 -10  -1  10    7.70   11.00
  -9  -1  10   42.70   10.30
   9  -1 -10   35.40    6.10
  -9   1  10   29.20    8.70
  -8  -1  10   27.40    7.10
   8  -1 -10   23.90    5.30
  -8   1  10   29.50    7.50
  -7  -1  10  115.49   11.70
   7  -1 -10  127.29    9.10
  -7   1  10  120.39   11.20
   6  -1 -10  138.99    8.60
  -6  -1  10  125.99   11.10
  -6   1  10  112.29   13.30
  -6   1  10  108.49   10.20
  -5  -1  10  175.98   12.30
   5  -1 -10  191.18   10.20
  -5   1  10  158.08   11.60
  -5   1  10  161.58   13.10
   4  -1 -10   69.19    5.50
   4  -1 -10   52.39    7.00
  -4  -1  10   58.89    7.90
  -4   1  10   76.79    8.80
   4   1 -10   64.29    7.90
   3  -1 -10   62.09    7.00
  -3  -1  10   58.79    7.90
   3  -1 -10   65.19    5.00
  -3   1  10   60.99    6.70
   3   1 -10   42.00    7.40
  -3   1  10   59.89    7.20
   2  -1 -10   55.39    6.70
  -2  -1  10   64.69    7.60
   2  -1 -10   57.69    4.70
  -2   1  10   59.79    6.40
  -2   1  10   54.89    6.60
   1  -1 -10    1.00    3.60
   1  -1 -10    3.60    2.10
  -1  -1  10    7.50    4.30
  -1  -1  10    1.60    2.30
  -1   1  10    4.40    3.40
   1   1 -10   -4.60    3.50
  -1   1  10    3.70    2.90
   0  -1  10  394.96   19.60
   0  -1 -10  385.66   18.20
   0  -1  10  385.46   18.00
   0  -1 -10  373.96   19.70
   0   1  10  387.96   19.30
   0   1 -10  404.76   18.60
   0   1 -10  397.56   19.40
   0   1  10  360.26   18.70
   1  -1  10  146.19    9.90
   1  -1  10  129.79    8.10
  -1  -1 -10  146.39   10.30
  -1  -1 -10  154.28    8.50
  -1   1 -10  147.89    9.40
   1   1  10  129.99    8.60
   1   1  10  149.59    9.60
   2  -1  10  220.38   12.70
   2  -1  10  183.48   10.70
  -2  -1 -10  205.48   11.60
  -2  -1 -10  226.58   13.50
   2  -1  10  204.88   12.10
  -2   1 -10  217.68   11.90
   2   1  10  230.88   12.30
   2   1  10  187.08   11.10
   3  -1  10   33.90    6.30
   3  -1  10   23.20    3.70
  -3  -1 -10   23.10    5.70
   3  -1  10   28.00    5.50
  -3  -1 -10   21.40    4.10
   3   1  10   28.80    4.70
  -3   1 -10   22.40    4.40
  -4  -1 -10   83.69   10.40
  -4  -1 -10   85.19    8.10
   4  -1  10  101.89    9.90
   4   1  10   75.89    8.70
  -5  -1 -10   72.59   11.10
   5   1  10   59.39    8.90
   6  -1  10   42.10    9.00
   6   1  10   33.90    7.70
   7  -1  10   17.80    9.30
   7   1  10   -0.10    7.80
   8  -1  10   55.09   11.80
  -9  -2  10   43.00   10.90
   9  -2 -10   36.30    6.80
  -9   2  10   41.90    9.30
   8  -2 -10    9.80    5.00
  -8  -2  10    6.60    8.50
  -8   2  10   -5.80    6.80
  -7  -2  10   14.90    7.50
   7  -2 -10   10.70    4.40
  -7   2  10   13.30    6.20
  -6  -2  10   79.09   11.40
   6  -2 -10   88.59    8.00
  -6   2  10   75.49    9.60
   5  -2 -10  126.99    9.10
  -5  -2  10  147.99   12.00
  -5   2  10  126.19   10.20
  -4  -2  10   46.80    8.30
   4  -2 -10   29.40    5.10
  -3  -2  10   62.39    8.50
  -3   2  10   54.29    6.40
  -2  -2  10  111.79    9.40
   2  -2 -10   94.19    7.00
  -2   2  10  105.39    8.80
   2   2 -10   75.99    9.80
   1  -2 -10  304.37   17.70
  -1  -2  10  356.66   17.70
   1   2 -10  325.07   17.90
  -1   2  10  308.17   17.10
   0  -2 -10  136.79   11.20
   0   2 -10  131.09   10.60
   0   2  10  131.29    9.60
  -1  -2 -10  158.58   12.50
   1  -2  10  145.49    8.70
   1  -2  10  174.68   11.00
  -1  -2 -10  148.49    9.10
   1   2  10  179.98   10.50
  -1   2 -10  156.28   10.80
  -2  -2 -10   27.30    4.80
   2  -2  10   29.20    5.10
  -2  -2 -10   27.10    6.60
   2  -2  10   38.00    6.10
   2  -2  10   21.00    4.80
   2   2  10   25.70    4.70
  -2   2 -10   26.70    4.70
  -3  -2 -10  154.08   10.60
  -3  -2 -10  151.48   13.60
   3  -2  10  169.98   12.60
   3  -2  10  133.09    9.60
   3   2  10  160.08   10.30
  -4  -2 -10   82.69    8.20
   5  -2  10    2.10    6.80
  -5  -2 -10    1.40    4.60
   6  -2  10   41.30    9.70
   6   2  10   36.40    6.90
   7  -2  10   10.60    9.90
   7   2  10    7.40    8.50
   7   2  10    6.70    6.90
  -8  -3  10    6.60    9.30
   8  -3 -10    3.10    6.00
  -8   3  10   14.80    9.30
  -7  -3  10   10.20    8.00
   7  -3 -10   16.10    5.50
  -7   3  10   13.80    7.60
  -6  -3  10   22.30    7.60
   6  -3 -10   14.20    5.10
  -6   3  10   12.80    6.80
  -5  -3  10    3.50    7.10
   5  -3 -10    2.60    4.20
  -5   3  10   11.90    5.40
   4  -3 -10   19.80    4.20
  -4  -3  10   16.50    7.00
  -4   3  10   13.20    4.70
   3  -3 -10   34.30    6.10
  -3  -3  10   42.60    7.60
  -3   3  10   38.70    7.20
  -2  -3  10  114.89   10.50
   2  -3 -10   86.79    7.10
  -2   3  10   73.19    9.90
  -1  -3  10  132.89   11.40
   1  -3 -10  111.09    8.00
  -1   3  10  135.79    9.70
   1   3 -10  111.29   12.30
   0  -3 -10   82.69    6.60
   0  -3  10   78.29    9.70
   0   3  10   91.49    8.10
   0   3 -10   79.89   10.50
  -1  -3 -10    4.30    3.10
   1   3  10    5.40    4.40
   2  -3  10   21.90    4.30
  -2  -3 -10   29.40    5.40
   2  -3  10   34.60    5.90
   2   3  10   29.70    6.20
  -2   3 -10   18.60    6.10
  -3  -3 -10   62.79    7.30
   3  -3  10   45.60    7.90
   3  -3  10   59.79    8.10
   3   3  10   70.69    8.80
  -4  -3 -10   -0.80    5.00
   4   3  10   -7.10    5.50
  -5  -3 -10  111.09   11.10
   5  -3  10   85.29   14.10
   6  -3  10   27.90    9.70
  -6  -3 -10   19.80    7.10
   6   3  10   21.20    7.40
  -6  -4  10    7.40    9.20
   6  -4 -10    1.80    5.80
  -6   4  10   13.00    7.50
   5  -4 -10    2.40    5.30
  -5  -4  10   11.60    8.50
  -5   4  10   -0.50    6.80
  -4  -4  10    6.00    8.00
   4  -4 -10    3.50    4.80
  -4   4  10    7.70    5.80
  -3  -4  10   60.99    9.40
   3  -4 -10   52.49    8.00
  -3   4  10   47.60    7.60
   2  -4 -10   16.40    4.60
  -2  -4  10   27.00    8.10
  -2   4  10   26.70    6.30
   1  -4 -10  148.09   10.30
  -1  -4  10  195.58   15.00
  -1   4  10  148.09   11.70
   0  -4 -10    7.40    4.10
   0  -4  10    9.70    7.50
   0   4  10   -2.80    5.30
  -1  -4 -10   26.30    4.60
   1  -4  10   21.20    7.40
  -1   4 -10   24.10    9.80
   1   4  10   13.60    6.20
  -2  -4 -10   13.70    4.90
   2   4  10   10.60    6.30
   3  -4  10   15.90    6.90
  -3  -4 -10   18.20    5.60
   3   4  10   24.10    7.20
  -4  -4 -10   10.80    6.60
   4  -4  10   15.70    7.30
   4   4  10    0.90    7.10
  -2  -5  10   10.30    9.60
   2  -5 -10   -0.70    5.70
  -2   5  10    2.90    7.80
   1  -5 -10   11.00    5.60
  -1  -5  10    3.00    9.30
  -1   5  10   11.50    8.00
   0  -5 -10    3.90    5.70
   0   5 -10    0.00   10.30
 -10   0  11    2.10   10.30
  10   0 -11    0.80    5.60
  -9   0  11   19.50    9.30
   9   0 -11   31.90    5.60
   8   0 -11  136.99    9.60
  -8   0  11  120.29   14.00
  -7   0  11   -0.50    9.50
  -7   0  11    7.10    6.60
   7   0 -11    9.40    3.80
  -6   0  11   13.40    5.90
   6   0 -11   11.10    3.20
  -5   0  11    5.90    5.60
  -5   0  11   -7.70    5.70
  -4   0  11    6.10    4.70
   4   0 -11    3.60    2.40
  -4   0  11   -0.20    4.40
   3   0 -11    6.80    4.40
   3   0 -11    9.70    2.50
  -3   0  11    9.70    4.30
  -2   0  11    9.80    4.50
  -2   0  11    4.40    3.50
   2   0 -11    5.20    4.10
   1   0 -11  205.28   13.00
  -1   0  11  213.98   12.90
   1   0 -11  234.78   11.20
  -1   0  11  200.08   11.70
   0   0  11   12.70    4.50
   0   0  11    8.10    3.10
   0   0 -11   10.40    4.30
   1   0  11   11.10    3.30
  -1   0 -11   11.00    3.60
  -1   0 -11   10.10    4.50
   1   0  11   14.70    4.60
   2   0  11   87.59    7.20
  -2   0 -11   87.19    8.30
  -2   0 -11   97.49    9.20
  -3   0 -11   10.50    4.80
  -3   0 -11   17.90    5.70
   3   0  11   15.10    4.70
  -4   0 -11   63.09    9.70
   4   0  11   54.09    7.70
   4   0  11   42.30    7.00
   5   0  11   14.30    6.70
   5   0  11   21.60    5.40
   6   0  11    6.70    7.20
   7   0  11   33.70    9.70
  -9  -1  11   43.10   10.20
   9  -1 -11   28.50    6.30
  -9   1  11   47.10   10.90
  -8  -1  11   32.60    8.10
   8  -1 -11   28.00    5.30
  -8   1  11   38.30    8.40
   7  -1 -11   25.90    4.70
  -7  -1  11   28.80    7.60
  -7   1  11   35.80    7.50
  -6  -1  11   -0.10    6.30
  -6   1  11    0.30    5.80
   5  -1 -11   14.40    3.30
  -5  -1  11    8.50    6.20
  -5   1  11    9.10    6.70
  -5   1  11   15.40    5.20
   4  -1 -11   53.79    5.50
  -4  -1  11   50.99    8.80
  -4   1  11   62.09    9.40
  -4   1  11   56.49    8.20
   3  -1 -11   12.90    2.80
  -3   1  11    4.70    4.70
  -3   1  11   15.40    4.60
   3   1 -11    4.00    4.80
  -2  -1  11   51.69    8.10
   2  -1 -11   52.49    4.90
   2  -1 -11   50.39    7.50
   2   1 -11   37.30    6.00
  -2   1  11   47.30    7.20
  -1  -1  11  201.08   12.70
  -1  -1  11  181.18   10.50
   1  -1 -11  193.88   12.40
   1  -1 -11  198.88   10.20
   1   1 -11  164.38   12.40
  -1   1  11  180.68   11.30
  -1   1  11  194.38   12.30
   1   1 -11  204.78   10.70
   0  -1  11    6.70    4.80
   0  -1  11    5.90    2.90
   0  -1 -11    1.00    2.70
   0  -1 -11   -1.50    4.20
   0   1  11    6.60    4.10
   0   1 -11    3.50    3.80
   0   1 -11   -1.70    4.40
   0   1  11    2.00    3.10
   1  -1  11   22.60    6.40
   1  -1  11   21.60    3.50
  -1  -1 -11   21.60    5.50
  -1   1 -11   21.20    5.00
   1   1  11   37.40    6.30
  -2  -1 -11   50.39    9.20
   2  -1  11   47.40    7.90
   2  -1  11   33.50    5.50
   2  -1  11   37.10    6.00
  -2  -1 -11   35.70    5.00
   2   1  11   43.80    6.90
  -2   1 -11   46.70    7.20
   3  -1  11   52.09    9.10
  -3  -1 -11   41.80    5.80
   3  -1  11   60.89    8.10
  -3  -1 -11   44.60    7.30
  -3   1 -11   49.80    7.90
   3   1  11   68.59    7.90
  -4  -1 -11   17.90    6.90
   4  -1  11   23.00    6.40
  -4  -1 -11   29.20    5.40
   4   1  11   18.90    5.40
  -5  -1 -11   11.90    7.60
   5  -1  11   17.80    7.20
   5   1  11   12.40    5.70
   5   1  11    0.60    6.30
   6  -1  11   21.60    9.50
   6   1  11   19.30    6.20
   6   1  11   17.80    7.70
   7  -1  11   63.79   12.10
   7   1  11   40.50   10.00
   9  -2 -11    4.60    6.40
  -9  -2  11   -4.60   10.00
  -9   2  11   21.60    9.30
  -8  -2  11   12.00    8.30
   8  -2 -11    5.30    5.30
  -8   2  11    2.00    8.10
   7  -2 -11    7.50    4.60
  -7  -2  11   -4.60    8.60
  -7   2  11    8.10    7.30
  -6  -2  11   53.39    8.80
   6  -2 -11   39.40    7.00
  -6   2  11   49.70    7.70
  -5  -2  11  109.99   11.80
   5  -2 -11  108.99    8.30
  -5   2  11   86.29    9.90
  -4  -2  11   12.20    6.30
   4  -2 -11    4.40    3.40
  -4   2  11    3.80    4.50
  -3  -2  11   51.69    9.00
   3  -2 -11   41.30    5.40
  -3   2  11   44.00    7.40
  -2  -2  11   23.80    6.40
   2  -2 -11   26.50    4.70
   2   2 -11   16.60    6.70
  -2   2  11   15.30    4.50
  -1  -2  11   33.00    6.20
   1  -2 -11   26.80    4.70
  -1   2  11   30.50    5.10
   1   2 -11   23.70    6.60
   0  -2 -11   15.50    3.30
   0  -2  11   24.80    5.70
   0   2 -11   19.40    5.50
   0   2  11   21.80    4.80
  -1  -2 -11   47.20    5.40
   1  -2  11   40.10    5.40
  -1   2 -11   49.30    8.30
   1   2  11   48.20    7.60
  -2  -2 -11   30.30    5.60
   2  -2  11   21.10    5.50
   2  -2  11   13.10    3.80
   2   2  11   18.80    5.20
  -2   2 -11   16.20    5.30
  -3  -2 -11    9.20    4.40
   3  -2  11   19.00    6.80
   3   2  11   16.90    5.10
   4  -2  11   21.70    7.60
   4   2  11   17.70    5.80
   5  -2  11   19.60    8.20
  -5  -2 -11   10.30    5.70
   5   2  11   12.70    6.00
   6  -2  11  109.69   17.30
   6   2  11  112.59   11.90
   8  -3 -11    3.60    6.50
  -8   3  11    8.20    9.50
  -7  -3  11   16.10    9.20
   7  -3 -11   11.00    5.80
  -7   3  11   12.10    8.10
   6  -3 -11   75.59    9.30
  -6  -3  11   73.79   13.80
  -6   3  11   80.59   11.40
   5  -3 -11   44.80    7.60
  -5  -3  11   43.30    9.40
  -4  -3  11   23.10    7.60
   4  -3 -11   12.60    4.30
  -4   3  11   21.20    6.00
   3  -3 -11   18.30    4.20
  -3   3  11   23.10    5.80
  -2  -3  11   97.19   11.60
   2  -3 -11   83.59    7.20
  -2   3  11   92.09    9.30
   1  -3 -11   57.99    6.10
  -1  -3  11   69.29   10.60
  -1   3  11   43.10    6.70
   0  -3 -11   10.60    3.40
   0  -3  11   10.20    6.50
   0   3 -11   -6.20    7.50
   0   3  11   16.30    5.10
  -1  -3 -11    9.80    3.80
   1  -3  11    7.40    6.40
   1   3  11   16.20    5.30
  -1   3 -11   15.30    7.30
   2  -3  11   69.19    7.80
   2  -3  11   86.89   11.30
   2  -3  11   96.49   11.40
  -2  -3 -11   79.49    7.60
  -2   3 -11   61.99   10.90
   2   3  11   86.09    9.40
  -3  -3 -11    0.30    4.70
   3  -3  11   -9.30    7.10
   3   3  11    2.40    5.80
  -4  -3 -11   -1.10    5.60
   4   3  11    5.80    6.80
  -5  -3 -11   24.60    7.20
   5   3  11   41.80    8.60
  -6  -4  11   16.00   11.50
  -6   4  11  -14.70    8.60
   5  -4 -11   16.20    5.90
  -5  -4  11   29.80   10.80
  -5   4  11   21.60    8.30
   4  -4 -11   11.30    5.60
  -4  -4  11   35.80   10.20
  -4   4  11   14.20    7.60
  -3  -4  11  156.68   16.00
   3  -4 -11  119.69   10.20
  -3   4  11  111.39   12.00
   2  -4 -11    7.10    4.60
  -2  -4  11   23.80    8.70
  -2   4  11    0.20    6.30
   1  -4 -11   60.99    7.40
  -1   4  11   57.29    9.90
   0  -4  11   20.20    8.20
   0  -4 -11   10.60    4.40
   0   4  11   11.30    6.50
  -1  -4 -11   38.40    5.80
   1   4  11   46.50    7.70
  -2  -4 -11   63.39    8.60
   2   4  11   65.19    9.40
  -3  -4 -11   42.20    7.10
   3   4  11   28.40    8.40
   9   0 -12   -6.00    5.10
  -9   0  12   -5.10    9.50
  -8   0  12   29.10    9.20
  -7   0  12   11.40   10.40
   7   0 -12   18.90    4.20
  -7   0  12   24.30    7.60
   6   0 -12   17.10    3.80
  -6   0  12   24.50    7.30
  -6   0  12    4.00    8.20
   5   0 -12   14.30    3.30
  -5   0  12    5.20    6.80
  -5   0  12   17.20    6.60
  -4   0  12  358.16   21.80
   4   0 -12  453.05   19.40
  -4   0  12  415.86   22.00
   3   0 -12    8.30    2.80
  -3   0  12    2.10    4.80
  -3   0  12    7.50    4.90
  -2   0  12   40.80    7.20
  -2   0  12   38.60    6.40
   2   0 -12   49.10    5.10
  -1   0  12    8.00    3.80
   1   0 -12    7.50    5.30
   1   0 -12    7.40    3.20
  -1   0  12    6.50    5.10
   0   0  12    4.70    3.70
   0   0  12   10.10    5.10
   0   0 -12    9.60    5.20
  -1   0 -12  193.18   13.20
   1   0  12  185.38   12.80
  -2   0 -12   21.00    6.10
   2   0  12   25.40    5.90
  -2   0 -12   26.00    5.50
   3   0  12   19.40    6.20
  -3   0 -12   18.30    6.70
  -4   0 -12   63.79   11.60
   4   0  12   51.29    8.20
   5   0  12  129.99   14.60
   6   0  12    5.40    9.00
  -9  -1  12   13.20   10.20
   9  -1 -12    5.20    5.80
  -9   1  12   17.30   10.10
   8  -1 -12    5.70    5.00
  -8  -1  12    5.60    8.10
  -8   1  12   18.80    8.60
   7  -1 -12    2.80    4.20
  -7  -1  12    1.80    7.50
  -7   1  12   20.70    7.70
  -6  -1  12   48.30    8.30
   6  -1 -12   51.99    6.60
  -6   1  12   41.50    7.20
  -5  -1  12   32.00    7.40
   5  -1 -12   46.60    6.10
  -5   1  12   36.70    6.70
  -4  -1  12   51.09    8.00
  -4   1  12   43.20    7.40
  -3  -1  12   28.00    6.80
  -3   1  12   33.80    6.00
  -2  -1  12   68.59    9.50
  -2   1  12   68.69    8.50
  -1  -1  12   53.89    8.90
  -1  -1  12   42.50    6.20
   1  -1 -12   28.70    5.00
   1   1 -12   29.60    6.60
  -1   1  12   44.90    7.90
   0  -1 -12   77.29    6.80
   0  -1  12   71.89    7.10
   0  -1  12   94.99   10.00
   0   1  12   76.99    9.20
   0   1 -12   72.89    9.60
   0   1 -12   93.39    8.30
   1  -1  12   17.50    4.00
  -1  -1 -12   20.70    4.40
   1  -1  12   22.20    6.20
  -1   1 -12   17.70    5.90
   2  -1  12   92.59   10.30
   2  -1  12  101.19   11.60
  -2  -1 -12   79.99    8.60
  -2  -1 -12   99.69   12.20
  -2   1 -12   74.39    9.90
   2   1  12  110.79    9.90
   3  -1  12   83.29   10.00
  -3  -1 -12   69.29   12.40
   3  -1  12   74.59   11.30
  -3  -1 -12   62.89    9.10
   3   1  12   97.39    9.40
  -3   1 -12   75.99   10.20
   4  -1  12   58.69    9.10
  -4  -1 -12   42.60    9.40
  -4  -1 -12   58.59    9.40
   4   1  12   59.89    9.20
   5   1  12   41.00    8.60
   5   1  12   53.69    9.80
   6  -1  12   -2.70   10.70
   6   1  12    2.70    8.20
   8  -2 -12   -7.20    5.40
  -8  -2  12   17.40   10.00
  -8   2  12    6.80    8.50
  -7  -2  12  -14.40    8.60
   7  -2 -12    0.60    4.90
  -7   2  12   10.70    7.30
  -6  -2  12    2.20    7.60
   6  -2 -12    8.50    4.30
  -6   2  12    7.50    7.10
   5  -2 -12    4.90    4.10
  -5  -2  12    0.50    7.10
  -5   2  12    7.40    5.90
   4  -2 -12   18.10    4.20
  -4  -2  12   27.10    7.70
  -4   2  12   23.20    6.20
  -3  -2  12    5.80    6.60
   3  -2 -12    4.10    3.60
  -3   2  12    3.80    5.50
   2  -2 -12   16.30    3.60
  -2  -2  12   20.10    6.90
  -2   2  12   19.00    5.10
   1  -2 -12   11.00    3.30
   1   2 -12    7.40    6.90
  -1   2  12    0.60    4.70
   0  -2 -12   -0.40    3.30
   0  -2  12    9.10    6.20
   0   2 -12    2.60    6.10
   0   2  12    9.90    5.40
   1  -2  12   38.70    6.80
  -1  -2 -12   24.50    4.40
   1  -2  12   20.70    4.30
   1  -2  12   33.10    7.00
   1   2  12   34.20    6.10
  -1   2 -12   29.90    7.00
  -2  -2 -12   48.20    6.90
   2  -2  12   39.40    6.80
   2   2  12   58.99    9.20
  -2   2 -12   32.50    6.60
  -3  -2 -12    2.30    5.10
   3  -2  12    5.90    8.40
   3   2  12    1.70    6.10
  -4  -2 -12   12.10    6.10
   4   2  12    8.10    7.00
   5  -2  12   23.80    9.90
  -5  -2 -12   22.70    6.90
  -7  -3  12  -13.40   10.20
   7  -3 -12   -0.60    6.30
  -7   3  12    7.90    8.50
   6  -3 -12   30.80    6.20
  -6  -3  12   26.10   10.60
  -6   3  12   36.80    8.50
  -5  -3  12   48.10   10.30
   5  -3 -12   26.60    5.90
  -5   3  12   35.80    8.40
   4  -3 -12   10.10    4.70
  -4  -3  12   17.40    8.50
  -4   3  12   24.00    6.60
  -3  -3  12   11.10    8.00
   3  -3 -12    1.70    4.20
  -3   3  12    4.90    5.80
  -2  -3  12   53.99    9.50
   2  -3 -12   44.20    6.60
  -2   3  12   40.30    6.80
  -1  -3  12    9.00    7.50
   1  -3 -12    9.30    3.90
  -1   3  12   11.00    5.90
   0   3  12   -6.40    5.70
  -1  -3 -12    7.00    4.30
   1  -3  12    1.90    7.10
   1   3  12    7.80    6.50
  -1   3 -12    9.80    7.60
  -2  -3 -12   46.00    7.30
   2  -3  12   36.10    7.80
   2   3  12   39.70    7.70
   3  -3  12   21.70    8.90
  -3  -3 -12   24.10    6.10
   3   3  12   24.40    7.30
  -4  -3 -12   22.80    7.00
   4  -3  12   21.90   10.50
   4   3  12   21.60    7.90
   4  -4 -12   -6.70    5.50
  -4  -4  12   -6.50   10.50
  -4   4  12   -4.60    7.40
   3  -4 -12   -4.30    5.10
  -3  -4  12    3.20    9.80
  -3   4  12    6.80    7.30
  -2  -4  12   19.90    9.80
   2  -4 -12    5.50    5.00
  -2   4  12    0.00    7.00
   1  -4 -12    0.80    4.80
  -1  -4  12   13.10    9.30
  -1   4  12    0.20    7.30
   0  -4  12   33.70    9.70
   0  -4 -12    7.90    5.00
   0   4  12   14.80    6.80
   1  -4  12   27.60   10.20
  -1  -4 -12   22.00    5.80
   1   4  12   34.10    8.20
   2   4  12   69.69   12.10
  -8   0  13   21.80    9.40
   8   0 -13   20.80    5.20
  -7   0  13    2.70    8.90
   6   0 -13  169.48   10.20
  -6   0  13  164.78   14.80
  -5   0  13   -1.00    7.60
  -5   0  13    1.90    7.20
   5   0 -13    3.70    3.20
  -4   0  13   86.39   12.50
  -4   0  13   99.99   11.40
   4   0 -13  100.79    7.10
  -3   0  13   21.90    6.80
  -3   0  13   19.30    6.30
   3   0 -13   20.50    3.90
  -2   0  13   -1.30    4.80
  -2   0  13    2.30    5.80
   2   0 -13    2.60    3.50
  -1   0  13   58.29    9.80
  -1   0  13   64.69    8.70
   1   0 -13   86.09    7.50
   0   0  13   18.20    6.30
   0   0 -13   12.10    4.90
  -1   0 -13   10.90    6.60
   2   0  13    3.10    6.40
  -2   0 -13    5.00    5.70
  -2   0 -13  -10.70    6.80
  -3   0 -13   72.79   13.20
   3   0  13   60.89   11.00
   4   0  13   16.00    8.10
   4   0  13   28.80    7.50
   5   0  13   61.89   10.90
   8  -1 -13   49.20    8.80
  -8   1  13   52.59   10.70
  -7  -1  13    6.00    8.70
   7  -1 -13   12.40    4.70
  -7   1  13   26.40    8.30
  -6  -1  13   28.80    8.40
   6  -1 -13   20.60    4.70
  -6   1  13   32.50    7.60
   5  -1 -13    6.20    4.00
  -5  -1  13   -1.80    7.30
  -5   1  13   18.70    6.00
   4  -1 -13   60.79    6.40
  -4  -1  13   56.19    9.10
  -4   1  13   56.29    9.90
   3  -1 -13   53.19    6.20
  -3  -1  13   68.19   11.40
  -3   1  13   65.59    9.80
   2  -1 -13   50.59    5.90
  -2  -1  13   43.30    8.00
   2   1 -13   46.90    7.40
  -2   1  13   37.10    6.90
   1  -1 -13   -0.40    3.60
  -1  -1  13   12.50    7.10
  -1  -1  13    7.60    4.50
  -1   1  13    7.40    5.50
   1   1 -13   -1.20    5.10
   0  -1 -13    9.50    3.80
   0  -1  13    0.60    4.30
   0   1  13   14.00    6.20
   0   1 -13    4.30    6.50
   0   1 -13   10.30    5.40
   1  -1  13   77.39   11.00
  -1  -1 -13   64.89    8.30
   1  -1  13   63.49   10.50
   1   1  13   63.09   10.30
  -1   1 -13   74.19   10.60
  -2  -1 -13  120.39   10.70
   2  -1  13  146.49   13.20
   2  -1  13  127.99   12.80
   2   1  13  104.09   12.30
  -2   1 -13  117.19   12.30
  -3  -1 -13    0.90    6.00
   3  -1  13   11.30    7.70
   3  -1  13   -8.30    7.30
   3   1  13   -6.40    6.90
  -4  -1 -13   35.20    7.80
   4  -1  13   51.69    9.60
   4   1  13   25.00    7.80
   5   1  13    7.30    8.50
   5   1  13    7.00    9.00
  -7  -2  13   41.10   11.30
   7  -2 -13   29.20    5.90
  -7   2  13   19.90    8.90
   6  -2 -13    2.00    5.00
  -6  -2  13    5.00    9.00
  -6   2  13    6.90    8.40
   5  -2 -13  130.29    9.90
  -5   2  13  109.29   12.70
   4  -2 -13   16.80    4.50
  -4  -2  13   26.30    8.60
  -4   2  13   36.00    7.40
  -3  -2  13   49.00    9.10
   3  -2 -13   45.50    6.50
  -3   2  13   41.80    7.40
   2  -2 -13   57.09    6.60
  -2  -2  13   57.09    9.30
  -2   2  13   45.70    7.60
   1  -2 -13   43.20    6.50
  -1  -2  13   43.70    8.90
  -1   2  13   58.99    9.20
   0  -2 -13   19.50    4.70
   0  -2  13   36.50    8.50
   0   2  13   17.10    6.30
   1  -2  13   34.50    7.50
   1  -2  13   21.90    5.10
   1  -2  13   25.30    8.40
  -1  -2 -13   20.60    4.90
   1   2  13    8.60    6.60
  -1   2 -13   10.10    7.40
   2  -2  13   31.60    8.20
  -2  -2 -13   31.00    6.10
   2  -2  13   35.60    9.00
   2   2  13   25.90    7.70
  -3  -2 -13   16.40    6.40
   3  -2  13    4.70    9.70
   3   2  13    5.80    7.60
   4  -2  13   28.70   10.80
   4   2  13   24.20    8.30
  -6  -3  13   54.29   11.60
   6  -3 -13   29.90    6.60
  -6   3  13   35.40    9.80
   5  -3 -13   -4.60    5.20
  -5  -3  13    1.10   10.10
  -5   3  13    2.50    7.70
   4  -3 -13   85.29    8.80
  -4   3  13   63.79    9.50
  -3  -3  13   82.29   14.60
   3  -3 -13   60.99    8.10
  -3   3  13   85.19   10.80
   2  -3 -13   -0.60    4.40
  -2  -3  13    4.60    8.80
  -2   3  13   -9.60    6.70
  -1  -3  13   74.59   13.60
   1  -3 -13   52.99    7.20
  -1   3  13   50.49    8.30
   0  -3 -13   40.00    6.10
   0   3  13   62.59   11.20
  -1  -3 -13   10.40    5.00
   1   3  13    1.10    7.70
  -2  -3 -13   16.60    5.80
   2  -3  13   19.70    9.50
   3  -3  13   42.30   11.30
   3   3  13   28.10    9.50
   7   0 -14   11.30    4.70
  -7   0  14   18.90    9.50
  -6   0  14  130.99   15.00
   6   0 -14  123.89    9.00
  -5   0  14   33.00    8.90
  -4   0  14   27.60    8.10
   3   0 -14    2.50    4.40
  -3   0  14    2.40    6.80
   2   0 -14   92.49    8.00
  -2   0  14   60.59    9.10
  -1   0  14   29.40    7.70
   1   0 -14   35.70    6.10
   0   0  14   19.50    7.70
   0   0 -14   34.80    6.20
  -1   0 -14   12.50    6.30
   1   0  14    9.60    7.40
   2   0  14    2.70    7.60
  -2   0 -14   -6.60    6.80
   3   0  14   22.30    8.40
   4   0  14   46.30    9.90
   4   0  14   63.49   10.80
   7  -1 -14   -4.50    5.10
  -7  -1  14    1.10    9.60
  -7   1  14    6.30    9.20
   6  -1 -14   25.30    5.40
  -6  -1  14   35.60    9.60
  -6   1  14   30.10    8.60
   5  -1 -14    9.40    4.50
  -5  -1  14    7.50    8.60
  -5   1  14   13.40    8.20
   4  -1 -14   11.30    4.50
  -4  -1  14    5.50    8.50
  -4   1  14   18.70    7.10
  -3  -1  14   49.10    9.70
   3  -1 -14   57.49    6.80
  -3   1  14   46.10    9.60
  -2  -1  14   11.10    5.90
  -2  -1  14   20.70    8.50
   2  -1 -14   10.10    4.20
  -2   1  14   19.10    7.60
   1  -1 -14   16.20    4.70
  -1  -1  14   14.50    5.80
  -1  -1  14   23.50    8.70
   1   1 -14   19.10    6.60
  -1   1  14   16.60    7.10
   0  -1 -14   52.59    8.00
   0  -1  14   47.70    9.60
   0   1  14   60.09   10.80
   1  -1  14   37.60    8.10
  -1  -1 -14   35.30    6.50
   1  -1  14   51.69    9.90
   2  -1  14   33.80    9.70
   2  -1  14   25.10    8.50
  -2  -1 -14   24.10    7.00
   2   1  14   46.40    8.80
  -3  -1 -14    6.10    7.30
   3  -1  14    3.00    8.80
   3  -1  14   -7.20    8.60
   3   1  14   16.70    8.80
   4  -1  14   22.80   10.00
  -4  -1 -14   18.40    8.10
   4   1  14   14.70    9.50
  -6  -2  14   50.59   12.20
   6  -2 -14   21.30    5.90
  -6   2  14   27.50    9.80
   5  -2 -14   25.30    5.60
  -5   2  14   36.20    8.80
   4  -2 -14    5.40    4.80
  -4  -2  14   17.80    9.60
  -4   2  14   12.80    7.90
  -3  -2  14   70.79   11.00
   3  -2 -14   62.89    7.90
  -3   2  14   83.99   11.40
  -2  -2  14   95.99   14.70
   2  -2 -14  105.59    8.70
  -2   2  14   79.99   12.70
   1  -2 -14   45.60    7.60
  -1  -2  14   63.99   10.70
  -1   2  14   49.80    8.90
   0  -2  14   -0.40    8.70
   0  -2 -14   -1.10    5.00
   0   2  14   16.10    7.40
  -1  -2 -14   87.99   10.10
   1  -2  14  123.69   15.10
   1  -2  14   99.79   14.60
   1   2  14  100.89   12.30
   2  -2  14   51.89   10.90
   2  -2  14   38.30    9.70
  -3  -2 -14   17.70    7.30
   3  -2  14    0.40   11.60
   3   2  14    7.00    8.60
   4  -3 -14   32.80    6.10
  -4  -3  14   40.90   11.70
  -3  -3  14   37.20   11.00
   3  -3 -14   29.90    5.70
  -3   3  14   12.40    8.80
  -2  -3  14   35.50   10.50
  -2   3  14   65.49   12.10
   1  -3 -14   53.49    8.50
  -1  -3  14   55.29   11.10
  -1   3  14   33.10    8.50
   0  -3 -14   60.99    9.10
   0  -3  14   95.09   16.30
   0   3  14   71.29   10.40
   1  -3  14   18.20   10.60
   1   3  14   25.50    9.20
  -6   0  15   44.00   10.70
   6   0 -15   68.29    8.10
  -5   0  15   20.70   10.10
   5   0 -15   14.70    5.20
   4   0 -15   -0.40    4.80
  -4   0  15   -5.30    8.90
  -3   0  15   13.90    8.70
   3   0 -15    8.50    5.00
  -2   0  15   74.39   13.40
   2   0 -15   74.79    9.20
   1   0 -15   21.10    6.80
  -1   0  15   25.80    8.90
   0   0  15   20.30    8.90
   0   0 -15    7.70    7.10
   1   0  15   -1.80    8.70
  -1   0 -15    3.60    7.70
  -2   0 -15    4.10    8.10
   2   0  15   -6.90    9.10
   3   0  15   29.60   10.50
   3   0  15   21.50   10.00
   6  -1 -15    7.30    5.30
  -6  -1  15   -1.20   11.30
  -5  -1  15   31.00   10.50
   5  -1 -15   16.40    5.30
  -5   1  15   21.30    9.00
  -4  -1  15   29.80   10.60
   4  -1 -15    8.40    4.70
  -4   1  15   14.80    8.30
   3  -1 -15   26.80    5.70
  -3  -1  15   33.40   10.80
  -3   1  15   35.90    8.90
   2  -1 -15    9.20    5.10
  -2  -1  15   11.80   10.00
  -2   1  15    8.40    9.00
   1  -1 -15   11.10    5.40
  -1  -1  15    7.90   10.00
  -1   1  15    8.70    8.70
   1   1 -15    9.60    7.10
   0  -1  15   13.70   10.10
   0  -1 -15   14.30    6.30
   0   1  15   11.40    8.30
   1  -1  15    9.30    8.30
  -1  -1 -15   16.60    7.60
   1  -1  15   16.40   10.50
   1   1  15   28.10    9.00
   2  -1  15   12.50    9.60
   2  -1  15   11.40   10.60
  -2  -1 -15   -1.80    7.80
   2   1  15   28.80    9.60
  -4  -2  15   12.70   11.90
  -4   2  15   11.40    9.40
  -3  -2  15   16.60   10.80
   3  -2 -15   10.90    5.20
  -3   2  15   26.60    8.90
   2  -2 -15    8.80    5.60
  -2  -2  15   14.80   10.70
   1  -2 -15   18.60    6.00
  -1  -2  15   23.70   11.00
  -1   2  15   19.90    9.20
   0  -2  15   -4.30   10.60
   0  -2 -15    8.00    5.90
   0   2  15   -2.80    9.30
  -1  -2 -15   37.00    7.60
   1  -2  15   67.19   12.10
   1   2  15   25.10   10.50
  -4   0  16    9.60   11.10
   4   0 -16   11.40    6.10
   3   0 -16   32.10    7.00
  -3   0  16   13.00   10.60
   2   0 -16   36.60    8.00
  -2   0  16   48.60   11.30
  -1   0  16   27.90   10.70
   1   0 -16   39.70    8.50
   0   0 -16   -9.30    8.60
   0   0  16    5.40   10.40
  -1   0 -16   20.90    9.30
   1   0  16   12.70   10.80
  -3  -1  16   40.20   13.30
   3  -1 -16   31.20    6.70
  -3   1  16   22.60   10.00
   2  -1 -16   12.80    6.30
  -2  -1  16   -1.20   12.00
  -2   1  16   15.80    9.60
  -1  -1  16    9.10   11.80
   1  -1 -16   28.90    7.20
  -1   1  16   34.60   11.20
   0  -1 -16   27.70    8.50
   0  -1  16   31.10   10.30
   0  -1  16   19.40   12.20
   0   1  16   36.90   11.30
;
_shelx_hkl_checksum              37935
loop_
_space_group_symop_operation_xyz
'x, y, z'
'-x, y+1/2, -z'
loop_
_atom_site_label
_atom_site_type_symbol
_atom_site_fract_x
_atom_site_fract_y
_atom_site_fract_z
_atom_site_U_iso_or_equiv
_atom_site_adp_type
_atom_site_occupancy
_atom_site_site_symmetry_order
_atom_site_calc_flag
_atom_site_refinement_flags_posn
_atom_site_refinement_flags_adp
O1A O 0.1057(2) 0.6158(5) 0.40669(17) 0.0191(6) Uani 1 1 d . .
O2A O 0.1679(2) 1.0000(5) 0.34813(19) 0.0211(6) Uani 1 1 d . .
N1A N 0.3585(3) 0.4064(6) 0.4195(2) 0.0178(7) Uani 1 1 d . .
H1A H 0.4449 0.3410 0.4133 0.027 Uiso 1 1 calc R U
H2A H 0.2911 0.2893 0.3940 0.027 Uiso 1 1 calc R U
H3A H 0.3535 0.4364 0.4869 0.027 Uiso 1 1 calc R U
C1A C 0.1917(3) 0.7648(7) 0.3739(3) 0.0166(8) Uani 1 1 d . .
C2A C 0.3359(3) 0.6556(6) 0.3613(3) 0.0172(8) Uani 1 1 d . .
H21A H 0.4091 0.7831 0.3920 0.021 Uiso 1 1 calc R U
C3A C 0.3545(4) 0.6111(7) 0.2499(3) 0.0217(8) Uani 1 1 d . .
H31A H 0.2731 0.5105 0.2152 0.026 Uiso 1 1 calc R U
H32A H 0.4402 0.5049 0.2480 0.026 Uiso 1 1 calc R U
C4A C 0.3671(5) 0.8642(8) 0.1913(3) 0.0329(10) Uani 1 1 d . .
H41A H 0.2755 0.9560 0.1824 0.039 Uiso 1 1 calc R U
H42A H 0.4375 0.9786 0.2321 0.039 Uiso 1 1 calc R U
C5A C 0.4105(5) 0.8171(10) 0.0870(3) 0.0470(13) Uani 1 1 d . .
H51A H 0.4171 0.9845 0.0521 0.070 Uiso 1 1 calc R U
H52A H 0.3402 0.7066 0.0459 0.070 Uiso 1 1 calc R U
H53A H 0.5022 0.7296 0.0955 0.070 Uiso 1 1 calc R U
O1B O 0.6280(2) 0.2425(5) 0.40951(19) 0.0200(6) Uani 1 1 d . .
O2B O 0.6886(2) 0.6462(4) 0.36785(19) 0.0234(6) Uani 1 1 d . .
N1B N 0.8855(3) 0.0583(5) 0.3813(2) 0.0173(7) Uani 1 1 d . .
H1B H 0.8928 0.0930 0.4496 0.026 Uiso 1 1 calc R U
H2B H 0.9724 0.0236 0.3651 0.026 Uiso 1 1 calc R U
H3B H 0.8287 -0.0826 0.3657 0.026 Uiso 1 1 calc R U
C1B C 0.7049(3) 0.4041(7) 0.3720(3) 0.0173(8) Uani 1 1 d . .
C2B C 0.8245(4) 0.2890(7) 0.3216(3) 0.0176(8) Uani 1 1 d . .
H21B H 0.8994 0.4241 0.3207 0.021 Uiso 1 1 calc R U
C3B C 0.7697(4) 0.2067(8) 0.2119(3) 0.0232(9) Uani 1 1 d . .
H31B H 0.7208 0.3573 0.1754 0.028 Uiso 1 1 calc R U
H32B H 0.6993 0.0665 0.2138 0.028 Uiso 1 1 calc R U
C4B C 0.8824(4) 0.1094(9) 0.1503(3) 0.0309(10) Uani 1 1 d . .
H41B H 0.9385 -0.0285 0.1900 0.037 Uiso 1 1 calc R U
H42B H 0.8355 0.0301 0.0856 0.037 Uiso 1 1 calc R U
C5B C 0.9799(4) 0.3213(10) 0.1251(3) 0.0468(13) Uani 1 1 d . .
H51B H 1.0496 0.2470 0.0861 0.070 Uiso 1 1 calc R U
H52B H 1.0281 0.3987 0.1888 0.070 Uiso 1 1 calc R U
H53B H 0.9256 0.4563 0.0839 0.070 Uiso 1 1 calc R U
loop_
_atom_site_aniso_label
_atom_site_aniso_U_11
_atom_site_aniso_U_22
_atom_site_aniso_U_33
_atom_site_aniso_U_23
_atom_site_aniso_U_13
_atom_site_aniso_U_12
O1A 0.0097(12) 0.0195(14) 0.0283(14) -0.0004(12) 0.0034(10) -0.0016(11)
O2A 0.0138(12) 0.0151(14) 0.0349(15) 0.0006(11) 0.0058(11) 0.0035(11)
N1A 0.0093(14) 0.0160(15) 0.0282(16) -0.0005(13) 0.0031(12) 0.0026(12)
C1A 0.0103(17) 0.0171(19) 0.0212(19) -0.0044(16) -0.0016(14) 0.0021(16)
C2A 0.0120(17) 0.0117(18) 0.0278(19) 0.0013(16) 0.0022(15) 0.0005(15)
C3A 0.0169(18) 0.022(2) 0.027(2) -0.0013(17) 0.0050(15) 0.0008(16)
C4A 0.034(2) 0.031(2) 0.034(2) 0.005(2) 0.0100(18) 0.007(2)
C5A 0.051(3) 0.058(3) 0.033(2) 0.007(2) 0.011(2) -0.004(3)
O1B 0.0120(12) 0.0183(13) 0.0308(14) 0.0039(11) 0.0064(11) 0.0013(11)
O2B 0.0167(13) 0.0145(14) 0.0399(15) 0.0000(12) 0.0075(11) 0.0026(11)
N1B 0.0087(14) 0.0173(17) 0.0262(16) -0.0007(13) 0.0040(12) 0.0025(13)
C1B 0.0087(17) 0.0187(19) 0.0231(19) -0.0017(16) -0.0020(14) 0.0012(16)
C2B 0.0138(17) 0.0129(18) 0.0263(19) 0.0021(16) 0.0043(14) 0.0034(15)
C3B 0.0161(18) 0.025(2) 0.028(2) -0.0008(16) 0.0021(16) 0.0011(16)
C4B 0.025(2) 0.042(3) 0.024(2) -0.007(2) -0.0003(16) 0.009(2)
C5B 0.032(3) 0.071(4) 0.041(3) -0.006(3) 0.020(2) -0.008(3)
loop_
_atom_type_symbol
_atom_type_description
_atom_type_scat_dispersion_real
_atom_type_scat_dispersion_imag
_atom_type_scat_source
C C 0.0033 0.0016 'International Tables Vol C Tables 4.2.6.8 and 6.1.1.4'
H H 0.0000 0.0000 'International Tables Vol C Tables 4.2.6.8 and 6.1.1.4'
N N 0.0061 0.0033 'International Tables Vol C Tables 4.2.6.8 and 6.1.1.4'
O O 0.0106 0.0060 'International Tables Vol C Tables 4.2.6.8 and 6.1.1.4'
loop_
_geom_angle_atom_site_label_1
_geom_angle_atom_site_label_2
_geom_angle_atom_site_label_3
_geom_angle
C2A N1A H1A 109.5
C2A N1A H2A 109.5
H1A N1A H2A 109.5
C2A N1A H3A 109.5
H1A N1A H3A 109.5
H2A N1A H3A 109.5
O1A C1A O2A 125.0(3)
O1A C1A C2A 118.2(3)
O2A C1A C2A 116.8(3)
N1A C2A C3A 109.9(3)
N1A C2A C1A 108.9(3)
C3A C2A C1A 113.5(3)
N1A C2A H21A 108.1
C3A C2A H21A 108.2
C1A C2A H21A 108.1
C2A C3A C4A 113.0(3)
C2A C3A H31A 109.0
C4A C3A H31A 109.0
C2A C3A H32A 109.0
C4A C3A H32A 109.0
H31A C3A H32A 107.8
C5A C4A C3A 112.2(4)
C5A C4A H41A 109.2
C3A C4A H41A 109.2
C5A C4A H42A 109.2
C3A C4A H42A 109.2
H41A C4A H42A 107.9
C4A C5A H51A 109.5
C4A C5A H52A 109.5
H51A C5A H52A 109.5
C4A C5A H53A 109.5
H51A C5A H53A 109.5
H52A C5A H53A 109.5
C2B N1B H1B 109.5
C2B N1B H2B 109.5
H1B N1B H2B 109.5
C2B N1B H3B 109.5
H1B N1B H3B 109.5
H2B N1B H3B 109.5
O2B C1B O1B 126.3(3)
O2B C1B C2B 117.4(3)
O1B C1B C2B 116.2(3)
N1B C2B C3B 109.6(3)
N1B C2B C1B 109.8(3)
C3B C2B C1B 110.1(3)
N1B C2B H21B 109.1
C3B C2B H21B 109.1
C1B C2B H21B 109.1
C2B C3B C4B 115.0(3)
C2B C3B H31B 108.5
C4B C3B H31B 108.5
C2B C3B H32B 108.5
C4B C3B H32B 108.5
H31B C3B H32B 107.5
C5B C4B C3B 113.3(4)
C5B C4B H41B 108.9
C3B C4B H41B 108.9
C5B C4B H42B 108.9
C3B C4B H42B 108.9
H41B C4B H42B 107.7
C4B C5B H51B 109.5
C4B C5B H52B 109.5
H51B C5B H52B 109.5
C4B C5B H53B 109.5
H51B C5B H53B 109.5
H52B C5B H53B 109.5
loop_
_geom_bond_atom_site_label_1
_geom_bond_atom_site_label_2
_geom_bond_distance
O1A C1A 1.249(4)
O2A C1A 1.263(4)
N1A C2A 1.489(4)
N1A H1A 0.9100
N1A H2A 0.9100
N1A H3A 0.9100
C1A C2A 1.527(5)
C2A C3A 1.522(5)
C2A H21A 1.0000
C3A C4A 1.523(5)
C3A H31A 0.9900
C3A H32A 0.9900
C4A C5A 1.515(5)
C4A H41A 0.9900
C4A H42A 0.9900
C5A H51A 0.9800
C5A H52A 0.9800
C5A H53A 0.9800
O1B C1B 1.259(4)
O2B C1B 1.250(4)
N1B C2B 1.491(4)
N1B H1B 0.9100
N1B H2B 0.9100
N1B H3B 0.9100
C1B C2B 1.529(5)
C2B C3B 1.523(5)
C2B H21B 1.0000
C3B C4B 1.531(5)
C3B H31B 0.9900
C3B H32B 0.9900
C4B C5B 1.503(6)
C4B H41B 0.9900
C4B H42B 0.9900
C5B H51B 0.9800
C5B H52B 0.9800
C5B H53B 0.9800
loop_
_geom_hbond_atom_site_label_D
_geom_hbond_atom_site_label_H
_geom_hbond_atom_site_label_A
_geom_hbond_distance_DH
_geom_hbond_distance_HA
_geom_hbond_distance_DA
_geom_hbond_angle_DHA
_geom_hbond_site_symmetry_A
N1A H1A O1B 0.91 1.84 2.744(4) 173.3 .
N1A H2A O2A 0.91 1.94 2.839(4) 171.3 1_545
N1A H3A O1B 0.91 2.07 2.824(4) 139.5 2_656
N1B H1B O1A 0.91 1.90 2.799(4) 171.3 2_646
N1B H2B O2A 0.91 1.93 2.829(3) 169.6 1_645
N1B H2B O1A 0.91 2.47 3.085(3) 125.2 1_645
N1B H3B O2B 0.91 1.94 2.823(4) 163.8 1_545
C2B H21B O1A 1.00 2.35 3.234(4) 147.3 1_655
loop_
_geom_torsion_atom_site_label_1
_geom_torsion_atom_site_label_2
_geom_torsion_atom_site_label_3
_geom_torsion_atom_site_label_4
_geom_torsion
O1A C1A C2A N1A -15.9(4)
O2A C1A C2A N1A 165.4(3)
O1A C1A C2A C3A 106.8(3)
O2A C1A C2A C3A -71.9(4)
N1A C2A C3A C4A -166.6(3)
C1A C2A C3A C4A 71.3(4)
C2A C3A C4A C5A 170.1(3)
O2B C1B C2B N1B 145.8(3)
O1B C1B C2B N1B -37.6(4)
O2B C1B C2B C3B -93.5(4)
O1B C1B C2B C3B 83.1(4)
N1B C2B C3B C4B -64.1(4)
C1B C2B C3B C4B 175.1(3)
C2B C3B C4B C5B -69.2(4)
