#------------------------------------------------------------------------------
#$Date: 2016-06-11 05:20:56 +0300 (Sat, 11 Jun 2016) $
#$Revision: 183357 $
#$URL: file:///home/coder/svn-repositories/cod/cif/1/54/34/1543418.cif $
#------------------------------------------------------------------------------
#
# This file is available in the Crystallography Open Database (COD),
# http://www.crystallography.net/. The original data for this entry
# were provided by IUCr Journals, http://journals.iucr.org/.
#
# The file may be used within the scientific community so long as
# proper attribution is given to the journal article from which the
# data were obtained.
#
data_1543418
loop_
_publ_author_name
'Medjani, Meriem'
'Brihi, Ouarda'
'Bouraoui, Hazem'
'Hamdouni, Noudjoud'
'Boudjada, Ali'
'Meinnel, Jean'
_publ_section_title
;
 3,5-Dibromo-4-methylpyridine
;
_journal_coeditor_code           SJ4042
_journal_issue                   6
_journal_name_full               IUCrData
_journal_page_first              x160859
_journal_paper_doi               10.1107/S2414314616008592
_journal_volume                  1
_journal_year                    2016
_chemical_formula_iupac          'C6 H5 Br2 N'
_chemical_formula_moiety         'C6 H5 Br2 N'
_chemical_formula_sum            'C6 H5 Br2 N'
_chemical_formula_weight         250.91
_chemical_name_systematic
;
3,5-Dibromo-4-methylpyridine
;
_space_group_crystal_system      orthorhombic
_space_group_IT_number           62
_space_group_name_Hall           '-P 2ac 2n'
_space_group_name_H-M_alt        'P n m a'
_symmetry_space_group_name_Hall  '-P 2ac 2n'
_symmetry_space_group_name_H-M   'P n m a'
_atom_sites_solution_hydrogens   geom
_atom_sites_solution_primary     direct
_atom_sites_solution_secondary   difmap
_audit_creation_method           SHELXL-2014/6
_cell_angle_alpha                90
_cell_angle_beta                 90
_cell_angle_gamma                90
_cell_formula_units_Z            4
_cell_length_a                   14.178(3)
_cell_length_b                   6.9187(18)
_cell_length_c                   7.6407(12)
_cell_measurement_reflns_used    659
_cell_measurement_temperature    293(2)
_cell_measurement_theta_max      31.116
_cell_measurement_theta_min      4.102
_cell_volume                     749.5(3)
_computing_cell_refinement
;
CrysAlis PRO (Oxford Diffraction, 2013)
;
_computing_data_collection
;
CrysAlis PRO (Oxford Diffraction, 2013)
;
_computing_data_reduction
;
CrysAlis PRO (Oxford Diffraction, 2013)
;
_computing_molecular_graphics
;
Mercury (Macrae <i>et al.</i>,  2008)
;
_computing_publication_material
;
SHELXL2014 (Sheldrick, 2015) and PLATON (Spek, 2009)
;
_computing_structure_refinement
;
SHELXL2014 (Sheldrick, 2015)
;
_computing_structure_solution
;
SIR97 (Altomare <i>et al.</i>,  1999)
;
_diffrn_ambient_temperature      293(2)
_diffrn_detector_area_resol_mean 8.0226
_diffrn_measured_fraction_theta_full 0.9947
_diffrn_measured_fraction_theta_max 0.8852
_diffrn_measurement_device_type  'Oxford Diffraction Xcalibur Eos'
_diffrn_measurement_method       'CCD rotation images, thin slices \w'
_diffrn_radiation_monochromator  graphite
_diffrn_radiation_source         'Enhance (Mo) X-ray Source'
_diffrn_radiation_type           MoK\a
_diffrn_radiation_wavelength     0.71073
_diffrn_reflns_av_R_equivalents  0.0485
_diffrn_reflns_limit_h_max       20
_diffrn_reflns_limit_h_min       -17
_diffrn_reflns_limit_k_max       9
_diffrn_reflns_limit_k_min       -8
_diffrn_reflns_limit_l_max       11
_diffrn_reflns_limit_l_min       -11
_diffrn_reflns_number            3138
_diffrn_reflns_theta_full        30.014
_diffrn_reflns_theta_max         32.4916
_diffrn_reflns_theta_min         3.0286
_exptl_absorpt_coefficient_mu    10.723
_exptl_absorpt_correction_T_max  1.00000
_exptl_absorpt_correction_T_min  0.56565
_exptl_absorpt_correction_type   multi-scan
_exptl_absorpt_process_details
;
(CrysAlis PRO; Oxford Diffraction, 2013)
;
_exptl_crystal_colour            colourless
_exptl_crystal_density_diffrn    2.224
_exptl_crystal_density_method    'Not Measured'
_exptl_crystal_description       prism
_exptl_crystal_F_000             472
_exptl_crystal_size_max          0.11
_exptl_crystal_size_mid          0.10
_exptl_crystal_size_min          0.08
_refine_diff_density_max         0.716
_refine_diff_density_min         -0.83
_refine_ls_extinction_method     none
_refine_ls_goodness_of_fit_ref   1.022
_refine_ls_hydrogen_treatment    constr
_refine_ls_matrix_type           full
_refine_ls_number_parameters     55
_refine_ls_number_reflns         1289
_refine_ls_number_restraints     0
_refine_ls_restrained_S_all      1.022
_refine_ls_R_factor_all          0.122
_refine_ls_R_factor_gt           0.0511
_refine_ls_shift/su_max          0.000
_refine_ls_shift/su_mean         0.000
_refine_ls_structure_factor_coef Fsqd
_refine_ls_weighting_details
'calc w=1/[\s^2^(Fo^2^)+(0.0347P)^2^+0.0979P] where P=(Fo^2^+2Fc^2^)/3'
_refine_ls_weighting_scheme      calc
_refine_ls_wR_factor_gt          0.1250
_refine_ls_wR_factor_ref         0.125
_reflns_number_gt                650
_reflns_number_total             1228
_reflns_threshold_expression     'I > 2\s(I)'
_cod_data_source_file            sj4042sup1.cif
_cod_data_source_block           I
_cod_database_code               1543418
_shelx_space_group_comment
;
The symmetry employed for this shelxl refinement is uniquely defined
by the following loop, which should always be used as a source of
symmetry information in preference to the above space-group names.
They are only intended as comments.
;
_shelx_estimated_absorpt_t_min   0.56565
_shelx_estimated_absorpt_t_max   1
_shelx_hkl_file
;
   3   0   0 1067.82 362.487   3
  -3   0   0 975.764 430.746   3
  -4   0   0 40765.6 2848.06   3
   4   0   0 43370.1 2863.33   3
  -5   0   0 610.521 480.062   3
   5   0   0 293.768 247.005   3
   6   0   0 556133. 13227.4   3
   7   0   0-220.665 686.569   3
   8   0   0 122567. 7122.47   3
   9   0   0-445.849 733.973   3
  10   0   0 323604. 12871.9   3
  11   0   0 265.465 239.035   3
  12   0   0 2806.12 1418.73   3
  13   0   0 766.361 857.369   3
  14   0   0 46423.4 6067.71   3
  15   0   0 399.739 704.051   3
  16   0   0 51201.9 6937.82   3
  17   0   0 2733.12 2092.36   3
  18   0   0 3608.95 2203.06   3
  -1   0   1 34099.7 1282.97   1
  -2   0   1 371763. 7728.29   3
   2   0  -1 392221. 7909.50   3
  -3   0   1 29957.2 2432.56   3
  -3   0  -1 29338.5 2290.86   3
   3   0  -1 30608.1 2401.29   3
  -4   0   1 3374.22 901.169   3
  -4   0  -1 3736.60 887.242   3
   4   0  -1 2973.89 681.967   3
  -5   0  -1 278660. 9010.80   3
   5   0  -1 260240. 8500.80   3
  -5   0   1 255465. 8743.42   3
   5   0   1 274896. 8291.85   3
   6   0   1 222266. 8260.21   3
   6   0  -1 233552. 8573.24   3
   7   0  -1 37468.0 3610.81   3
   7   0   1 37550.5 3676.10   3
   8   0  -1 338742. 12029.7   3
   8   0   1 321579. 11516.2   3
   9   0   1 8227.18 2145.12   3
   9   0  -1 8257.40 2217.55   3
  10   0  -1 1214.87 305.358   3
  10   0   1 2658.57 1280.30   3
  11   0  -1 54772.9 5781.81   3
  11   0   1 51266.8 5447.76   3
  12   0  -1 12278.4 2681.60   3
  12   0   1 12938.6 3203.13   3
  13   0   1 8825.46 2664.66   3
  13   0  -1 6088.80 1940.95   3
  14   0  -1 13156.0 3179.77   3
  14   0   1 14454.6 3724.49   3
  15   0  -1 9119.79 2663.34   3
  16   0  -1 22104.9 4384.33   3
  17   0  -1 598.114 901.932   3
  18   0  -1 27322.5 5424.96   3
  19   0  -1 10061.9 3414.95   3
  20   0  -1 3466.29 2426.88   3
   0   0  -2 335892. 6861.69   1
   1   0  -2 59373.9 2374.35   1
  -1   0   2 59748.7 2627.71   1
  -2   0   2 6770.94 1306.09   3
  -2   0   2 7531.92 840.892   1
   2   0  -2 8256.83 1457.92   3
   3   0  -2 986017. 16657.4   3
  -3   0   2 963042. 17338.2   3
   4   0  -2 1435.98 638.897   3
  -4   0   2 1751.74 770.564   3
   5   0  -2 169.596 375.007   3
   6   0  -2 1981.03 959.399   3
   7   0  -2 157317. 8236.87   3
   8   0  -2 462.000 157.005   3
   9   0  -2 21505.1 3301.60   3
  10   0  -2 28079.0 4017.27   3
  11   0  -2 109907. 8366.13   3
  12   0  -2 3134.06 1579.99   3
  13   0  -2 131044. 9837.30   3
  14   0  -2 3701.18 978.641   3
  15   0  -2-1076.29 1753.94   3
  16   0  -2-466.391 1145.24   3
  17   0  -2 3311.32 1756.86   3
  18   0  -2-839.927 637.015   3
  19   0  -2 2753.43 1856.71   3
  20   0  -2 3393.41 2315.94   3
   0   0  -3 273.798 225.563   1
   1   0  -3 40249.8 2478.33   1
   2   0  -3 142459. 7468.85   3
  -2   0   3 136012. 4809.69   1
  -3   0   3 36108.6 2353.63   1
   3   0  -3 37668.0 3926.39   3
  -4   0   3 7871.95 1123.20   1
   4   0  -3 8760.50 2022.68   3
   5   0  -3 808955. 19000.0   3
   6   0  -3 1282.34 722.278   3
   7   0  -3 27218.7 3751.39   3
   8   0  -3 53986.9 5253.10   3
   9   0  -3 8062.12 1909.05   3
  10   0  -3-972.689 1143.40   3
  11   0  -3 115969. 9003.67   3
  12   0  -3 770.099 891.162   3
  13   0  -3 10100.8 3032.24   3
  14   0  -3 4841.68 2219.37   3
  15   0  -3 37023.1 5791.45   3
  16   0  -3 239.791 1845.50   3
  17   0  -3-496.064 1234.50   3
  18   0  -3 207.293 1166.79   3
  19   0  -3 5043.38 2196.61   3
  20   0  -3 2491.61 1645.88   3
   0   0  -4 607044. 12788.6   1
   1   0  -4 14209.3 1731.64   1
   2   0  -4 2328.67 684.255   1
   2   0  -4 1314.86 568.974   3
  -3   0   4 247912. 7482.65   1
   3   0  -4 277661. 12128.6   3
  -4   0   4 844.222 361.619   1
   4   0  -4 1303.88 969.713   3
   5   0  -4 440.115 605.463   3
  -5   0   4 474.395 407.676   1
   6   0  -4 161736. 9758.14   3
   7   0  -4 54544.8 5722.65   3
   7   0   4 42709.1 1361.53   2
   8   0  -4 68405.4 6524.44   3
   9   0  -4 3853.13 1761.15   3
  10   0  -4 59104.9 6457.92   3
  11   0  -4 29601.2 4581.47   3
  12   0  -4 225.891 585.170   3
  13   0  -4 39137.2 5670.35   3
  14   0  -4 17754.0 4167.98   3
  15   0  -4 951.484 1245.35   3
  16   0  -4 29269.9 5418.92   3
  17   0  -4-1620.42 2069.78   3
  18   0  -4-1953.11 1869.30   3
  19   0  -4-773.728 1398.72   3
   0   0  -5-184.572 293.516   1
   1   0  -5 5259.63 1271.35   1
  -1   0  -5 4902.62 1325.02   1
   2   0  -5 317746. 14214.6   3
   2   0  -5 308842. 8884.69   1
   3   0  -5 4257.69 1382.34   3
   4   0  -5 328.996 476.830   3
   5   0  -5 871.747 1107.35   3
   6   0  -5 47432.4 5691.91   3
   7   0  -5 231.542 544.678   3
   8   0  -5 205541. 12465.3   3
   9   0  -5 3549.78 1707.30   3
  10   0  -5 2863.57 1730.96   3
  11   0  -5 2250.03 656.985   3
  12   0  -5 764.411 173.444   3
  13   0  -5-188.920 373.285   3
  14   0  -5 2087.19 1444.93   3
  15   0  -5 1894.42 1384.36   3
  16   0  -5 8787.40 3120.58   3
  17   0  -5 1360.55 1660.13   3
  18   0  -5 11290.5 3794.52   3
   0   0  -6 222276. 9246.71   1
  -1   0  -6 1738.68 447.202   1
   1   0  -6 1220.26 613.568   1
   2   0  -6 22648.9 4174.98   3
  -2   0  -6 24106.1 3395.20   1
   3   0  -6 77510.6 8091.00   3
   4   0  -6 639.786 961.298   3
   5   0  -6 2004.73 1629.62   3
   6   0  -6 43251.9 6120.08   3
   7   0  -6 10297.4 3044.10   3
   8   0  -6 9112.88 2673.41   3
   9   0  -6 9351.26 2979.52   3
  10   0  -6 72532.9 8234.16   3
  11   0  -6 7939.98 2929.29   3
  12   0  -6-1047.70 1728.80   3
  13   0  -6 14620.4 3733.67   3
  14   0  -6 2170.43 965.451   3
  15   0  -6-223.663 177.892   3
  16   0  -6 15035.6 4174.68   3
  17   0  -6 3485.64 2259.04   3
   0   0  -7 447.812 620.523   1
   1   0  -7 42872.7 6294.94   3
   1   0  -7 42018.0 4083.40   1
  -1   0  -7 46267.5 4722.64   1
   2   0  -7 4693.02 1470.31   3
  -2   0  -7 5292.31 1494.81   1
  -3   0  -7 15024.0 2912.87   1
   3   0  -7 15654.0 3592.04   3
  -4   0  -7 12819.6 3006.59   1
   4   0  -7 11634.1 3514.00   3
   5   0  -7 127645. 11181.2   3
   6   0  -7 3204.66 2063.24   3
   7   0  -7-1649.85 1855.52   3
   8   0  -7 5136.10 2126.57   3
   9   0  -7 7236.91 2709.78   3
  10   0  -7 3030.91 1660.03   3
  11   0  -7 37285.1 6262.13   3
  12   0  -7 3503.62 2388.86   3
  13   0  -7 6209.18 2549.85   3
  14   0  -7 1206.55 607.524   3
  15   0  -7-846.101 1433.96   3
  16   0  -7-700.546 952.858   3
   0   0  -8 12614.2 3496.49   3
   0   0  -8 14847.3 2712.71   1
  -1   0  -8 3389.19 1250.39   1
   1   0  -8 3816.86 1320.97   1
   1   0  -8 1842.24 1039.54   3
  -2   0  -8-300.687 1072.58   1
   2   0  -8-1527.22 2180.50   3
   3   0  -8 91096.3 10386.2   3
  -3   0  -8 94552.4 7980.14   1
   4   0  -8 1407.27 1292.95   3
  -4   0  -8 1754.96 1215.91   1
   5   0  -8 1310.20 1742.80   3
  -5   0  -8 454.628 1160.29   1
  -6   0  -8 6997.75 2570.85   1
   6   0  -8 8958.07 3327.68   3
   7   0  -8 17555.2 4447.46   3
   8   0  -8-135.406 561.499   3
   9   0  -8 3148.95 2030.42   3
  10   0  -8 369.523 750.709   3
  11   0  -8 5009.62 2603.23   3
  12   0  -8 1285.39 1788.38   3
  13   0  -8 30260.5 5967.86   3
  14   0  -8-2228.58 1944.07   3
  15   0  -8 211.733 670.368   3
   0   0  -9-2572.22 2755.43   3
   0   0  -9 355.824 836.816   1
   1   0  -9 2158.72 520.817   3
  -1   0  -9 1029.49 565.843   3
   2   0  -9 18418.7 4838.93   3
  -2   0  -9 19202.7 3460.37   1
  -3   0  -9 4354.28 1821.02   1
   3   0  -9 4473.31 2261.25   3
   4   0  -9 4544.17 2650.13   3
  -4   0  -9 3279.84 1408.65   1
  -5   0  -9 14840.3 3516.60   1
   5   0  -9 15984.6 4780.74   3
  -6   0  -9 8444.06 2780.39   1
   6   0  -9 9124.81 3886.19   3
   7   0  -9 2720.97 1409.12   3
  -7   0  -9 6159.67 2648.01   1
   8   0  -9 12600.8 3761.69   3
  -8   0  -9 20511.8 4809.63   1
   9   0  -9 171.933 819.877   3
  -9   0  -9 458.026 1025.62   1
  10   0  -9-625.085 787.314   3
  11   0  -9 4034.64 2496.59   3
  12   0  -9 2413.21 2157.27   3
   0   0 -10 22440.1 5601.65   3
   1   0 -10 385.003 898.264   3
  -1   0 -10-1859.52 2504.94   3
  -2   0 -10 352.162 1142.99   3
   2   0 -10 1993.07 1724.85   3
   3   0 -10 423.796 515.360   3
  -3   0 -10-285.617 484.150   1
  -4   0 -10 505.791 562.128   1
   4   0 -10 3141.06 2434.13   3
   5   0 -10 2385.33 2194.84   3
  -5   0 -10 513.376 810.127   1
   6   0 -10 9072.38 3480.69   3
  -6   0 -10 9061.66 2915.34   1
   7   0 -10-1040.89 1732.06   3
  -7   0 -10 1329.00 1319.85   1
   8   0 -10-776.838 1452.07   3
  -8   0 -10 1517.29 1519.04   1
  -9   0 -10 1893.34 1681.48   1
   9   0 -10 1948.91 1610.76   3
   0   0 -11-4352.90 3151.62   3
  -1   0 -11 448.673 1429.17   3
   1   0 -11 2943.12 2066.11   3
   2   0 -11 4609.89 2722.08   3
   3   0 -11 1191.97 1439.27   3
   1   1   0 39.6883 34.3193   2
   1  -1   0 59.1778 131.956   3
   2  -1   0 56557.3 2807.89   3
  -2  -1   0 60105.5 2023.67   2
  -2  -1   0 57716.2 1990.22   3
  -2   1   0 59556.5 2948.63   3
  -3   1   0 350.304 97.7417   3
   3   1   0 894.087 397.711   3
  -3  -1   0 483.081 186.448   3
   3  -1   0 793.444 456.477   3
  -4  -1   0 973432. 12785.1   3
  -4   1   0 999999. 15688.6   3
   4   1   0 971474. 12784.5   3
   5  -1   0 870.098 681.846   3
  -5  -1   0 615.641 447.974   3
   5   1   0 476.015 505.367   3
  -6  -1   0 388635. 10288.6   3
   6  -1   0 401880. 11546.5   3
   6   1   0 400974. 10247.6   3
   7  -1   0-804.744 932.384   3
   7   1   0 455.532 500.112   3
   8   1   0 3780.21 1173.01   3
   8  -1   0 2348.53 76.0991   3
   9  -1   0-1253.38 1374.26   3
   9   1   0 202.817 424.929   3
  10  -1   0 196501. 10681.6   3
  10   1   0 185619. 9718.89   3
  11   1   0 689.819 951.535   3
  11  -1   0 93.9850 885.118   3
  12   1   0 30672.1 4365.07   3
  12  -1   0 30225.0 4444.08   3
  13   1   0 796.342 1448.81   3
  13  -1   0 26.3529 478.225   3
  14  -1   0 73286.4 7536.20   3
  14   1   0 68132.4 7247.42   3
  15   1   0 1685.27 1535.19   3
  15  -1   0 239.349 668.934   3
  16  -1   0 12902.7 3558.63   3
  16   1   0 14915.2 3879.89   3
  17  -1   0 1960.11 1752.01   3
  18  -1   0 2315.59 2024.67   3
  19  -1   0 3121.46 2319.25   3
  20  -1   0 24833.8 5692.64   3
   0   1  -1 2095.29 478.549   1
   0  -1   1 1916.46 445.037   1
  -1   1   1 337019. 8078.06   3
   1   1  -1 342253. 5146.33   3
   1  -1  -1 330762. 7938.73   3
   1  -1   1 344406. 4990.90   2
  -1   1  -1 332289. 6808.96   1
  -2   1  -1 409751. 7656.14   3
  -2   1   1 395959. 9250.70   3
  -2   1  -1 393847. 5039.06   2
   2   1  -1 394184. 6118.00   3
   2  -1   1 391717. 7197.22   3
   2  -1   1 379962. 4893.85   2
  -2  -1   1 382741. 6521.25   3
   2  -1  -1 376318. 9082.33   3
  -3  -1   1 7787.73 1054.07   3
   3   1   1 7441.30 591.886   2
   3   1  -1 7142.96 965.190   3
  -3   1  -1 7639.01 694.107   2
   3  -1  -1 7769.57 1376.95   3
  -3   1   1 8293.67 1379.63   3
  -3   1  -1 8402.45 1264.42   3
   3  -1   1 8128.46 1245.21   3
  -4  -1   1 415471. 8955.27   3
   4   1  -1 422011. 8723.12   3
   4  -1  -1 412653. 10561.4   3
  -4   1  -1 431750. 5214.40   2
   4  -1   1 420297. 9810.63   3
  -4   1   1 427718. 11293.5   3
   5  -1   1 65385.1 4304.75   3
   5  -1  -1 70481.9 4766.14   3
  -5  -1  -1 72782.9 4151.41   3
  -5  -1   1 66692.3 4035.41   3
   5   1  -1 69006.8 3921.21   3
  -5  -1  -1 64870.7 1783.38   2
   6  -1  -1 99392.2 6056.84   3
  -6  -1   1 97703.4 5347.37   3
   6   1  -1 99835.5 5305.41   3
  -6  -1  -1 95945.4 2255.41   2
   6  -1   1 96751.5 5627.79   3
   7  -1  -1 12381.8 2286.12   3
   7   1  -1 13084.0 2139.16   3
   7  -1   1 12000.9 2231.84   3
  -7  -1  -1 11715.6 837.932   2
   8   1  -1 11854.4 2066.87   3
   8  -1  -1 12202.3 2397.41   3
  -8  -1  -1 10242.3 843.748   2
   8  -1   1 12281.4 2581.83   3
  -9  -1  -1 117883. 3067.44   2
   9  -1  -1 132342. 8345.79   3
   9   1  -1 144455. 8317.35   3
   9  -1   1 130905. 7986.05   3
  10  -1  -1 11972.5 2555.22   3
  10   1  -1 10682.4 2261.04   3
 -10  -1  -1 9972.33 915.772   2
  10  -1   1 11608.6 2559.58   3
  11   1  -1 6568.65 1816.84   3
  11  -1   1 7602.24 2307.99   3
 -11  -1  -1 5848.75 705.375   2
  11  -1  -1 7385.57 2193.25   3
  12  -1   1 86234.2 7604.13   3
  12  -1  -1 91158.2 8148.20   3
  12   1  -1 93291.4 7600.14   3
  13   1  -1 3620.30 1451.08   3
  13  -1   1 4991.70 2045.13   3
  13  -1  -1 2647.22 705.505   3
  14   1  -1 38642.1 5248.47   3
  14  -1  -1 37889.6 5548.16   3
  14  -1   1 40531.8 5647.06   3
  15   1  -1 35286.8 5355.74   3
  15  -1   1 33149.8 5538.09   3
  15  -1  -1 35359.3 5592.07   3
  16   1  -1 388.882 1044.70   3
  16  -1  -1 487.005 195.472   3
  16  -1   1 1668.80 1595.36   3
  17   1  -1 897.648 1287.00   3
  17  -1  -1 209.254 552.344   3
  18  -1  -1 4464.08 2392.42   3
  18   1  -1 4681.99 2443.73   3
  19  -1  -1 2419.22 2164.11   3
  19   1  -1 2951.23 2155.39   3
  20  -1  -1 2142.90 2016.26   3
   0  -1   2 927.892 447.109   1
   0   1  -2 695.287 323.248   1
  -1   1  -2 483755. 10136.9   1
   1  -1  -2 471095. 12019.3   3
  -1  -1   2 448988. 8500.30   1
  -2  -1   2 3585.99 808.904   1
   2  -1  -2 3475.26 993.986   3
  -2   1   2 3302.30 836.109   3
   2   1  -2 3612.03 864.021   3
   3  -1  -2 260282. 9456.60   3
   3   1  -2 256348. 7634.39   3
  -3   1   2 252325. 9599.85   3
  -3  -1   2 241277. 7741.19   3
   3  -1   2 254877. 4675.81   2
   4  -1   2 135227. 3067.04   2
   4   1  -2 135420. 5883.25   3
  -4  -1   2 140224. 6312.51   3
   4  -1  -2 137408. 7009.20   3
  -5  -1   2 13454.1 2111.32   3
   5  -1  -2 13726.6 2373.07   3
   5   1   2 12306.4 688.746   2
   5   1  -2 13084.2 1949.62   3
   6  -1  -2 15619.7 2720.56   3
   6   1  -2 13188.7 2141.08   3
   7  -1  -2 511682. 15491.7   3
   7   1  -2 495757. 13655.1   3
   8   1  -2 230.368 379.880   3
   8  -1  -2-125.409 841.977   3
   9   1  -2 188352. 9274.53   3
   9  -1  -2 187097. 10391.6   3
  -9   1  -2 176109. 3262.82   2
 -10   1  -2 33674.2 1433.81   2
  10   1  -2 39095.8 4557.65   3
  10  -1  -2 40639.0 4924.83   3
  11   1  -2 59465.9 5924.90   3
  11  -1  -2 57080.9 6258.05   3
  12  -1  -2 516.235 729.133   3
  12   1  -2-533.764 1329.86   3
  13   1  -2 22371.0 3967.12   3
  13  -1  -2 22895.6 4619.78   3
  14  -1  -2 4561.48 2031.49   3
  14   1  -2 5555.36 1754.70   3
  15   1  -2 137.116 236.719   3
  15  -1  -2-2557.56 2136.94   3
  16   1  -2-233.690 999.961   3
  16  -1  -2-120.028 1133.42   3
  17  -1  -2 53903.7 7644.79   3
  17   1  -2 47281.8 6761.13   3
  18  -1  -2 277.880 680.825   3
  18   1  -2 232.340 1066.67   3
  19   1  -2 3356.71 2270.59   3
  19  -1  -2 1512.21 1221.05   3
  20   1  -2 4276.12 2448.51   3
  20  -1  -2 1616.11 1500.60   3
   0   1  -3 16033.6 1922.50   1
   1  -1  -3 650380. 16665.5   3
   1  -1  -3 663397. 8991.82   1
  -1   1  -3 656703. 13699.5   1
   1   1  -3 633836. 11789.6   1
  -1  -1   3 610169. 12049.7   1
   2  -1  -3 124984. 7407.46   3
   2   1  -3 122568. 6245.13   3
   2  -1  -3 118953. 3078.44   1
  -2  -1   3 112683. 5059.16   1
  -2   1  -3 117595. 6447.77   1
   3  -1  -3 6383.06 1628.80   3
   3   1  -3 5832.90 1433.36   3
  -4   1   3 242.079 130.798   1
   4  -1   3 104.878 247.367   2
   4  -1  -3 1358.32 1135.74   3
   4   1  -3 987.859 807.525   3
   5   1  -3 34080.1 3660.09   3
   5  -1  -3 36383.7 4267.73   3
   5  -1   3 34481.0 1749.29   2
   6   1   3 7026.53 562.007   2
   6  -1  -3 7701.60 2059.01   3
   6   1  -3 8022.53 1834.72   3
   7  -1  -3 44562.3 5095.49   3
   7   1  -3 45485.1 4399.62   3
   8   1  -3 6146.82 1517.72   3
   8  -1  -3 7160.76 2101.54   3
   9   1  -3 193101. 10174.1   3
   9  -1  -3 191810. 11041.8   3
  10   1  -3 989.892 909.022   3
  10  -1  -3-1645.87 1550.26   3
  11   1  -3 63329.4 6406.91   3
  11  -1  -3 65432.4 6971.31   3
  12  -1  -3 11768.7 3055.50   3
  12   1  -3 14305.0 3213.40   3
  13  -1  -3 1137.12 1264.07   3
  13   1  -3 2224.11 1740.33   3
  14   1  -3-349.634 1459.66   3
  14  -1  -3 2205.08 1763.92   3
  15  -1  -3 46596.7 6959.98   3
  15   1  -3 47232.0 6822.75   3
  16  -1  -3-2255.47 1625.90   3
  16   1  -3-517.960 1396.83   3
  17   1  -3 1849.03 817.122   3
  17  -1  -3 1866.66 497.293   3
  18   1  -3 309.566 724.722   3
  18  -1  -3-1858.05 2156.11   3
  19   1  -3 3454.60 2148.03   3
  19  -1  -3 1440.46 1334.40   3
  20   1  -3 2056.79 1870.33   3
   0   1  -4 157.441 220.490   1
   1  -1  -4 139945. 8734.04   3
   1   1  -4 124913. 5998.63   1
  -1   1  -4 134052. 6824.78   1
   1  -1  -4 137968. 4980.16   1
   2   1  -4 36621.4 4044.21   3
  -2   1  -4 40244.2 3941.93   1
   2  -1  -4 37980.4 4606.54   3
   2  -1  -4 37555.9 2204.63   1
   3  -1  -4 28547.2 4091.86   3
   3   1  -4 27631.1 3610.97   3
   4  -1  -4 270862. 12683.9   3
   4   1  -4 267062. 11285.9   3
   5  -1  -4 6160.48 1925.94   3
  -5   1   4 6205.70 865.098   1
   5   1  -4 5742.78 1663.46   3
  -6   1   4 97097.2 3690.12   1
   6  -1   4 90771.8 3182.45   2
   6   1  -4 90526.3 6804.42   3
   6  -1  -4 101724. 8050.97   3
   7  -1  -4 114047. 8687.65   3
  -7   1   4 118188. 4101.64   1
   7   1  -4 113626. 7874.37   3
   7  -1   4 110906. 3148.71   2
   8  -1  -4 1655.40 1193.76   3
   8   1  -4 1685.19 1250.83   3
   9  -1  -4 33113.2 4946.17   3
   9   1  -4 31437.5 4350.64   3
  10  -1  -4 40326.0 5403.64   3
  10   1  -4 38841.5 4986.88   3
  11  -1  -4 2286.92 755.047   3
  11   1  -4 3631.19 1478.60   3
  12  -1  -4 8775.91 2592.23   3
  12   1  -4 9894.52 2740.25   3
  13  -1  -4-239.876 414.169   3
  13   1  -4-68.3633 336.976   3
  14  -1  -4 20637.7 4622.85   3
  14   1  -4 22907.3 4453.73   3
  15   1  -4 2419.76 1733.90   3
  15  -1  -4 2224.59 1746.80   3
  16   1  -4-1089.86 1710.19   3
  16  -1  -4 3326.85 2064.98   3
  17  -1  -4 12979.9 4193.22   3
  17   1  -4 6376.92 2455.71   3
  18   1  -4-482.426 663.916   3
  18  -1  -4-3575.29 2682.56   3
  19  -1  -4 240.497 1056.22   3
  19   1  -4 1377.44 1164.81   3
  20   1  -4 11145.5 3758.69   3
   0  -1  -5 498.912 175.721   1
   0   1  -5 975.436 569.417   1
   1  -1  -5 719.294 467.815   1
   1  -1  -5-82.7663 1112.03   3
   1   1  -5 882.587 707.570   1
  -1   1  -5 521.049 324.385   1
   2   1  -5 255854. 12616.1   3
  -2   1  -5 266670. 11212.4   1
   2  -1  -5 251982. 6901.57   1
   2  -1  -5 265047. 13863.7   3
   3   1  -5 31015.0 4273.48   3
  -3   1  -5 30272.2 3760.80   1
   3  -1  -5 32245.9 4798.11   3
   4  -1  -5 125818. 9685.71   3
   4   1  -5 128364. 8961.77   3
   5   1  -5 5581.70 1862.73   3
   5  -1  -5 5707.48 2265.21   3
   6  -1  -5 73029.9 7536.58   3
   6   1  -5 75956.9 6980.51   3
   7  -1   5 6837.73 894.730   2
   7  -1  -5 7390.18 2144.74   3
   7   1  -5 7737.62 2146.70   3
  -7   1   5 7369.93 1153.17   1
   8   1  -5 1379.98 987.557   3
   8  -1  -5 939.762 842.254   3
   9   1  -5 6381.81 2219.12   3
   9  -1  -5 6431.00 2453.74   3
  10  -1  -5-57.3874 475.271   3
  10   1  -5 311.407 1089.90   3
  11   1  -5 9577.30 2567.01   3
  11  -1  -5 11830.5 3092.99   3
  12  -1  -5 91374.2 9405.97   3
  12   1  -5 96837.1 8964.46   3
  13   1  -5 107.105 225.473   3
  13  -1  -5-847.502 1483.62   3
  14  -1  -5 19700.3 4619.70   3
  14   1  -5 19735.1 4314.82   3
  15   1  -5 2267.24 1776.94   3
  15  -1  -5-169.817 614.859   3
  16  -1  -5 3015.67 2079.50   3
  16   1  -5 2728.46 2143.71   3
  17   1  -5-1832.62 1672.89   3
  17  -1  -5 1309.72 1579.54   3
  18   1  -5 2703.47 1562.44   3
  18  -1  -5 7530.75 3493.86   3
   0  -1  -6 105.018 185.778   1
   0   1  -6 382.037 644.915   1
  -1  -1  -6 14873.8 2375.59   1
   1   1  -6 14613.2 2486.07   1
   1  -1  -6 12884.4 3070.69   3
  -1   1  -6 14284.2 2546.61   1
   1  -1  -6 15218.5 2028.48   1
  -2   1  -6 39914.1 4557.19   1
   2   1  -6 38726.3 5211.40   3
   2  -1  -6 40442.8 5819.32   3
   2  -1  -6 43018.3 3251.92   1
   3   1  -6 25019.5 4238.42   3
  -3   1  -6 27648.5 3966.93   1
   3  -1  -6 26983.2 4771.30   3
  -4   1  -6 198065. 11513.1   1
   4  -1  -6 203924. 13512.1   3
   4   1  -6 194107. 12262.3   3
   5   1  -6 7223.11 2376.14   3
   5  -1  -6 9852.86 3080.96   3
   6   1  -6 79641.0 7930.11   3
   6  -1  -6 82288.3 8524.47   3
   7  -1  -6 44087.2 6500.41   3
   7   1  -6 43215.1 5828.30   3
   8  -1  -6 531.973 470.103   3
   8   1  -6 405.682 469.991   3
   9   1  -6 12062.9 3279.37   3
   9  -1  -6 10920.0 3256.46   3
  10  -1  -6 29171.6 5575.20   3
  10   1  -6 29102.2 5115.38   3
  11   1  -6 2777.67 1292.62   3
  11  -1  -6 2722.90 1778.11   3
  12   1  -6 1535.31 831.110   3
  12  -1  -6 2028.29 1005.99   3
  13  -1  -6 2981.98 1454.01   3
  13   1  -6 4158.43 1831.10   3
  14  -1  -6 11717.7 3675.09   3
  14   1  -6 12371.6 3615.60   3
  15  -1  -6-814.726 996.432   3
  15   1  -6-58.1362 161.627   3
  16  -1  -6 998.285 1200.16   3
  16   1  -6 1969.01 1672.75   3
  17   1  -6 7341.72 3140.00   3
  17  -1  -6 5461.12 2803.75   3
   0  -1  -7 24609.1 3120.65   1
   0   1  -7 21809.4 3245.57   1
   0  -1  -7 20994.5 4398.85   3
   1   1  -7 70921.7 5812.26   1
   1  -1  -7 73373.4 4972.91   1
   1   1  -7 73149.7 7884.60   3
  -1  -1  -7 78534.1 6003.14   1
   1  -1  -7 71050.2 8362.15   3
  -1   1  -7 71883.9 6263.57   1
  -2   1  -7 2538.26 1090.83   1
   2   1  -7 676.588 1012.24   3
   2  -1  -7 1494.59 270.025   3
  -2  -1  -7 2901.95 968.575   1
   3  -1  -7 151.371 821.984   3
   3   1  -7-375.036 1299.76   3
  -3   1  -7 755.456 473.845   1
  -4   1  -7 5478.72 1950.40   1
   4   1  -7 4880.25 2205.53   3
   4  -1  -7 6632.60 2795.77   3
   5   1  -7 14330.3 3801.11   3
  -5   1  -7 14040.3 3310.96   1
   5  -1  -7 14130.8 4031.63   3
   6  -1  -7 1570.70 1765.19   3
  -6   1  -7 1083.21 1390.38   1
   6   1  -7 1283.48 1720.60   3
   7  -1  -7 10803.2 2974.01   3
   7   1  -7 11847.9 2983.67   3
   8  -1  -7 4689.64 2071.78   3
   8   1  -7 4832.75 2021.54   3
   9  -1  -7 49692.8 7402.11   3
   9   1  -7 49026.8 6753.90   3
  10   1  -7 143.358 867.419   3
  10  -1  -7-1115.00 1289.41   3
  11  -1  -7 5442.17 2872.93   3
  11   1  -7 5397.84 2522.07   3
  12   1  -7 4016.38 1681.41   3
  12  -1  -7 9132.56 3436.63   3
  13   1  -7-937.962 1415.77   3
  13  -1  -7-1632.07 1857.01   3
  14   1  -7 2749.39 1715.46   3
  14  -1  -7-134.642 1523.87   3
  15   1  -7 12393.9 3765.69   3
  15  -1  -7 11618.0 3814.96   3
   0  -1  -8-1058.95 1926.50   3
   0  -1  -8 389.661 586.363   1
   0   1  -8-172.623 273.817   1
  -1  -1  -8 33961.0 4066.55   1
   1   1  -8 30343.4 5518.53   3
  -1   1  -8 32302.2 4346.55   1
   1  -1  -8 35261.9 3752.19   1
   1  -1  -8 32702.2 6136.73   3
  -2   1  -8 4115.01 1564.97   1
  -2  -1  -8 5096.58 1632.28   1
   2   1  -8 2426.05 1070.66   3
   2  -1  -8 3502.85 1323.12   3
   3  -1  -8 20345.5 4935.94   3
  -3   1  -8 22021.5 4037.70   1
  -3  -1  -8 23293.1 3931.32   1
   3   1  -8 21232.5 4843.42   3
  -4   1  -8 8718.16 2575.68   1
   4  -1  -8 8472.60 3433.51   3
  -4  -1  -8 7544.52 2173.56   1
   4   1  -8 7888.98 2966.22   3
   5   1  -8 2996.80 2078.16   3
  -5   1  -8 315.379 88.3325   1
   5  -1  -8 1197.39 1642.93   3
   6   1  -8 827.933 1673.02   3
  -6   1  -8 722.076 1008.90   1
   6  -1  -8 1751.20 1974.34   3
   7  -1  -8 49592.7 7888.10   3
   7   1  -8 50568.0 7428.88   3
  -7   1  -8 60057.2 7853.05   1
   8   1  -8-347.532 956.916   3
   8  -1  -8 274.220 364.121   3
   9  -1  -8 13995.0 4191.14   3
   9   1  -8 14418.9 4051.01   3
  -9   1  -8 18050.5 4629.28   1
  10  -1  -8 2311.20 1586.20   3
  10   1  -8 4336.67 2150.88   3
  11  -1  -8 941.890 1430.30   3
  11   1  -8 1885.68 1695.31   3
  12  -1  -8 1967.93 2136.41   3
  12   1  -8 2050.99 1660.77   3
  13  -1  -8 28.4265 1067.31   3
  13   1  -8 368.292 1149.88   3
  14   1  -8-259.055 757.018   3
  14  -1  -8-1515.96 1881.47   3
   0  -1  -9 4810.20 1316.72   3
   0   1  -9 5077.78 1852.82   3
   1   1  -9 9981.46 3390.28   3
  -1  -1  -9 9959.24 3245.53   3
   1  -1  -9 10319.0 3355.71   3
  -1   1  -9 13404.9 3099.38   1
  -2  -1  -9 20304.4 3505.99   1
  -2   1  -9 17870.4 3522.42   1
   2   1  -9 18053.0 4637.42   3
   2  -1  -9 20000.8 5150.65   3
   3  -1  -9-430.213 1077.31   3
   3   1  -9-698.886 1349.39   3
  -3  -1  -9 495.546 395.531   1
  -3   1  -9-295.163 673.419   1
  -4  -1  -9 15215.1 3278.09   1
   4  -1  -9 15205.3 4846.28   3
   4   1  -9 14292.1 4236.84   3
  -4   1  -9 13881.3 3417.60   1
  -5   1  -9 269.525 266.548   1
   5   1  -9 2983.54 2245.97   3
   5  -1  -9 1535.35 2101.53   3
  -5  -1  -9-743.207 779.188   1
   6   1  -9 12594.2 4260.01   3
  -6   1  -9 10529.4 3119.03   1
   6  -1  -9 14611.6 4892.84   3
  -6  -1  -9 10032.8 2942.37   1
  -7   1  -9 839.430 1070.76   1
   7  -1  -9-1376.19 2279.71   3
   7   1  -9-926.729 1585.11   3
  -8   1  -9 1290.08 1821.63   1
   8  -1  -9-759.312 1390.90   3
   8   1  -9-630.061 1243.55   3
  -9   1  -9 8205.25 3013.00   1
   9   1  -9 4190.64 2251.49   3
   9  -1  -9 4774.54 2316.87   3
  10   1  -9 878.528 1544.00   3
 -10   1  -9 2110.54 1512.73   1
  10  -1  -9 1327.25 1606.68   3
  11  -1  -9 6327.75 3167.78   3
  11   1  -9 5549.20 3054.95   3
 -11   1  -9 6694.61 3171.81   1
  12   1  -9 12825.1 4293.41   3
   0   1 -10-2457.05 2525.35   3
   0  -1 -10-1310.23 1996.16   3
   1   1 -10-1659.76 2049.32   3
  -1   1 -10-3632.41 2865.84   3
  -1  -1 -10-2494.26 2861.22   3
   1  -1 -10 166.176 1164.43   3
  -2   1 -10-838.548 2197.87   3
  -2  -1 -10 282.687 1756.40   3
   2   1 -10 1627.81 585.029   3
  -2   1 -10 3044.38 1307.21   1
   2  -1 -10 1668.77 1518.62   3
   3   1 -10 1083.42 1326.88   3
   3  -1 -10 3389.41 2701.77   3
  -3   1 -10 845.132 946.823   1
   4   1 -10 23388.4 5841.15   3
   4  -1 -10 22037.1 5891.39   3
  -4   1 -10 19460.5 4094.14   1
   5  -1 -10 2846.04 2760.61   3
   5   1 -10 2706.72 2620.74   3
   6  -1 -10 3000.78 2299.02   3
  -6   1 -10 4428.25 2088.46   1
  -6  -1 -10 4328.08 2079.77   1
   6   1 -10 2543.05 2070.67   3
  -7   1 -10 753.173 1120.75   1
  -7  -1 -10-928.551 832.317   1
   7   1 -10-1136.28 1477.71   3
   7  -1 -10-1372.42 1913.23   3
  -8   1 -10-2139.09 1863.24   1
  -8  -1 -10 933.370 1230.41   1
   8  -1 -10-619.334 1441.52   3
   8   1 -10-2532.79 2181.64   3
  -9  -1 -10 389.462 1050.18   1
   9   1 -10-750.058 1141.10   3
   0   1 -11-463.964 1173.22   3
   1   1 -11 2200.54 1872.90   3
  -1   1 -11-362.954 2085.64   3
  -2   1 -11 275.115 1627.90   3
   2   1 -11 4271.32 2539.78   3
  -3   1 -11-1652.45 2335.92   3
   3   1 -11 1530.76 1784.67   3
   4   1 -11 6134.42 3228.71   3
  -5   1 -11-327.463 669.235   1
   5   1 -11 4920.59 3208.48   3
  -1  -2   0-25.1198 66.1500   3
   1  -2   0 180.199 213.673   1
   1   2   0 246.097 280.517   2
  -1   2   0 46.9559 164.325   3
   1  -2   0-178.182 187.179   3
   2  -2   0 12145.2 1301.13   1
   2   2   0 12826.2 1211.78   2
  -2   2   0 12041.8 1584.54   3
   2  -2   0 10882.4 1370.54   3
  -2   2   0 13002.8 1305.04   1
  -2  -2   0 12904.8 1192.21   2
  -3   2   0 500.154 508.019   3
   3  -2   0 7.41880 139.627   3
  -3  -2   0 140.290 124.489   2
  -3  -2   0 471.753 258.873   3
  -3   2   0 353.635 231.901   1
  -4  -2   0 17927.2 1497.40   2
  -4  -2   0 18518.4 1660.83   3
   4  -2   0 16871.8 2113.19   3
  -4   2   0 18596.9 2350.63   3
  -5  -2   0 414.729 411.331   3
   5  -2   0 914.904 724.843   3
  -5  -2   0-120.803 229.236   2
  -6  -2   0 334537. 7235.67   2
  -6  -2   0 336746. 9114.90   3
   6  -2   0 323658. 10970.8   3
  -7  -2   0-605.339 498.105   2
   7  -2   0 806.141 873.813   3
   8  -2   0 77134.2 6029.71   3
   9  -2   0-1430.72 1489.01   3
   9   2   0 1176.78 946.402   3
  10  -2   0 241096. 12246.4   3
  10   2   0 214235. 10210.6   3
  11  -2   0-1411.31 1358.51   3
  12  -2   0 23.8256 883.880   3
  13  -2   0-347.768 873.303   3
  14  -2   0 31646.1 5168.53   3
  15  -2   0-446.633 552.313   3
  16  -2   0 38473.7 6182.38   3
  17  -2   0 770.875 1494.19   3
  18  -2   0 4418.76 2557.64   3
  19  -2   0 1864.86 2277.35   3
   0  -2  -1 4.67622 261.956   3
   0   2  -1 300.188 170.306   3
   0  -2   1 448.549 371.034   1
   0   2  -1-327.564 375.629   2
   0  -2   1 59.0790 106.797   2
  -1   2  -1 14728.4 1345.36   2
  -1   2   1 15216.9 1927.43   3
   1  -2   1 15191.4 1682.32   1
  -1  -2   1 14913.5 1439.15   2
   1  -2   1 15568.1 1261.32   3
  -1   2  -1 14624.6 1672.14   1
   1  -2  -1 15457.8 1947.19   3
   1  -2   1 14944.2 1356.99   2
  -1   2  -1 15117.9 1410.95   3
   2  -2  -1 266166. 4654.63   1
  -2   2   1 277285. 8987.47   3
   2  -2   1 259660. 6328.55   3
  -2  -2   1 279790. 6568.86   2
  -2   2  -1 267002. 6967.42   3
   2  -2  -1 252247. 8178.06   3
  -2   2  -1 268040. 5609.27   2
  -2   2  -1 257391. 7385.40   1
  -3   2  -1 18089.4 2112.41   1
   3   2  -1 18251.4 1194.24   3
  -3   2  -1 18901.5 2106.17   3
   3  -2   1 17107.0 1832.45   3
   3  -2  -1 18185.3 2296.15   3
  -3  -2   1 18172.1 1320.02   3
  -3   2   1 18267.9 1211.91   1
  -3   2  -1 18124.8 1471.77   2
   3   2   1 18103.1 1362.91   2
  -3   2   1 18798.6 2464.09   3
  -4   2  -1 2992.70 975.808   3
  -4   2  -1 2679.71 550.314   2
  -4  -2   1 2766.94 627.657   3
   4   2   1 2561.74 506.221   2
   4  -2   1 2371.75 755.391   3
  -4   2   1 2873.50 501.518   1
   4  -2  -1 3062.78 1070.64   3
   4   2  -1 2464.16 517.772   3
  -5  -2  -1 160008. 5946.56   3
   5  -2   1 155003. 6861.29   3
   5  -2  -1 158257. 7763.76   3
   5   2  -1 165413. 5589.73   3
  -5  -2   1 161904. 5660.92   3
  -5   2  -1 178493. 4803.95   2
   6   2  -1 146791. 6022.44   3
   6  -2   1 130728. 6860.80   3
   6  -2  -1 132062. 7436.85   3
  -6  -2   1 131760. 5722.38   3
   7  -2   1 22640.2 3015.75   3
  -7  -2   1 22510.1 2625.54   3
   7   2  -1 23775.7 2602.24   3
   7  -2  -1 23778.8 3314.42   3
  -7  -2  -1 22422.2 1596.54   2
   8  -2   1 230227. 10204.9   3
   8  -2  -1 229012. 10808.2   3
  -8  -2  -1 214031. 4744.84   2
   8   2  -1 222013. 8778.67   3
  -9  -2  -1 5595.96 803.135   2
   9  -2  -1 5661.49 1910.93   3
   9   2  -1 5326.23 1455.23   3
   9  -2   1 5601.80 1666.67   3
  10   2  -1 2156.23 1013.25   3
  10  -2  -1 3195.83 1625.99   3
  10  -2   1 2039.50 1111.97   3
 -10  -2  -1 1822.55 515.803   2
  11  -2   1 38642.9 4923.23   3
  11   2  -1 38059.3 4327.62   3
  11  -2  -1 40214.3 5350.47   3
  12  -2  -1 7194.23 2414.58   3
  12  -2   1 11343.8 2988.66   3
  12   2  -1 8920.77 2370.77   3
  13  -2  -1 2118.91 741.829   3
  13  -2   1 5506.43 2261.44   3
  13   2  -1 5039.83 1894.59   3
  14  -2   1 12041.8 3354.47   3
  14   2  -1 11257.1 2985.19   3
  14  -2  -1 9578.91 2765.08   3
  15  -2   1 6742.86 2710.80   3
  15   2  -1 6434.56 2438.50   3
  15  -2  -1 6266.00 2156.95   3
  16  -2  -1 12829.2 3374.09   3
  16  -2   1 16803.9 4098.10   3
  16   2  -1 15506.0 3783.96   3
  17  -2  -1 302.450 924.740   3
  17  -2   1 3019.07 2123.66   3
  18  -2  -1 19440.3 4645.56   3
  19  -2  -1 6362.38 3054.13   3
   0  -2  -2 163702. 7494.45   3
   0   2  -2 158852. 6249.18   1
   1  -2   2 39058.2 2457.04   2
  -1   2  -2 35607.5 2920.92   1
  -1   2  -2 39396.1 2628.51   3
   1  -2  -2 35721.4 3633.44   3
  -2   2  -2 4170.71 1058.39   1
   2  -2  -2 5398.21 1481.96   3
   2   2  -2 5195.77 843.160   3
  -2   2  -2 5600.75 1094.17   3
   2  -2   2 4423.40 771.463   2
   3  -2  -2 677270. 16589.2   3
   3  -2   2 694629. 9501.18   2
  -3   2  -2 696416. 15596.9   1
   3   2  -2 685497. 10315.3   3
   4  -2  -2 1266.82 653.069   3
  -4  -2   2 1586.38 517.638   3
   4   2  -2 1586.40 548.454   3
   5  -2  -2 256.487 479.190   3
  -5   2   2-179.261 235.089   1
   5   2  -2-25.4474 79.5515   3
  -5   2  -2 90.1453 74.9124   2
   5   2   2 140.153 141.419   2
  -5  -2   2 322.838 441.692   3
   6   2   2 708.526 188.356   2
   6  -2  -2 1111.76 869.723   3
  -6   2  -2 866.030 237.900   2
   6   2  -2 1044.13 501.706   3
  -6  -2   2 1084.53 690.911   3
   7  -2  -2 106893. 7565.09   3
   7   2  -2 106530. 5849.82   3
   7  -2   2 111931. 6937.93   3
  -7   2  -2 109816. 3729.92   2
   8   2  -2 1126.24 799.002   3
   8  -2  -2-839.514 1386.54   3
  -8   2  -2 376.184 168.170   2
   8  -2   2 1080.71 1018.16   3
   9  -2  -2 14489.4 2998.16   3
   9   2  -2 15151.7 2539.55   3
   9  -2   2 16841.5 3130.24   3
  -9   2  -2 14134.5 1364.44   2
 -10   2  -2 20381.8 1570.67   2
  10  -2  -2 20456.1 3738.27   3
  10  -2   2 20676.8 3599.73   3
  10   2  -2 19969.3 3159.49   3
  11   2  -2 80214.8 6704.61   3
  11  -2  -2 75823.7 7346.34   3
  11  -2   2 81505.7 7200.28   3
 -11   2  -2 74976.2 3072.06   2
 -12   2  -2 2151.84 478.308   2
  12   2  -2 1580.72 899.152   3
  12  -2  -2 2069.98 1001.90   3
  13  -2  -2 95520.9 8982.31   3
  13   2  -2 88868.7 7611.85   3
  14  -2  -2 9533.77 3458.69   3
  14   2  -2 4889.69 1897.29   3
  15   2  -2 1458.82 1011.12   3
  15  -2  -2-1726.33 1875.13   3
  16   2  -2 2844.40 1729.23   3
  16  -2  -2-1936.34 2315.04   3
  17  -2  -2 2044.56 1055.55   3
  17   2  -2 4271.60 2324.93   3
  18  -2  -2-995.704 1537.91   3
  18   2  -2 2946.28 1949.65   3
  19  -2  -2 336.560 339.826   3
  19   2  -2 5110.21 2660.02   3
   0  -2  -3-274.667 690.770   3
   0   2  -3 253.129 460.372   1
   1  -2  -3 24361.7 3473.23   3
  -1   2  -3 23200.9 2724.97   1
   2   2  -3 82215.3 4642.21   3
  -2   2  -3 80101.6 5475.27   1
   2  -2  -3 80098.7 6353.20   3
   3  -2  -3 24725.5 3660.38   3
   3   2  -3 26073.0 2721.90   3
  -3   2  -3 26775.0 3269.09   1
  -4   2  -3 5024.72 1113.08   1
   4  -2  -3 4450.28 907.397   3
   4   2  -3 3957.79 859.794   3
   5   2  -3 530040. 12945.0   3
   5  -2  -3 527556. 17208.9   3
   6   2  -3 796.551 660.592   3
   6  -2  -3 360.631 543.670   3
   6   2   3 662.420 293.849   2
   7   2  -3 16629.7 2491.45   3
   7  -2  -3 18344.3 3496.16   3
   7   2   3 16368.1 1169.82   2
   8   2  -3 33378.2 3915.09   3
   8  -2  -3 38062.6 4974.00   3
   9   2  -3 6809.31 1832.95   3
   9  -2  -3 6661.17 1757.15   3
  10  -2  -3-1721.20 1921.38   3
  10   2  -3 479.856 737.467   3
  11  -2  -3 82557.4 8078.59   3
  11   2  -3 83089.8 7021.28   3
  12   2  -3 917.932 684.173   3
  12  -2  -3 708.799 651.595   3
  13   2  -3 3907.60 1277.67   3
  13  -2  -3 6373.92 2503.36   3
  14  -2  -3 2811.47 1957.92   3
  14   2  -3 1108.28 127.664   3
  15  -2  -3 27565.3 5514.19   3
  15   2  -3 24288.2 4508.12   3
  16   2  -3 2310.70 1477.78   3
  16  -2  -3 5898.96 2961.06   3
  17  -2  -3-3254.38 2730.95   3
  17   2  -3 817.287 1197.97   3
  18  -2  -3-1920.19 2199.57   3
  18   2  -3 1822.79 1486.39   3
  19  -2  -3 3349.07 1680.13   3
   0   2  -4 379448. 11567.6   1
   1  -2  -4 9569.45 2380.69   3
  -1   2  -4 10465.2 2089.62   1
   2  -2  -4 1877.92 407.849   1
  -2   2  -4 2220.42 911.212   1
   2   2  -4 1379.75 308.384   3
   2  -2  -4 1690.84 1084.15   3
   3  -2  -4 185804. 11142.2   3
  -3   2  -4 182621. 9544.89   1
   3   2  -4 192148. 9035.15   3
  -4   2  -4 781.244 469.825   1
   4   2  -4 695.134 618.449   3
   4  -2  -4 1543.69 1428.83   3
  -5   2  -4 455.146 414.263   1
   5  -2  -4-867.205 1387.76   3
   5   2  -4-306.604 679.756   3
   6   2  -4 104325. 6906.94   3
   6  -2  -4 108280. 8663.95   3
   7   2  -4 37121.2 4315.40   3
   7  -2  -4 39249.6 5411.82   3
   7   2   4 35967.0 1908.44   2
   8  -2  -4 46913.6 6085.66   3
   8   2   4 41310.8 1757.70   2
   8   2  -4 45774.5 4791.08   3
   9  -2  -4 2764.43 1841.90   3
   9   2  -4 830.688 131.527   3
  10  -2  -4 42825.7 5751.83   3
  10   2  -4 43337.7 5047.77   3
  11  -2  -4 20376.4 4122.50   3
  11   2  -4 22926.1 3821.49   3
  12  -2  -4-352.341 1072.52   3
  12   2  -4 1133.71 1160.41   3
  13  -2  -4 30818.2 5543.72   3
  13   2  -4 31263.0 4857.21   3
  14  -2  -4 13048.9 3739.94   3
  14   2  -4 13558.9 3294.59   3
  15  -2  -4 2483.14 2134.97   3
  15   2  -4-3220.53 2145.04   3
  16   2  -4 19037.8 4148.27   3
  16  -2  -4 22613.1 5343.73   3
  17  -2  -4 3235.51 2443.25   3
  17   2  -4 1108.23 1072.03   3
  18  -2  -4-1809.87 2057.69   3
   0  -2  -5-44.0560 1071.20   3
   0   2  -5 722.271 557.341   1
   1  -2  -5 3299.14 676.896   1
   1  -2  -5 2267.17 702.605   3
  -1   2  -5 2957.20 1188.14   1
  -2   2  -5 211519. 10485.0   1
   2   2  -5 221888. 10836.5   3
   2  -2  -5 219724. 13245.9   3
   2  -2  -5 218246. 5368.37   1
   3   2  -5 2997.89 1012.47   3
   3  -2  -5 2641.90 1186.44   3
  -3   2  -5 3215.06 1058.79   1
   4  -2  -5 419.862 835.650   3
  -4   2  -5-344.915 731.123   1
   4   2  -5 265.477 532.927   3
  -5   2  -5 668.727 75.6404   1
   5   2  -5 1047.76 1018.50   3
   5  -2  -5 1949.70 1657.97   3
   6   2  -5 32973.6 4363.14   3
   6  -2  -5 32380.0 5211.85   3
  -6   2  -5 38988.0 5172.16   1
   7  -2  -5-1030.39 1378.75   3
   7   2  -5 412.622 334.142   3
   8  -2  -5 151803. 11638.9   3
   8   2   5 131167. 3571.42   2
   8   2  -5 152255. 9697.78   3
   9  -2  -5 3534.35 2019.55   3
   9   2  -5 2743.89 1408.45   3
  10  -2  -5 1887.88 1730.78   3
  10   2  -5 721.562 553.050   3
  11  -2  -5 4702.01 2109.81   3
  11   2  -5 1835.03 909.446   3
  12  -2  -5-1265.67 1647.34   3
  12   2  -5 1198.18 999.525   3
  13  -2  -5-884.837 1330.20   3
  13   2  -5 1660.09 1243.24   3
  14   2  -5 3197.12 1904.44   3
  14  -2  -5 1155.57 652.501   3
  15  -2  -5 97.3216 566.343   3
  15   2  -5 2092.96 1863.74   3
  16  -2  -5 5092.07 2383.14   3
  17  -2  -5 1587.61 1817.89   3
   0  -2  -6 161402. 7039.23   1
   0  -2  -6 156011. 11989.4   3
   0   2  -6 152824. 8905.77   1
   1  -2  -6 1106.73 426.440   1
  -1   2  -6 1108.19 798.846   1
  -2   2  -6 17662.3 3149.18   1
   2   2  -6 15705.8 3194.58   3
   2  -2  -6 17889.6 3919.97   3
   2  -2  -6 19275.3 1841.04   1
  -3   2  -6 52298.9 5748.63   1
   3  -2  -6 54088.5 7264.16   3
   3   2  -6 52803.9 5959.29   3
  -4   2  -6-61.2806 751.609   1
   4   2  -6 257.859 398.716   3
   4  -2  -6 135.797 1176.91   3
  -5   2  -6 1283.72 932.372   1
   5   2  -6 692.971 859.664   3
   5  -2  -6 1415.69 1561.83   3
  -6   2  -6 30313.6 4957.79   1
   6   2  -6 27855.4 4401.05   3
   6  -2  -6 26948.6 4863.75   3
   7   2  -6 6307.22 2131.20   3
  -7   2  -6 7312.65 2714.47   1
   7  -2  -6 5850.51 2401.99   3
   8   2  -6 6908.32 2144.14   3
   8  -2  -6 6190.19 2305.08   3
   9  -2  -6 6629.86 2762.47   3
   9   2  -6 8124.40 2598.77   3
  10  -2  -6 54669.3 7801.82   3
  10   2  -6 56339.0 6597.72   3
  11  -2  -6 6558.52 2757.31   3
  11   2  -6 3871.54 1599.86   3
  12  -2  -6-141.849 700.966   3
  12   2  -6-11.7515 503.444   3
  13  -2  -6 10333.7 3330.39   3
  13   2  -6 12389.6 3389.72   3
  14   2  -6 3056.49 1730.21   3
  14  -2  -6 738.464 774.636   3
  15  -2  -6-549.826 1265.48   3
  16  -2  -6 9787.67 3744.29   3
   0   2  -7 275.459 634.195   1
   0  -2  -7-2054.06 2092.88   3
   0  -2  -7-431.607 547.382   1
   1   2  -7 30302.3 5034.88   3
   1  -2  -7 30853.3 5593.07   3
  -1  -2  -7 32831.3 3649.62   1
  -1   2  -7 31850.4 4421.93   1
   1  -2  -7 32007.6 2951.99   1
   2  -2  -7 3872.69 2040.91   3
   2   2  -7 2864.31 1053.35   3
  -2   2  -7 4609.00 1758.92   1
  -3   2  -7 10318.4 2507.57   1
   3  -2  -7 11055.3 3555.25   3
   3   2  -7 11422.5 3018.72   3
   4   2  -7 9270.31 2877.66   3
   4  -2  -7 11668.7 3967.84   3
  -4   2  -7 8631.72 2490.87   1
  -5   2  -7 98273.2 9067.81   1
   5   2  -7 95358.9 9040.45   3
   5  -2  -7 101247. 10654.3   3
  -6   2  -7 1291.45 966.784   1
   6  -2  -7 2963.36 2022.76   3
   6   2  -7 671.673 339.747   3
   7   2  -7-497.143 820.519   3
  -7   2  -7 1196.75 1386.38   1
   7  -2  -7-2483.07 2290.33   3
   8  -2  -7 3302.29 1328.96   3
  -8   2  -7 8210.32 3318.28   1
   8   2  -7 4197.95 1911.02   3
   9   2  -7 4224.22 1951.76   3
  -9   2  -7 6217.31 3157.24   1
   9  -2  -7 4549.93 2396.07   3
  10  -2  -7 2409.64 1977.64   3
  10   2  -7 3382.29 1881.61   3
 -10   2  -7 5646.07 3188.96   1
  11  -2  -7 26535.5 5762.19   3
  11   2  -7 22652.5 4689.23   3
  12  -2  -7 3082.59 2360.61   3
  12   2  -7-888.185 1448.61   3
  13  -2  -7 4259.36 1843.69   3
  14  -2  -7-268.191 1163.03   3
  15  -2  -7-1899.41 2030.04   3
   0  -2  -8 7712.96 2247.08   3
  -1   2  -8 3402.73 1432.99   1
   1   2  -8 1380.46 549.426   3
   1  -2  -8 786.200 1477.00   3
  -1  -2  -8 1311.35 1267.53   3
  -1  -2  -8 2615.19 1126.39   1
   2   2  -8-379.623 1366.73   3
  -2   2  -8 28.8281 217.507   1
   2  -2  -8-184.167 1053.08   3
  -2  -2  -8 349.425 336.376   1
   3   2  -8 64123.3 8268.17   3
   3  -2  -8 68174.5 9402.50   3
  -3   2  -8 64355.7 7038.81   1
  -4   2  -8 450.262 700.710   1
   4   2  -8 1566.63 1733.62   3
   4  -2  -8 2108.32 1840.92   3
  -5   2  -8-467.366 987.526   1
   5   2  -8 323.296 983.213   3
   5  -2  -8 2274.05 2283.44   3
  -6   2  -8 4875.36 2273.26   1
   6  -2  -8 6103.56 2805.95   3
   6   2  -8 4294.66 2258.53   3
  -7   2  -8 17291.6 4267.17   1
   7   2  -8 13910.6 3779.53   3
   7  -2  -8 12270.4 3797.87   3
  -8   2  -8 163.765 1218.09   1
   8  -2  -8-1365.25 1656.87   3
   8   2  -8 231.056 61.4261   3
   9   2  -8 1264.02 1236.98   3
   9  -2  -8 673.676 319.020   3
 -10   2  -8 646.491 1186.23   1
  10   2  -8 1161.49 1301.49   3
  10  -2  -8 200.442 972.399   3
  11  -2  -8 5789.79 2997.48   3
 -11   2  -8 5884.30 2823.57   1
  12  -2  -8 2876.66 2531.52   3
 -12   2  -8 1995.63 2396.17   1
  13  -2  -8 26056.8 5829.53   3
   0   2  -9-1086.48 2171.64   3
   0  -2  -9-1740.58 2292.72   3
   1   2  -9 1501.00 641.821   3
   1  -2  -9 938.333 239.025   3
  -1  -2  -9 2038.61 750.491   3
  -2  -2  -9 10444.4 3490.60   3
   2   2  -9 13422.1 3589.06   3
   2  -2  -9 13773.5 4330.47   3
  -2   2  -9 11280.8 2898.23   1
   3   2  -9 2922.09 1959.86   3
   3  -2  -9 5375.18 2662.26   3
  -3   2  -9 1673.75 751.127   1
  -4  -2  -9 3193.27 1515.57   1
   4   2  -9 3793.16 2383.84   3
   4  -2  -9 5067.00 2894.69   3
  -4   2  -9 2129.44 1157.82   1
  -5   2  -9 10266.2 3094.01   1
   5  -2  -9 13715.2 4946.64   3
   5   2  -9 13975.7 4113.56   3
  -5  -2  -9 13177.2 3165.22   1
  -6   2  -9 5534.11 2280.59   1
   6  -2  -9 5271.10 2901.34   3
   6   2  -9 5047.60 2156.18   3
   7  -2  -9 326.117 1559.05   3
  -7   2  -9 3125.89 1926.62   1
   7   2  -9 2606.40 1413.80   3
  -8   2  -9 12751.8 3680.12   1
   8  -2  -9 11612.2 3786.02   3
   8   2  -9 9864.87 3386.31   3
  -9   2  -9 90.7437 1041.11   1
   9  -2  -9-919.423 825.911   3
  10  -2  -9 979.320 1249.85   3
 -10   2  -9 2399.66 2096.74   1
   0  -2 -10 14704.6 4422.12   3
   0   2 -10 11311.0 3836.55   3
  -1   2 -10-855.813 1819.99   3
   1  -2 -10-362.053 1032.62   3
  -1  -2 -10-2174.15 2727.49   3
   1   2 -10-537.435 1927.50   3
  -2  -2 -10-1193.25 2609.72   3
   2   2 -10 2575.27 1763.43   3
   2  -2 -10 3876.73 2744.34   3
  -3   2 -10-901.852 911.332   1
   3   2 -10 1195.72 1460.31   3
   3  -2 -10 900.262 1945.90   3
  -3  -2 -10-2917.84 2892.79   3
  -4   2 -10 16.5679 1084.43   1
   4   2 -10 2663.79 2367.40   3
   4  -2 -10 3034.61 2627.81   3
  -5   2 -10-409.298 924.623   1
   5   2 -10 1819.44 2126.31   3
   5  -2 -10 3939.89 3392.45   3
   6  -2 -10 1771.34 441.200   3
  -6   2 -10 4476.85 2112.13   1
  -7   2 -10 1693.58 1440.06   1
   7  -2 -10-2540.92 2644.93   3
   0   2 -11-1313.95 1726.53   3
  -1   2 -11-267.838 1524.38   3
   1   2 -11 1257.12 1545.19   3
  -2   2 -11 1711.96 531.972   3
   2   2 -11 3459.34 2615.65   3
  -3   2 -11-2517.85 2275.63   3
   0  -3   0 451.756 373.704   3
   0   3   0 309.680 230.013   2
   0   3   0 271.783 152.619   3
  -1   3   0 137.107 87.7766   2
  -1  -3   0-67.4789 178.475   3
   1  -3   0-91.1789 70.3524   1
   1  -3   0-192.119 418.130   3
  -1   3   0 108.863 326.902   3
   1   3   0 58.4414 98.5066   2
  -2  -3   0 30749.9 1915.27   3
   2  -3   0 34444.1 2568.20   1
  -2   3   0 34272.3 3033.97   3
   2  -3   0 29378.0 2558.88   3
   2   3   0 31437.0 2341.33   2
   3   3   0-10.7209 141.319   2
   3  -3   0 26.9457 153.793   3
  -3   3   0-215.232 300.082   3
  -4  -3   0 401285. 7224.80   3
   4  -3   0 387017. 11135.0   3
  -4   3   0 399093. 9693.05   1
  -5  -3   0-258.625 456.963   3
  -5   3   0-55.2338 277.137   1
   5  -3   0 111.565 274.851   3
  -6   3   0 173260. 7789.71   1
  -6  -3   0 175025. 6131.25   3
   6  -3   0 186762. 8888.67   3
   7  -3   0 987.580 955.123   3
  -7  -3   0 358.863 409.447   3
   8  -3   0 2537.54 1423.39   3
   9  -3   0-2194.41 1894.89   3
  10  -3   0 101464. 8357.31   3
  11  -3   0-1306.27 1435.06   3
  12  -3   0 16886.2 3444.02   3
  13  -3   0-532.752 1252.89   3
  14  -3   0 36753.6 5711.42   3
  15  -3   0 318.352 166.982   3
  16  -3   0 7252.75 2780.44   3
  17  -3   0 1775.57 1695.98   3
  18  -3   0 2166.01 1939.94   3
  19  -3   0 2120.65 1991.87   3
   0   3  -1 3159.37 794.105   2
   0   3  -1 3224.44 580.521   3
   0  -3  -1 3026.96 943.153   3
   0  -3   1 3470.74 571.947   3
   1  -3   1 124136. 4065.58   3
  -1   3   1 129261. 6289.53   3
   1  -3  -1 127846. 6174.66   3
  -1   3  -1 128189. 4633.03   3
  -1  -3  -1 125762. 5875.59   3
   1   3  -1 124045. 5299.67   2
  -1   3  -1 132898. 4864.82   2
   2  -3  -1 166853. 4788.73   1
  -2   3   1 171026. 7777.50   3
   2  -3   1 157136. 5364.22   3
   2  -3  -1 155947. 7060.19   3
  -2   3  -1 158585. 6026.67   3
  -2   3  -1 163992. 6665.41   1
  -2   3  -1 164421. 5429.77   2
   2   3   1 157996. 4997.47   2
  -3   3  -1 3870.36 954.014   3
   3  -3  -1 4094.29 1339.41   3
  -3   3  -1 4037.16 846.119   2
  -3   3  -1 4404.61 1301.96   1
   3   3   1 3546.66 761.072   2
   3  -3   1 3534.81 850.359   3
  -4   3  -1 156600. 7174.59   1
  -4  -3   1 141595. 3561.89   3
   4  -3  -1 154448. 7658.20   3
   4  -3   1 156404. 6823.20   3
   4   3   1 155991. 5083.32   2
  -4   3  -1 163359. 5444.49   2
  -5   3  -1 26652.6 3044.99   1
   5  -3  -1 26459.0 3331.29   3
  -5  -3   1 27328.2 2000.27   3
   5  -3   1 28274.5 3081.96   3
   5   3   1 29939.9 2206.99   2
  -5   3   1 27509.1 2285.77   1
  -5   3  -1 29318.1 2260.13   2
  -6   3   1 44703.1 3072.84   1
  -6  -3   1 42016.5 3049.78   3
   6  -3  -1 45336.8 4524.37   3
  -6   3  -1 44392.1 4291.19   1
   6  -3   1 44411.5 4235.06   3
  -6   3  -1 49131.5 3055.97   2
  -7   3   1 5810.71 931.798   1
   7  -3  -1 6045.50 1736.74   3
   7  -3   1 6224.55 1655.08   3
  -7  -3   1 5791.55 1282.15   3
  -7   3  -1 6868.52 1192.14   2
  -8   3  -1 4751.84 967.053   2
   8  -3  -1 4905.46 1729.61   3
   8  -3   1 5307.80 1396.29   3
   9  -3  -1 63194.1 6218.95   3
   9  -3   1 59263.4 5639.47   3
   9   3  -1 60248.8 4626.24   3
  10  -3  -1 6681.29 2241.74   3
  10  -3   1 5613.81 1784.45   3
  10   3  -1 6144.01 1726.25   3
  11  -3   1 3069.18 1504.50   3
  11  -3  -1 3431.43 1826.79   3
 -12   3  -1 43026.0 3269.73   2
  12  -3  -1 42883.4 5850.74   3
  12  -3   1 42427.6 5473.26   3
  13  -3  -1-732.005 1605.31   3
 -13   3  -1 2320.69 809.957   2
  13  -3   1 3294.27 1614.13   3
  14  -3  -1 20777.3 4187.13   3
  14  -3   1 19766.5 4197.03   3
  15  -3   1 20574.0 4548.83   3
  15  -3  -1 17550.9 4196.53   3
  16  -3  -1-1033.74 1255.35   3
  16  -3   1 621.576 1207.90   3
  17  -3  -1 170.348 651.194   3
  17  -3   1 2517.27 2262.68   3
  18  -3  -1 2146.23 1475.24   3
  18  -3   1 4417.66 2645.95   3
   0   3  -2-207.405 362.457   3
   0  -3  -2-463.904 679.742   3
  -1  -3  -2 177043. 8495.94   3
   1  -3  -2 184027. 8919.56   3
  -1   3  -2 186968. 6018.33   3
   1   3  -2 188184. 4182.79   3
  -2   3  -2 581.424 619.994   3
  -2   3  -2 1150.97 1011.99   1
   2  -3  -2 296.789 520.160   3
   3  -3  -2 98434.1 6659.75   3
  -3   3  -2 105244. 5576.24   3
  -3   3  -2 102367. 4595.02   2
  -3   3  -2 99172.4 5945.60   1
  -4   3  -2 50283.1 4625.64   1
   4   3  -2 48904.7 2218.83   3
   4  -3  -2 54827.9 5034.51   3
  -4   3  -2 55306.6 3232.68   2
   4   3   2 53199.0 2863.65   2
  -5   3  -2 3461.59 736.227   2
  -5   3  -2 2860.61 921.888   1
  -5  -3   2 3045.83 708.910   3
   5  -3  -2 4802.73 1748.31   3
   5  -3   2 5633.89 1578.73   3
   5   3   2 3730.59 767.539   2
   5   3  -2 3238.74 597.304   3
  -6   3  -2 6804.13 1765.33   1
   6   3  -2 7925.31 1193.13   3
   6  -3  -2 9947.28 2526.79   3
  -6  -3   2 7674.32 1421.93   3
   6  -3   2 9522.63 2130.17   3
  -6   3   2 8590.84 974.384   1
   6   3   2 7689.05 1119.02   2
  -6   3  -2 7780.87 1178.03   2
   7  -3   2 234408. 10188.0   3
  -7   3   2 240621. 6083.66   1
  -7  -3   2 222551. 8293.51   3
  -7   3  -2 218297. 11727.6   1
   7  -3  -2 234556. 11791.9   3
   7   3  -2 235208. 7994.07   3
  -7   3  -2 240403. 6726.03   2
   8  -3   2 1108.89 1231.54   3
   8  -3  -2-1196.40 1305.93   3
  -8   3  -2-134.104 63.4590   2
   8   3  -2-244.686 450.166   3
  -8   3   2-728.801 703.806   1
   9   3  -2 88776.2 5744.68   3
   9  -3   2 91893.6 7132.65   3
   9  -3  -2 92565.6 7993.46   3
  -9   3  -2 91937.4 4214.84   2
  10  -3  -2 21850.4 4014.35   3
  10   3  -2 21137.8 2914.29   3
  10  -3   2 26447.2 4175.88   3
 -10   3  -2 21154.1 2065.48   2
  11  -3  -2 30262.3 4918.01   3
  11   3  -2 31284.0 3890.64   3
  11  -3   2 30586.1 4656.34   3
 -11   3  -2 30327.7 2449.95   2
 -12   3  -2 342.780 208.703   2
  12  -3  -2 1518.79 1296.80   3
  12   3  -2 394.078 728.239   3
  12  -3   2 1960.33 1450.88   3
  13  -3  -2 14393.9 3943.06   3
  13   3  -2 12700.5 2986.52   3
  13  -3   2 15538.6 3877.31   3
  14  -3  -2 5903.33 2911.11   3
  14   3  -2 3397.33 1616.57   3
  15  -3  -2-3053.87 2474.83   3
  15   3  -2 1061.25 1158.60   3
  16  -3  -2-823.095 1877.76   3
  16   3  -2 1387.52 1361.16   3
  17  -3  -2 27718.2 5693.50   3
  18  -3  -2-3447.81 2366.53   3
   0  -3  -3 7322.92 1928.79   3
   1  -3  -3 285749. 12865.3   3
  -1  -3  -3 268862. 12380.4   3
  -1   3  -3 314119. 8825.67   3
  -1   3  -3 278307. 10582.9   1
   2  -3  -3 45792.2 5142.73   3
   2   3  -3 47506.3 3189.73   3
  -2   3  -3 42162.5 4324.80   1
  -3   3  -3 3341.96 1258.08   1
   3   3  -3 3643.57 855.968   3
   3  -3  -3 3913.49 1634.14   3
   4   3  -3 253.742 278.028   3
  -4   3  -3-129.860 585.399   1
   4  -3  -3-180.547 889.005   3
   5   3   3 16271.2 1749.92   2
  -5   3  -3 17539.4 2999.05   1
   5  -3  -3 16755.4 3150.30   3
   5   3  -3 16167.3 1934.93   3
   6  -3  -3 3489.42 1622.29   3
  -6   3  -3 2133.63 681.481   1
   6   3  -3 2780.23 824.819   3
   6   3   3 2690.21 655.299   2
  -7  -3   3 20189.0 2815.35   3
  -7   3  -3 24334.6 4079.70   1
   7  -3  -3 25222.9 4296.67   3
   7   3  -3 23068.0 2646.34   3
   7   3   3 21993.5 1832.87   2
   8   3  -3 3689.39 1195.69   3
   8  -3  -3 5811.47 2273.05   3
  -9   3   3 87370.0 3186.26   1
   9  -3  -3 91807.5 8369.11   3
   9   3  -3 94994.0 6231.47   3
  10  -3  -3-1306.23 1720.26   3
  10   3  -3-681.228 845.825   3
 -10   3   3-276.735 426.516   1
  11  -3  -3 32480.6 5247.25   3
  11   3  -3 34914.4 4385.84   3
  12  -3  -3 5357.59 2146.17   3
  12   3  -3 5233.57 1704.13   3
  13  -3  -3 1392.69 1685.39   3
  13   3  -3 300.732 662.435   3
  14  -3  -3 2236.26 1709.81   3
  14   3  -3 827.987 800.217   3
  15   3  -3 23313.3 4396.93   3
  15  -3  -3 31095.2 6059.21   3
  16  -3  -3 3785.60 2612.72   3
  17  -3  -3-1495.67 2486.47   3
  18  -3  -3-3208.66 2721.59   3
   0  -3  -4-1276.43 1497.11   3
   1  -3  -4 59851.2 6576.35   3
  -1   3  -4 59144.2 5355.85   1
   2   3  -4 16092.0 2278.05   3
   2  -3  -4 16105.0 3489.38   3
  -2   3  -4 17418.4 3019.52   1
  -3   3  -4 11762.3 2498.45   1
   3  -3  -4 15045.3 3365.28   3
   3   3  -4 13129.8 2131.00   3
  -4   3  -4 123027. 8607.30   1
   4  -3  -4 122071. 9639.56   3
   4   3  -4 128360. 6643.19   3
  -5   3  -4 3168.66 1192.23   1
   5  -3  -4 3744.72 1403.65   3
   5   3  -4 4050.34 1163.83   3
  -6   3  -4 44850.3 5607.35   1
   6  -3  -4 43277.2 5609.92   3
   6   3  -4 42301.3 3961.22   3
   7  -3  -4 57004.8 6823.10   3
  -7   3  -4 60978.9 6941.93   1
   7   3  -4 55489.4 4666.41   3
   7   3   4 51955.5 2937.08   2
   8  -3  -4 1416.61 1399.13   3
   8   3   4 638.999 294.179   2
   8   3  -4 704.164 535.372   3
  -8   3  -4 915.462 128.003   1
   9   3  -4 14932.5 2658.24   3
   9  -3  -4 16542.6 3984.05   3
  10  -3  -4 15324.1 3625.86   3
  10   3  -4 20007.7 3290.03   3
  11  -3  -4-1761.32 1891.02   3
  11   3  -4 2541.24 1485.80   3
  12  -3  -4 4630.69 1880.54   3
  12   3  -4 5707.35 1831.74   3
  13  -3  -4-134.306 927.145   3
  13   3  -4-263.216 1093.32   3
  14  -3  -4 10892.9 3634.72   3
  15  -3  -4 2162.66 2043.71   3
  16  -3  -4 2160.66 1991.14   3
  17  -3  -4 8919.18 3880.94   3
   0  -3  -5-918.855 1827.24   3
  -1  -3  -5-671.715 1293.72   3
  -1   3  -5 715.630 993.043   1
   1  -3  -5-2113.02 1982.04   3
   2  -3  -5 124253. 3457.95   1
   2   3  -5 127864. 7941.12   3
   2  -3  -5 134028. 10801.1   3
  -2   3  -5 126022. 8432.85   1
   3   3  -5 15792.5 2709.07   3
   3  -3  -5 15910.7 3756.31   3
  -3   3  -5 15091.5 3108.61   1
  -4   3  -5 62998.9 6362.27   1
   4  -3  -5 61039.1 7438.08   3
   4   3  -5 61633.8 5411.46   3
  -5   3  -5 2318.02 1125.39   1
   5  -3  -5-168.157 1569.89   3
   5   3  -5 1780.66 683.978   3
  -6   3  -5 37497.9 5261.54   1
   6  -3  -5 31499.5 5311.53   3
   6   3  -5 31937.4 3993.10   3
   7   3  -5 4046.00 1419.72   3
  -7   3  -5 3664.29 1727.42   1
   7  -3  -5 3380.86 1521.14   3
   8  -3  -5 1338.63 955.926   3
   8   3  -5 1069.31 865.134   3
  -8   3  -5 925.835 1350.92   1
   8   3   5 436.111 306.830   2
   9  -3  -5 3587.10 1943.82   3
   9   3  -5 2599.32 1032.46   3
  -9   3  -5 5964.89 2695.75   1
  10  -3  -5 834.195 1294.04   3
  10   3  -5-84.6633 275.112   3
 -10   3  -5 1704.98 2385.06   1
  11  -3  -5 4416.56 2342.69   3
  11   3  -5 5902.07 1966.50   3
  12  -3  -5 47362.5 7166.74   3
  12   3  -5 49538.3 5853.78   3
  13  -3  -5-1908.53 2147.70   3
  14  -3  -5 11983.7 3717.50   3
  15  -3  -5 620.733 857.409   3
  16  -3  -5 2083.10 2013.26   3
   0  -3  -6-559.225 1442.11   3
  -1   3  -6 6797.00 2077.98   1
   1  -3  -6 7079.84 1153.92   1
   1  -3  -6 4415.47 1614.65   3
  -1  -3  -6 4390.73 1587.64   3
   2  -3  -6 22515.2 4674.41   3
  -2   3  -6 23256.2 3928.24   1
   2   3  -6 22056.4 3589.87   3
   3   3  -6 13410.4 2890.07   3
   3  -3  -6 13991.8 3970.42   3
  -3   3  -6 12436.2 2918.76   1
  -4   3  -6 101821. 8519.13   1
   4   3  -6 105167. 8200.58   3
   4  -3  -6 107491. 10501.9   3
  -5   3  -6 3335.37 1353.82   1
   5   3  -6 4367.66 1674.33   3
   5  -3  -6 6558.16 3084.10   3
  -6   3  -6 40973.1 5944.70   1
   6   3  -6 40706.6 5042.35   3
   6  -3  -6 38443.2 6249.54   3
  -7   3  -6 22004.5 4531.04   1
   7  -3  -6 20154.9 4638.87   3
   7   3  -6 20395.2 3542.14   3
   8   3  -6 563.181 659.182   3
  -8   3  -6 1460.87 1011.18   1
   8  -3  -6-185.195 1063.17   3
   9  -3  -6 8108.86 3224.60   3
   9   3  -6 6639.08 2215.33   3
  -9   3  -6 10371.6 3692.61   1
 -10   3  -6 21816.8 5544.75   1
  10   3  -6 14648.6 3038.53   3
  10  -3  -6 17443.5 4654.84   3
 -11   3  -6 5940.67 3872.02   1
  11  -3  -6 3404.14 2331.41   3
  12  -3  -6-538.779 1834.92   3
 -12   3  -6 8858.59 4563.37   1
  13  -3  -6-307.218 1487.14   3
 -13   3  -6 11894.7 4929.27   1
  14  -3  -6 5175.64 2419.64   3
 -14   3  -6 19497.4 5829.02   1
 -15   3  -6 8837.83 4403.34   1
  15  -3  -6 1549.57 1601.99   3
   0  -3  -7 12147.6 3614.26   3
   1   3  -7 33421.2 5115.07   3
  -1  -3  -7 33245.9 5985.66   3
   1  -3  -7 34953.6 6445.61   3
  -1   3  -7 36287.3 5090.51   1
  -2   3  -7 1629.74 1105.98   1
   2   3  -7 1314.87 519.557   3
   2  -3  -7 589.044 479.646   3
   3   3  -7-231.284 662.548   3
  -3   3  -7-198.237 782.488   1
   3  -3  -7 1297.12 1629.76   3
   4  -3  -7 3058.53 2272.55   3
  -4   3  -7 2480.48 1399.92   1
   4   3  -7 3360.73 1771.77   3
  -5   3  -7 5558.49 2194.52   1
   5   3  -7 8245.85 2757.47   3
   5  -3  -7 9654.69 3645.05   3
   6   3  -7-262.264 631.806   3
  -6   3  -7-78.6080 957.472   1
   6  -3  -7-2348.26 2139.48   3
  -7   3  -7 7656.96 2898.86   1
   7  -3  -7 5088.92 2177.11   3
   7   3  -7 6099.10 2115.73   3
   8   3  -7 2923.34 1537.51   3
   8  -3  -7 803.888 597.444   3
  -8   3  -7 2150.20 1381.92   1
  -9   3  -7 35537.4 6597.68   1
   9  -3  -7 27060.0 5855.89   3
  10  -3  -7 825.088 859.305   3
 -10   3  -7 842.819 1681.08   1
  11  -3  -7 3619.91 2710.24   3
 -11   3  -7 4597.57 3397.40   1
  12  -3  -7 5468.76 2934.39   3
 -12   3  -7 7190.24 3734.29   1
 -13   3  -7 3805.94 2904.16   1
  13  -3  -7-2164.53 2345.90   3
  14  -3  -7-1803.30 1825.26   3
   0  -3  -8-1940.51 2309.54   3
   1   3  -8 15299.1 3587.85   3
  -1  -3  -8 13758.1 3510.57   3
   1  -3  -8 15938.4 4483.50   3
  -2   3  -8 2372.81 1402.00   1
  -2  -3  -8 714.582 908.145   3
   2   3  -8 2040.33 690.195   3
   2  -3  -8 1891.60 1480.02   3
   3  -3  -8 15219.1 4773.72   3
   3   3  -8 12825.0 3590.37   3
  -3   3  -8 11517.6 3040.90   1
  -4   3  -8 4000.41 1824.69   1
   4   3  -8 4361.67 2276.35   3
   4  -3  -8 5303.25 3004.93   3
   5   3  -8 1482.60 1484.02   3
   5  -3  -8 3879.77 2834.58   3
  -5   3  -8-1426.46 1562.26   1
  -6   3  -8-381.540 1111.47   1
   6  -3  -8-2337.15 2450.92   3
   6   3  -8-929.556 1336.33   3
  -7   3  -8 28584.2 5645.55   1
   7  -3  -8 28686.4 6099.91   3
  -8   3  -8 392.529 723.561   1
   8  -3  -8-935.772 1286.49   3
  -9   3  -8 8896.43 3466.32   1
   9  -3  -8 7156.27 3036.80   3
  10  -3  -8 1622.32 1478.28   3
 -10   3  -8 3007.47 2380.32   1
  11  -3  -8 1419.11 1910.33   3
 -11   3  -8 598.526 1192.80   1
  12  -3  -8 3406.36 2647.25   3
   0   3  -9 2372.88 1142.88   3
   0  -3  -9 1852.91 1132.69   3
  -1  -3  -9 3289.68 1612.14   3
   1   3  -9 5639.69 2098.50   3
   1  -3  -9 6173.63 2924.87   3
  -2  -3  -9 8023.11 3070.41   3
   2   3  -9 9747.73 3349.76   3
   2  -3  -9 12747.8 4794.53   3
  -3   3  -9-383.644 841.125   1
  -3  -3  -9-1743.89 2181.62   3
   3   3  -9-743.669 816.564   3
   3  -3  -9 1678.77 1985.76   3
  -4   3  -9 6131.04 2417.75   1
   4  -3  -9 9054.22 4011.69   3
  -5   3  -9-988.257 1412.06   1
   5  -3  -9 2280.74 2549.15   3
   6  -3  -9 426.490 1655.77   3
  -6   3  -9 3217.76 1893.62   1
  -7   3  -9 378.159 580.552   1
   7  -3  -9 230.342 1516.02   3
  -8   3  -9-611.809 1299.47   1
   8  -3  -9-616.269 1046.67   3
  -9   3  -9 3522.70 1975.84   1
   9  -3  -9 3404.16 2423.80   3
   0  -3 -10-1254.62 2251.33   3
  -1   3 -10-1882.24 2064.88   3
  -1  -3 -10-2214.65 2546.79   3
   1  -3 -10 775.278 1191.29   3
  -2   3 -10-1017.19 1985.98   3
  -2  -3 -10-1911.36 2615.40   3
   2  -3 -10 2327.53 2334.67   3
  -3  -3 -10-2703.51 2868.86   3
   3  -3 -10 2221.02 2609.60   3
  -4   3 -10 9896.04 3268.32   1
  -4  -3 -10 9163.31 3769.91   3
   4  -3 -10 13639.0 5088.95   3
  -5   3 -10 229.672 845.467   1
  -6   3 -10 1018.58 108.158   1
   0  -4   0 825576. 12466.8   3
   0   4   0 867899. 14536.1   2
   1  -4   0-43.0183 227.950   3
   1   4   0 367.457 466.498   2
  -1  -4   0 710.637 530.369   3
  -1   4   0 562.766 700.151   2
  -1   4   0 213.873 279.018   3
   2   4   0 1183.09 524.921   2
   2  -4   0 1612.43 645.840   3
  -2   4   0 2489.45 704.735   2
  -2   4   0 1863.36 870.207   3
  -2  -4   0 1322.15 363.646   3
   3   4   0-326.109 589.229   2
   3  -4   0 6.46681 128.417   3
  -3   4   0-511.545 583.377   2
  -3  -4   0 275.212 308.780   3
   4  -4   0 3341.99 1202.35   3
  -4  -4   0 2076.03 488.175   3
   5  -4   0 841.959 917.765   3
  -5  -4   0-38.5894 198.463   3
  -5   4   0 518.301 554.183   1
  -6  -4   0 104629. 4522.43   3
   6  -4   0 111079. 7249.35   3
  -6   4   0 113240. 6203.05   1
  -7   4   0 1521.47 1239.75   1
  -7  -4   0 158.874 252.219   3
   7  -4   0 1280.22 1328.96   3
  -8   4   0 24565.3 3238.78   1
   8  -4   0 27287.1 4011.49   3
  -9   4   0-761.539 801.665   1
   9  -4   0-622.233 1052.79   3
 -10   4   0 77362.1 6624.39   1
  10  -4   0 88437.5 8096.84   3
 -11   4   0-1295.52 1425.69   1
  11  -4   0-1926.05 1542.27   3
 -12   4   0 593.639 511.799   1
  12  -4   0-1137.23 1431.96   3
 -13   4   0 1003.29 1417.58   1
  13  -4   0-694.092 982.664   3
  14  -4   0 10481.6 3170.12   3
  15  -4   0-56.4229 771.136   3
  16  -4   0 14357.5 3983.56   3
  17  -4   0 2274.97 2039.30   3
  18  -4   0 1178.33 1646.70   3
   0   4  -1-930.636 753.683   2
   0  -4   1 111.615 161.132   3
   0   4   1-946.070 658.620   2
   0   4  -1 92.9938 134.287   3
   0  -4  -1-436.331 632.372   3
   1   4  -1 1650.29 91.1059   2
  -1   4  -1 2397.43 638.398   2
  -1  -4  -1 2943.54 1050.87   3
  -1   4  -1 2802.43 786.588   3
   1  -4   1 2523.82 637.452   3
   1   4   1 2337.68 706.502   2
   1  -4  -1 2797.32 969.950   3
  -2  -4  -1 81531.2 5124.42   3
  -2   4  -1 85254.9 4955.16   3
   2  -4  -1 83345.4 5557.24   3
   2  -4   1 80791.4 4308.41   3
  -2   4  -1 86031.8 4662.26   2
   2   4   1 85847.8 4431.15   2
   2  -4  -1 86840.1 4237.20   1
   3  -4  -1 5670.57 1056.29   1
   3  -4   1 4246.63 990.434   3
   3  -4  -1 4999.26 1522.47   3
  -3  -4  -1 3930.35 964.290   3
  -3   4  -1 5184.50 1174.86   2
   3   4   1 5078.00 1090.60   2
   4  -4  -1 656.060 395.043   3
   4   4   1 745.499 359.768   2
  -4   4  -1 918.056 485.331   2
   4  -4   1 528.287 83.1143   3
   5  -4  -1 46760.0 4691.59   3
   5  -4   1 46010.0 4170.51   3
   5   4   1 44655.1 3263.58   2
  -5   4  -1 44151.0 4407.08   1
  -5   4  -1 48091.2 3559.41   2
  -6   4  -1 39998.5 4202.13   1
  -6  -4   1 38182.2 2363.11   3
   6  -4  -1 41183.4 4609.05   3
   6  -4   1 41901.4 4299.72   3
  -6   4   1 48349.3 3436.16   1
  -6   4  -1 44145.6 3351.64   2
   7  -4   1 8458.49 1975.95   3
  -7  -4   1 7181.42 1218.39   3
   7  -4  -1 8355.58 2198.10   3
  -7   4  -1 7469.79 1918.96   1
  -7   4   1 10278.9 1822.62   1
  -7   4  -1 8721.84 1555.71   2
  -8   4  -1 71632.8 6219.47   1
  -8  -4   1 71136.6 4478.11   3
   8  -4  -1 79278.7 7005.66   3
   8  -4   1 79317.5 6435.68   3
  -8   4  -1 81833.8 4647.03   2
  -8   4   1 81060.6 5027.39   1
   9  -4  -1 2260.33 1466.08   3
  -9   4  -1 651.521 859.529   1
  -9   4  -1 2310.07 839.877   2
   9  -4   1 1380.37 866.567   3
  -9   4   1 2793.18 1097.51   1
 -10   4  -1 310.685 705.779   1
  10  -4  -1 2956.88 1792.74   3
 -10   4  -1 1362.87 692.868   2
  10  -4   1 980.913 701.216   3
 -10   4   1 1391.50 721.278   1
 -11   4   1 13615.3 2541.27   1
 -11   4  -1 14522.9 3202.90   1
  11  -4  -1 14557.7 3620.83   3
  11  -4   1 12476.2 2930.61   3
 -11   4  -1 13157.4 1966.00   2
 -12   4  -1 4232.74 2168.48   1
  12  -4  -1 4578.06 1357.66   3
 -12   4  -1 2937.93 931.312   2
  12  -4   1 4805.22 2089.46   3
 -12   4   1 3399.10 1190.50   1
 -13   4   1 1679.98 500.175   1
 -13   4  -1 5784.23 2797.28   1
  13  -4  -1-744.788 1471.41   3
 -13   4  -1 1664.42 774.213   2
  13  -4   1 3576.15 1982.73   3
  14  -4  -1 3468.56 1271.62   3
  14  -4   1 5871.65 2568.15   3
  15  -4  -1 677.416 731.254   3
  15  -4   1 3585.88 2110.96   3
  16  -4  -1 4433.79 2183.69   3
  16  -4   1 8170.01 3101.92   3
  17  -4  -1-94.2703 366.897   3
  17  -4   1 1740.00 1878.93   3
  18  -4  -1 7778.83 2973.33   3
  18  -4   1 12802.3 4111.68   3
   0  -4  -2 41724.6 4359.87   3
   0   4  -2 38677.7 2374.78   3
  -1  -4  -2 9595.74 2148.56   3
  -1   4  -2 10298.5 1445.61   3
   1  -4  -2 12672.8 2507.92   3
  -2   4  -2 1692.83 570.149   3
  -2  -4  -2 1001.24 100.123   3
   2  -4  -2 1482.60 418.573   1
  -2   4  -2 1165.73 464.240   2
   2  -4  -2 519.326 989.157   3
   3  -4  -2 218655. 5919.04   1
   3  -4  -2 210809. 10427.1   3
  -3   4  -2 205141. 9620.88   1
  -3   4  -2 215599. 7733.92   2
   3   4   2 204181. 7016.20   2
   4  -4  -2 68.3346 403.540   3
  -4   4  -2 791.593 418.829   2
   4   4   2 597.817 434.777   2
  -5   4  -2 1630.40 1321.14   1
   5  -4  -2 1110.83 1270.44   3
  -5   4  -2-183.050 226.567   2
   5   4   2 116.598 278.054   2
   5  -4   2 1897.55 1223.67   3
   6  -4  -2 1307.79 859.543   3
   6   4   2 179.562 225.268   2
  -6   4  -2 107.278 182.081   2
  -6   4  -2 825.144 922.719   1
   6  -4   2 2269.05 1304.08   3
  -7   4  -2 37323.9 4726.50   1
  -7  -4   2 29007.0 2600.83   3
   7  -4  -2 37260.8 4760.68   3
   7  -4   2 38064.9 4301.53   3
   7   4   2 37461.3 2949.36   2
  -7   4  -2 37232.4 3082.82   2
   8  -4  -2-313.797 1013.69   3
  -8   4  -2-152.845 1019.17   1
  -8   4  -2 64.3651 291.903   2
   8  -4   2 1730.56 1398.78   3
   9  -4  -2 4118.57 1507.72   3
  -9   4  -2 4314.11 1529.01   1
   9  -4   2 7285.32 2271.14   3
  -9   4  -2 5766.93 1247.62   2
  -9   4   2 8077.55 1374.35   1
 -10   4  -2 6864.95 2322.41   1
  10  -4  -2 6798.25 2307.79   3
  10  -4   2 7022.91 2376.79   3
 -10   4  -2 7142.55 1407.39   2
 -10   4   2 9061.32 1541.39   1
 -11   4  -2 32342.9 5346.03   1
  11  -4  -2 28772.4 5008.66   3
  11  -4   2 31707.1 4908.02   3
 -11   4  -2 27555.5 2735.94   2
 -12   4  -2 861.401 400.059   2
  12  -4  -2 804.323 718.686   3
  12  -4   2 2687.53 1996.94   3
 -12   4  -2 3744.57 2515.75   1
 -13   4  -2 49777.6 7207.48   1
  13  -4  -2 34738.1 6059.67   3
  13  -4   2 35021.1 5439.79   3
  14  -4  -2 4404.04 2749.43   3
  14  -4   2 4780.40 2492.08   3
  15  -4  -2-4987.89 3028.09   3
  16  -4  -2-1604.18 2333.80   3
  17  -4  -2-484.257 1360.15   3
   0   4  -3 299.818 108.342   3
   0  -4  -3-301.282 724.119   3
   1  -4  -3 6901.35 2225.64   3
  -1   4  -3 6956.03 1422.40   3
   1   4  -3 5860.90 915.986   3
  -1  -4  -3 5957.22 1695.23   3
  -2  -4  -3 19302.0 3461.30   3
   2   4  -3 17838.5 1457.11   3
   2  -4  -3 23902.0 3925.56   3
   2   4  -3 17879.3 1366.62   3
   2  -4  -3 20910.1 1633.35   1
   3  -4  -3 7555.31 865.377   1
  -3   4  -3 9619.17 2569.78   1
   3  -4  -3 6182.33 1719.74   3
   4   4   3 1413.67 659.070   2
   4  -4  -3 943.752 679.875   3
   5  -4  -3 177569. 11123.5   3
   5   4   3 160418. 6110.82   2
  -5   4  -3 171759. 10058.2   1
   6  -4  -3 375.423 728.802   3
  -6   4  -3 1229.97 1228.67   1
   6   4   3 149.496 318.685   2
   6   4  -3-2.38088 142.002   3
   7  -4  -3 8145.88 2729.23   3
   7   4  -3 5833.94 1043.24   3
  -7   4  -3 6990.75 2150.23   1
   7   4   3 5602.52 1135.97   2
  -8   4  -3 11110.8 2772.44   1
   8  -4  -3 11775.9 3018.48   3
   8   4  -3 12029.1 1709.52   3
   8   4   3 11611.0 1629.49   2
   9  -4  -3 877.278 1004.71   3
  -9   4  -3 2697.27 1404.42   1
   9   4  -3 2248.83 889.054   3
  10  -4  -3-1666.03 1893.66   3
  10   4  -3 371.728 605.007   3
 -10   4  -3 117.626 653.089   1
 -11   4  -3 40701.0 6537.62   1
  11  -4  -3 32935.0 5409.67   3
 -12   4  -3 8519.94 3957.47   1
  12  -4  -3 610.980 980.663   3
  13  -4  -3 3858.94 2238.46   3
 -13   4  -3 10880.2 4778.22   1
  14  -4  -3 2134.31 1988.42   3
 -14   4  -3 12074.6 4861.31   1
 -15   4  -3 23264.9 6133.08   1
  15  -4  -3 12940.9 4135.43   3
  16  -4  -3 5188.07 3019.15   3
 -16   4  -3 11746.0 4722.54   1
  17  -4  -3-3770.96 2913.17   3
 -17   4  -3 7379.16 4135.84   1
 -18   4  -3 6641.19 4028.52   1
   0  -4  -4 133818. 10463.9   3
   0   4  -4 135395. 6497.21   3
   1   4  -4 4341.73 1109.34   3
  -1  -4  -4 3682.86 1222.31   3
   1  -4  -4 3966.35 1673.98   3
  -2  -4  -4 0.59473 723.163   3
   2   4  -4-15.5634 384.575   3
  -2   4  -4 2755.22 1787.61   1
   2  -4  -4 1215.46 1335.72   3
   3   4  -4 63782.6 3939.48   3
   3  -4  -4 65934.2 7422.70   3
  -3   4  -4 57001.8 5888.73   1
  -4   4  -4 1223.79 1367.53   1
   4  -4  -4-1666.05 1893.31   3
   4   4  -4 24.6491 257.006   3
  -5   4  -4 76.4417 828.949   1
   5   4  -4 93.5718 169.710   3
   5  -4  -4-121.442 900.372   3
  -6   4  -4 34765.1 5190.13   1
   6  -4  -4 35937.0 5498.20   3
   6   4  -4 35458.0 2945.59   3
   6   4   4 31718.5 2833.90   2
  -7   4  -4 14053.7 3386.90   1
   7   4  -4 14508.5 1960.63   3
   7  -4  -4 17365.7 4054.45   3
   7   4   4 13592.6 1802.98   2
  -8   4  -4 18194.1 3755.86   1
   8  -4  -4 21035.5 4604.32   3
   8   4  -4 17539.4 2441.75   3
   8   4   4 16848.7 1880.68   2
   9  -4  -4 2585.17 2004.16   3
  -9   4  -4-458.464 1116.41   1
  10  -4  -4 9418.54 2529.96   3
 -10   4  -4 17035.7 4138.57   1
  11  -4  -4 7594.51 2296.88   3
 -11   4  -4 16823.3 4628.22   1
  12  -4  -4-1359.79 1723.11   3
 -12   4  -4 6611.46 3890.97   1
  13  -4  -4 11856.6 3621.76   3
 -13   4  -4 32724.5 6826.69   1
 -14   4  -4 16061.9 5315.64   1
  14  -4  -4 4967.45 2463.25   3
 -15   4  -4 9748.02 4149.02   1
  15  -4  -4 800.486 1063.52   3
 -16   4  -4 21773.1 6219.36   1
  16  -4  -4 13438.7 4472.65   3
 -17   4  -4 7838.30 4236.89   1
   0  -4  -5 429.299 593.226   3
  -1  -4  -5-627.112 1407.56   3
   1  -4  -5 740.868 949.065   3
  -2  -4  -5 69049.0 8175.36   3
   2   4  -5 77621.7 5800.93   3
   2  -4  -5 73317.9 8376.32   3
  -2   4  -5 73427.2 7050.86   1
  -3   4  -5 1858.16 1559.64   1
   3   4  -5 1616.94 667.689   3
   3  -4  -5 3320.09 2444.30   3
  -4   4  -5 281.143 779.866   1
   4   4  -5-134.626 401.951   3
   5  -4  -5-1087.93 1826.31   3
   5   4  -5 192.734 391.753   3
  -5   4  -5-506.909 826.418   1
  -6   4  -5 11874.7 3207.13   1
   6   4  -5 10963.5 2025.62   3
   6  -4  -5 11012.1 3117.05   3
   7   4   5 79.1747 152.835   2
   7  -4  -5 67.6164 352.891   3
  -8   4  -5 60223.7 7532.60   1
   8  -4  -5 56689.3 7755.56   3
   8   4   5 47508.1 3287.32   2
  -9   4  -5 1193.61 1078.88   1
   9  -4  -5 2402.67 1917.95   3
  10  -4  -5 2791.18 2283.90   3
 -10   4  -5 1742.21 2030.52   1
  11  -4  -5-1041.17 2031.78   3
 -11   4  -5 4749.66 3243.78   1
  12  -4  -5-2120.44 2001.87   3
 -12   4  -5 5122.03 3227.18   1
  13  -4  -5-1771.01 2251.10   3
 -13   4  -5 5336.67 3396.98   1
 -14   4  -5 7020.32 3834.67   1
  14  -4  -5 220.608 853.872   3
 -15   4  -5 8184.23 4045.79   1
  15  -4  -5 2008.19 1849.79   3
 -16   4  -5 8908.20 4312.03   1
   0  -4  -6 53190.1 7573.11   3
   1   4  -6-472.586 1025.13   3
  -1  -4  -6-1308.49 1833.34   3
   1  -4  -6-1281.17 1572.10   3
   2   4  -6 6865.72 2024.30   3
  -2  -4  -6 5664.54 2256.89   3
  -2   4  -6 8961.33 2747.68   1
   2  -4  -6 8112.94 3068.41   3
   3   4  -6 18672.2 3199.29   3
   3  -4  -6 18986.7 4755.94   3
  -3   4  -6 16944.6 3687.09   1
  -4   4  -6 1029.53 1366.75   1
   4   4  -6 582.492 923.243   3
   4  -4  -6 1323.22 2068.18   3
   5  -4  -6-1223.83 1621.33   3
  -5   4  -6 80.9199 387.389   1
  -6   4  -6 9844.37 3089.41   1
   6  -4  -6 8070.73 2609.58   3
  -7   4  -6 1844.38 1066.43   1
   7  -4  -6 580.085 958.298   3
   8  -4  -6 1537.72 472.516   3
  -8   4  -6 1879.87 738.441   1
   9  -4  -6 4481.30 2583.49   3
  -9   4  -6 1965.37 436.301   1
 -10   4  -6 25910.7 5555.20   1
  10  -4  -6 22300.8 5251.57   3
 -11   4  -6 5035.11 2900.80   1
  11  -4  -6 4933.09 2871.86   3
  12  -4  -6-1609.99 2318.25   3
 -12   4  -6 3532.35 2836.28   1
  13  -4  -6 2501.98 1103.69   3
 -13   4  -6 9673.85 4057.32   1
  14  -4  -6-1419.35 1679.25   3
 -14   4  -6 4291.87 3098.45   1
   0  -4  -7-2018.13 2004.47   3
   1   4  -7 11462.4 2766.66   3
  -1  -4  -7 9738.80 3317.01   3
   1  -4  -7 13206.1 4091.27   3
  -2  -4  -7-862.695 1941.23   3
   2   4  -7 1219.66 736.299   3
   2  -4  -7 3497.15 2257.01   3
  -3   4  -7 5618.23 2388.96   1
  -3  -4  -7 1488.77 636.768   3
   3  -4  -7 4842.28 2707.97   3
  -4   4  -7 3765.89 1722.42   1
   4  -4  -7 4952.59 2856.93   3
   5  -4  -7 31659.6 6191.21   3
  -5   4  -7 33973.8 5605.98   1
   6  -4  -7-1628.89 1851.35   3
  -6   4  -7-858.190 1576.68   1
  -7   4  -7-1423.95 1709.40   1
   7  -4  -7-534.905 1177.90   3
  -8   4  -7 1597.07 458.543   1
   8  -4  -7 1057.90 1312.87   3
   9  -4  -7 1258.55 1528.40   3
  -9   4  -7 132.134 1126.83   1
  10  -4  -7 3160.84 2521.25   3
 -10   4  -7 2016.27 1693.10   1
  11  -4  -7 12373.1 4314.89   3
 -11   4  -7 13372.7 4475.87   1
  12  -4  -7 2213.84 1106.33   3
 -12   4  -7 1855.51 1591.49   1
   0   4  -8 2253.34 513.336   3
   0  -4  -8 3990.28 2008.72   3
  -1  -4  -8 13.8964 1747.67   3
   1  -4  -8 1364.15 1380.39   3
  -2  -4  -8-1440.58 2027.34   3
   2  -4  -8 1316.25 1959.83   3
  -3  -4  -8 23146.5 5483.46   3
   3  -4  -8 29590.3 6618.45   3
  -3   4  -8 26794.9 5060.44   1
  -4  -4  -8-1718.38 2410.84   3
  -4   4  -8-276.352 1140.30   1
   4  -4  -8 2169.26 2319.51   3
  -5   4  -8-642.282 1645.88   1
   5  -4  -8-879.058 1830.95   3
  -6   4  -8-2216.29 1850.87   1
   6  -4  -8-1816.18 2025.24   3
  -7   4  -8 3762.48 1618.94   1
   7  -4  -8 5422.64 2657.98   3
  -8   4  -8-1305.93 1613.52   1
   8  -4  -8-98.7328 855.723   3
   9  -4  -8 1296.43 1219.95   3
  -9   4  -8-868.896 1884.88   1
  10  -4  -8 5190.60 3110.24   3
 -10   4  -8-1194.14 1833.37   1
   0  -4  -9-85.6538 503.690   3
  -1  -4  -9 495.782 415.733   3
   1  -4  -9 1570.99 1970.73   3
  -2  -4  -9 4659.09 2177.29   3
   2  -4  -9 6673.14 3661.59   3
  -3  -4  -9-613.829 1405.74   3
   3  -4  -9 4082.42 3340.55   3
  -4  -4  -9-2564.57 2547.58   3
  -4   4  -9-850.959 1318.91   1
  -5  -4  -9 1355.50 1216.54   3
  -5   4  -9 2935.86 1475.07   1
   5  -4  -9 475.032 411.292   3
  -6   4  -9 1290.94 235.409   1
   6  -4  -9 958.058 1379.42   3
  -7   4  -9 192.173 1554.94   1
   7  -4  -9-1502.77 1991.30   3
   0  -5   0-139.493 230.169   3
   0   5   0-91.4053 200.944   2
  -1  -5   0-200.298 293.700   3
   1   5   0-152.028 190.723   2
   1  -5   0 153.660 353.399   3
  -1   5   0 290.738 378.926   2
  -1   5   0-310.526 571.683   3
   2   5   0 5397.59 1297.26   2
  -2  -5   0 5052.06 754.294   3
   2  -5   0 5256.13 1260.77   3
  -2   5   0 6166.72 1405.01   2
   3   5   0 104.628 289.324   2
  -3  -5   0 72.0638 127.767   3
   3  -5   0 548.743 699.980   3
  -3   5   0 15.5700 228.575   2
  -4  -5   0 71805.0 2672.77   3
   4  -5   0 85898.9 6061.73   3
  -4  -5   0 63710.0 2396.64   3
  -4   5   0 91733.7 5557.94   2
  -5  -5   0 207.424 222.034   3
   5  -5   0 441.402 828.874   3
  -5   5   0-241.074 259.393   2
  -5  -5   0 242.474 267.361   3
   6  -5   0 45870.9 4997.21   3
  -6   5   0 48999.4 4301.09   2
   7  -5   0 1547.82 1368.45   3
  -7   5   0-175.030 462.482   2
  -7   5   0 2188.04 1378.92   1
  -8   5   0 1204.87 1220.98   1
  -8   5   0-594.905 839.308   2
   9  -5   0-2066.23 1767.41   3
  -9   5   0 2362.51 1360.62   1
  10  -5   0 21409.5 4014.54   3
 -10   5   0 23797.5 3563.77   1
 -11   5   0 590.050 827.234   1
  11  -5   0-922.036 1225.66   3
 -12   5   0 5756.59 1972.00   1
  12  -5   0 4170.88 1453.23   3
 -12   5   0 5740.38 1620.10   2
  13  -5   0-67.7714 550.491   3
 -13   5   0 973.065 912.438   2
  14  -5   0 8130.22 2707.49   3
 -14   5   0 10545.0 2253.14   2
  15  -5   0 1909.08 1375.39   3
  16  -5   0 2801.82 1803.01   3
  17  -5   0 745.356 1520.20   3
   0   5  -1 1193.30 436.708   2
   0   5   1 748.074 580.192   2
   0  -5   1 1201.43 488.288   3
   0  -5  -1 918.433 610.242   3
  -1   5  -1 28104.8 2772.80   3
  -1  -5  -1 25785.0 2882.32   3
   1  -5  -1 27828.7 3345.04   3
   1  -5   1 28062.3 2264.45   3
   1   5  -1 28779.2 3146.75   2
  -1   5  -1 27877.1 3054.04   2
   1   5   1 26697.8 2927.07   2
  -1   5   1 28842.5 3162.85   2
  -2   5   1 41526.9 3836.39   2
  -2   5  -1 37071.5 3608.00   3
  -2  -5  -1 35801.0 3531.57   3
   2  -5  -1 35958.3 3873.38   3
   2  -5   1 35040.6 2884.75   3
  -2   5  -1 37307.1 3541.18   2
   2   5   1 37815.1 3393.12   2
   3  -5  -1-152.434 940.439   3
   3   5   1 1112.59 652.155   2
  -3   5  -1 722.040 555.966   2
   3  -5   1 693.077 287.570   3
  -3  -5  -1 1223.90 688.189   3
  -4  -5  -1 29549.5 3284.39   3
   4  -5  -1 33336.1 3922.35   3
   4  -5   1 32345.4 3474.48   3
   4   5   1 34245.8 3264.24   2
  -4   5  -1 35454.2 3520.85   2
   5  -5  -1 6118.19 1715.98   3
  -5  -5  -1 4304.84 1178.54   3
  -5   5  -1 7028.27 1455.52   2
   5  -5   1 6507.53 1574.02   3
   5   5   1 5880.77 1445.17   2
   6  -5  -1 10797.2 2534.23   3
   6  -5   1 9552.74 2145.40   3
  -6   5  -1 12862.8 2911.73   1
  -6   5  -1 11475.8 1964.48   2
   7  -5  -1 1377.07 1023.32   3
  -7   5  -1 1710.32 792.332   2
   7  -5   1 1877.62 910.103   3
  -7   5  -1 3979.12 2040.69   1
   8  -5  -1 1008.46 858.922   3
  -8   5  -1 986.419 598.099   2
   8  -5   1 923.420 539.903   3
  -8   5  -1 2812.39 1924.64   1
   9  -5  -1 16401.3 3632.84   3
   9  -5   1 13258.7 2799.35   3
  -9   5   1 20698.0 2850.99   1
  -9   5  -1 15187.0 2348.85   2
  -9   5  -1 15049.6 3173.26   1
 -10   5  -1 1591.06 737.874   1
  10  -5  -1 2843.22 1665.33   3
 -10   5  -1 1351.27 632.112   2
  10  -5   1 1590.53 1031.47   3
 -10   5   1 3915.24 1495.22   1
 -11   5  -1-210.989 1080.60   1
  11  -5  -1 2777.17 2190.36   3
 -11   5  -1 467.598 447.415   2
  11  -5   1 1082.93 1003.16   3
  12  -5  -1 7232.83 2218.28   3
 -12   5  -1 8895.83 2426.20   1
  12  -5   1 9538.89 2854.65   3
 -12   5  -1 9362.95 1924.71   2
 -13   5  -1 955.936 681.911   2
  13  -5  -1-2035.22 2140.67   3
  13  -5   1 2854.68 1951.22   3
 -13   5  -1 1068.78 1093.02   1
  14  -5  -1 3501.45 1337.06   3
  14  -5   1 8872.57 3078.47   3
 -14   5  -1 9153.93 3017.51   1
  15  -5  -1 3464.53 1540.28   3
  15  -5   1 10165.8 3373.33   3
  16  -5  -1-1027.47 1582.13   3
  16  -5   1 2184.30 1872.53   3
  17  -5  -1 159.157 492.099   3
  17  -5   1 5211.12 2788.69   3
   0   5  -2 117.736 191.143   3
   0  -5  -2-1530.72 1268.54   3
  -1  -5  -2 38272.8 4454.52   3
  -1   5  -2 36380.4 2963.40   3
   1  -5  -2 37518.4 4457.80   3
   1   5   2 37689.3 3696.37   2
   2   5   2-140.419 462.922   2
  -2  -5  -2 273.090 563.461   3
  -2   5  -2-613.431 674.772   2
   2  -5  -2 132.585 628.029   3
  -2   5  -2 4.93585 161.150   3
  -3  -5  -2 18998.4 3215.87   3
   3  -5  -2 25357.5 3867.21   3
  -3   5  -2 22908.8 2775.63   2
   3   5   2 22070.9 2559.06   2
  -4  -5  -2 10300.3 2217.53   3
   4  -5  -2 13879.6 3075.71   3
  -4   5  -2 11604.0 1964.55   2
   4   5   2 12541.7 1964.06   2
  -5   5  -2-51.9055 614.790   2
   5  -5  -2 2674.62 1889.39   3
   5   5   2 558.262 492.446   2
   5  -5   2 3005.40 1361.15   3
  -5   5  -2 3437.36 2178.97   1
   6   5   2 1936.33 820.645   2
  -6   5  -2 1551.58 516.768   2
   6  -5  -2 636.166 901.132   3
  -6   5  -2 3937.32 2120.85   1
   6  -5   2 3645.63 1586.53   3
   7  -5  -2 55448.1 6275.68   3
   7  -5   2 61030.5 5585.16   3
   7   5   2 56719.2 4249.35   2
  -7   5  -2 60499.5 4502.15   2
  -7   5  -2 53307.7 5991.75   1
  -8   5  -2 273.876 401.446   2
   8  -5  -2-372.462 748.757   3
   8  -5   2 1937.94 1455.81   3
  -8   5  -2 735.538 1093.62   1
  -9   5  -2 24727.8 4339.19   1
   9  -5  -2 26995.0 4688.33   3
   9  -5   2 28428.4 4337.21   3
  -9   5  -2 25684.9 2999.90   2
  10  -5  -2 7408.31 2595.00   3
 -10   5  -2 5355.97 1866.94   1
  10  -5   2 10335.6 2954.30   3
 -10   5  -2 6883.70 1564.73   2
  11  -5  -2 9578.17 3054.50   3
 -11   5  -2 10438.9 2700.82   1
  11  -5   2 11527.6 3156.10   3
 -11   5  -2 9207.14 1784.15   2
 -12   5  -2-94.1011 347.948   2
  12  -5  -2 460.525 1247.65   3
 -12   5  -2-243.806 664.445   1
  13  -5  -2 6995.55 3085.80   3
  13  -5   2 7832.49 2942.55   3
 -13   5  -2 6419.98 2424.22   1
 -14   5  -2 3052.21 2028.49   1
  14  -5  -2 3976.49 2268.83   3
 -15   5  -2 1781.86 2024.64   1
  15  -5  -2-3821.19 2617.56   3
 -16   5  -2 3073.66 2224.84   1
  16  -5  -2-2968.42 2501.03   3
   0   5  -3 2186.73 665.132   3
   0  -5  -3 3587.11 1744.01   3
  -1  -5  -3 65529.1 6923.33   3
   1  -5  -3 71070.9 7087.74   3
  -1   5  -3 59952.8 3944.09   3
   2  -5  -3 10367.2 2525.71   3
  -2  -5  -3 8901.02 2072.39   3
   3   5   3 158.727 274.931   2
   3  -5  -3 334.695 412.423   3
   4  -5  -3 494.891 778.735   3
  -4  -5  -3-392.288 1226.28   3
   5  -5  -3 5326.31 2242.63   3
   5   5   3 4230.80 1163.40   2
  -5   5  -3 6095.10 2387.37   1
   6   5   3 572.005 447.724   2
   6  -5  -3 1757.23 1610.39   3
  -6   5  -3 1636.99 1514.78   1
   7  -5  -3 8910.54 3173.38   3
   7   5   3 6002.00 1406.03   2
  -7   5  -3 7173.49 2413.49   1
  -8   5  -3 1481.73 1199.15   1
   8   5   3 689.569 380.643   2
  -9   5  -3 20927.5 4024.10   1
   9  -5  -3 22666.9 4324.33   3
  10  -5  -3-1191.02 1449.94   3
 -10   5  -3-665.693 1123.27   1
  11  -5  -3 9605.74 3057.49   3
 -11   5  -3 9457.26 3041.71   1
  12  -5  -3 691.307 1085.68   3
 -12   5  -3 1602.96 1739.52   1
  13  -5  -3 2244.81 1837.76   3
 -13   5  -3 3627.13 2375.43   1
 -14   5  -3 2590.45 2309.80   1
  14  -5  -3 2683.63 2393.04   3
 -15   5  -3 10780.6 3801.86   1
  15  -5  -3 11665.2 4093.32   3
 -16   5  -3 2277.02 2324.19   1
  16  -5  -3 3010.85 1669.73   3
 -17   5  -3 5177.64 3134.54   1
   0  -5  -4 630.859 1066.00   3
   1  -5  -4 17610.3 4104.74   3
  -1  -5  -4 14961.2 3590.84   3
   1   5  -4 14507.0 1781.81   3
  -2  -5  -4 2118.72 532.670   3
   2  -5  -4 5314.22 2600.96   3
  -3  -5  -4 1841.66 266.664   3
   3  -5  -4 1753.15 704.462   3
  -4  -5  -4 24524.6 4751.88   3
   4  -5  -4 26257.0 4658.36   3
  -4   5  -4 30858.3 4830.41   1
  -5   5  -4 3197.98 1939.32   1
   5   5   4 1454.94 761.557   2
   5  -5  -4 2117.72 1594.69   3
   6  -5  -4 9481.50 3057.41   3
  -6   5  -4 9523.86 2807.30   1
   6   5   4 7911.85 1630.69   2
   7  -5  -4 17856.3 4201.70   3
   7   5   4 13620.5 2044.08   2
  -7   5  -4 15434.2 3650.03   1
  -8   5  -4 672.084 104.389   1
   8  -5  -4 1700.22 1539.09   3
   8   5   4 303.461 139.320   2
   9  -5  -4 419.441 1856.18   3
  -9   5  -4 3779.37 1601.48   1
  10  -5  -4-116.241 1597.79   3
 -10   5  -4 2734.99 1301.40   1
  11  -5  -4-1024.84 1451.15   3
 -11   5  -4 771.706 790.845   1
  12  -5  -4-432.591 672.611   3
 -12   5  -4 2291.72 1909.28   1
  13  -5  -4 743.099 1224.18   3
 -13   5  -4-506.447 908.493   1
  14  -5  -4 3485.42 2366.04   3
 -14   5  -4 5161.54 2787.73   1
  15  -5  -4 1893.39 2000.49   3
 -15   5  -4 2522.06 2158.78   1
 -16   5  -4 2065.24 2227.40   1
   0  -5  -5-533.711 986.441   3
  -1  -5  -5-716.341 1551.63   3
   1  -5  -5 962.216 1589.72   3
  -2  -5  -5 32231.3 5535.66   3
   2  -5  -5 34922.7 6114.48   3
  -3  -5  -5 3309.12 1302.45   3
   3  -5  -5 3189.26 1527.91   3
  -4  -5  -5 12833.7 3542.64   3
  -4   5  -5 17388.5 4052.17   1
   4  -5  -5 13531.4 3460.33   3
  -5   5  -5 1273.64 1139.27   1
   5  -5  -5-1415.89 1524.03   3
  -6   5  -5 7786.54 2669.11   1
   6   5   5 5965.50 1455.59   2
   6  -5  -5 7147.81 2659.04   3
   7  -5  -5 1395.60 1337.30   3
   7   5   5 620.127 350.278   2
  -7   5  -5 1359.74 531.925   1
   8  -5  -5 1063.45 1571.54   3
  -8   5  -5 202.675 298.870   1
   9  -5  -5 4889.96 2785.79   3
  -9   5  -5 1400.05 1295.19   1
  10  -5  -5-2488.31 1488.19   3
 -10   5  -5-1972.97 1777.73   1
  11  -5  -5 414.793 1169.68   3
 -11   5  -5 943.298 1237.40   1
  12  -5  -5 11732.7 3505.55   3
 -12   5  -5 17104.7 4253.67   1
  13  -5  -5-1157.31 1620.19   3
 -13   5  -5-1929.51 1914.97   1
  14  -5  -5 4583.34 2735.51   3
 -14   5  -5 4173.23 2611.27   1
 -15   5  -5-457.323 1002.01   1
   0  -5  -6-160.494 1094.98   3
  -1  -5  -6 592.815 641.013   3
   1  -5  -6 1026.43 1531.58   3
  -2  -5  -6 5955.44 2451.81   3
   2  -5  -6 10366.6 3822.91   3
  -3  -5  -6 1637.58 810.024   3
   3  -5  -6 6487.70 3298.69   3
  -4  -5  -6 26801.6 5883.28   3
   4  -5  -6 31261.8 5995.97   3
  -4   5  -6 31317.7 5591.57   1
  -5   5  -6 1602.29 1158.18   1
   5  -5  -6-991.268 1934.34   3
  -6   5  -6 8900.43 2829.29   1
   6  -5  -6 9211.73 3137.30   3
  -7   5  -6 3054.66 1017.94   1
   7  -5  -6 5034.77 2644.52   3
   8  -5  -6 1049.77 994.134   3
  -8   5  -6-3268.03 2601.13   1
  -9   5  -6-3437.58 2720.99   1
   9  -5  -6 3180.01 2292.95   3
  10  -5  -6 7297.27 3544.88   3
 -10   5  -6 2751.76 1046.58   1
  11  -5  -6-3638.18 3006.80   3
 -11   5  -6-2482.81 2204.87   1
  12  -5  -6-487.055 1784.28   3
 -12   5  -6-1976.46 2301.48   1
  13  -5  -6-228.560 1471.46   3
 -13   5  -6-226.765 1553.92   1
   0  -5  -7 6009.86 2922.85   3
  -1  -5  -7 6700.91 2960.67   3
   1  -5  -7 9995.04 3710.41   3
  -2  -5  -7-1170.14 2224.50   3
   2  -5  -7 988.959 1510.38   3
  -3  -5  -7-1131.23 2009.18   3
   3  -5  -7 4099.07 3118.77   3
  -4  -5  -7-1351.76 2259.06   3
   4  -5  -7-1236.15 1781.95   3
  -5  -5  -7-362.899 1889.37   3
  -5   5  -7 127.880 246.869   1
   5  -5  -7-228.868 1808.08   3
  -6   5  -7-1179.08 1776.56   1
   6  -5  -7-1727.47 1856.11   3
  -7   5  -7-1880.48 2647.31   1
   7  -5  -7 1847.87 1520.06   3
   8  -5  -7 2160.50 2118.78   3
  -8   5  -7-1328.21 2265.86   1
   9  -5  -7 7131.04 3356.52   3
  -9   5  -7 1581.18 1449.17   1
  10  -5  -7 872.239 1631.53   3
 -10   5  -7-2169.72 2734.91   1
  11  -5  -7 3006.83 2505.36   3
 -11   5  -7-3103.84 2589.07   1
   0  -5  -8 1497.34 1880.80   3
  -1  -5  -8 5137.72 2901.38   3
   1  -5  -8 7163.55 3533.18   3
  -2  -5  -8-304.229 1463.20   3
   2  -5  -8 1940.43 2180.35   3
  -3  -5  -8 1364.46 675.434   3
   3  -5  -8 6175.92 3567.80   3
  -4  -5  -8-2338.46 2709.29   3
   4  -5  -8-2444.13 2920.67   3
  -5  -5  -8-1048.51 2226.67   3
  -5   5  -8-1389.56 1688.51   1
   5  -5  -8-2494.50 2668.75   3
  -6  -5  -8-2236.23 2873.74   3
  -6   5  -8-1035.50 1825.14   1
   6  -5  -8-49.6211 413.727   3
  -7   5  -8 5695.17 2132.15   1
   7  -5  -8 8520.97 3290.95   3
   8  -5  -8 79.4846 996.982   3
  -8   5  -8-3981.55 2899.64   1
   0  -5  -9 3466.43 2785.83   3
  -1  -5  -9 3228.09 2298.63   3
   1  -5  -9 3889.51 3157.94   3
  -2  -5  -9 1667.97 1661.42   3
   2  -5  -9 6057.46 3614.17   3
  -3  -5  -9-1759.64 2215.78   3
   3  -5  -9 5388.50 3445.88   3
  -4  -5  -9-520.932 1877.91   3
   4  -5  -9 522.417 1485.85   3
  -5  -5  -9-1294.96 2485.73   3
   0  -6   0 139180. 5700.13   3
   0   6   0 165760. 8257.49   2
   1   6   0 803.312 823.047   2
  -1   6   0 1268.24 951.223   2
  -1  -6   0 709.967 547.309   3
   1  -6   0 21.3441 281.346   3
   2   6   0 490.492 526.780   2
  -2   6   0 1191.81 918.220   2
   2  -6   0 892.046 784.452   3
  -2  -6   0 745.165 364.615   3
   3   6   0-73.8959 467.316   2
   3  -6   0 583.613 668.035   3
  -3   6   0 138.804 284.992   2
   4  -6   0 1746.03 1243.58   3
  -4   6   0 181.631 45.0978   2
   5  -6   0 1186.01 965.174   3
  -5   6   0-419.855 351.566   2
   6  -6   0 20100.5 3162.77   3
  -6   6   0 23006.5 3194.70   2
   7  -6   0-2493.96 1733.85   3
  -7   6   0 362.455 558.602   2
   8  -6   0 4917.70 1683.79   3
  -8   6   0 5211.40 1595.64   2
   9  -6   0-817.093 1257.59   3
  -9   6   0-112.702 278.839   2
  10  -6   0 12681.6 3066.60   3
 -10   6   0 13234.7 2550.96   2
  11  -6   0-2424.93 1894.43   3
 -11   6   0 307.366 237.981   2
 -12   6   0 2.05000 192.190   2
  12  -6   0-498.209 1001.02   3
 -13   6   0 297.312 427.951   2
  13  -6   0-207.893 710.498   3
 -14   6   0 2830.64 1308.06   2
  14  -6   0 3350.04 1932.47   3
  15  -6   0 261.496 760.334   3
  16  -6   0 3083.60 2168.43   3
   0   6  -1-561.111 544.502   2
   0  -6  -1 1101.41 1002.39   3
   0   6   1 108.376 583.615   2
  -1  -6  -1 1543.62 914.347   3
  -1   6  -1 1027.23 646.328   2
   1  -6  -1-586.880 973.229   3
   1   6   1 1209.49 725.136   2
  -1   6   1 447.508 393.472   2
   1  -6   1 672.068 354.927   3
   1   6  -1 424.740 455.074   2
  -2  -6  -1 13186.1 2082.29   3
   2  -6  -1 12006.5 2202.92   3
   2  -6   1 12070.4 1822.00   3
  -2   6  -1 13664.7 2548.84   2
   2   6   1 14381.8 2409.98   2
  -2   6   1 12792.1 2095.13   2
   3   6   1 561.237 535.565   2
  -3   6  -1 1612.88 1001.94   2
   3  -6  -1 90.2990 437.611   3
  -3   6   1 379.927 394.788   2
   3  -6   1 1059.26 732.608   3
  -3  -6  -1 190.663 508.006   3
   4   6   1 586.072 496.699   2
  -4   6  -1 715.769 556.854   2
   4  -6  -1 58.6133 526.233   3
   4  -6   1 335.620 571.923   3
  -4   6   1-162.732 669.661   2
  -4  -6  -1-339.104 385.268   3
  -5   6   1 7505.52 1906.50   2
   5  -6  -1 7384.60 2146.96   3
   5  -6   1 5518.04 1498.21   3
   5   6   1 6544.95 1607.09   2
  -5   6  -1 7567.47 1779.98   2
   6  -6  -1 8703.52 2528.45   3
   6  -6   1 7485.36 1926.84   3
  -6   6  -1 8280.38 1916.52   2
  -7   6  -1 2476.23 1128.16   2
   7  -6  -1 3047.58 1657.79   3
   7  -6   1 1729.65 1016.03   3
   8  -6  -1 17328.3 3777.04   3
   8  -6   1 13535.0 2850.23   3
  -8   6  -1 14609.4 2602.03   2
  -9   6  -1 68.8270 312.688   2
   9  -6  -1 2677.45 1919.34   3
   9  -6   1 544.805 725.247   3
  -9   6  -1 3196.60 1907.56   1
 -10   6  -1 1057.48 800.437   2
 -10   6  -1 2345.81 1651.44   1
  10  -6   1 897.267 1063.81   3
 -11   6  -1 2638.57 1242.15   2
  11  -6  -1-2360.31 2049.33   3
 -11   6  -1 2769.58 1545.04   1
  11  -6   1 3398.88 1835.97   3
 -12   6  -1 839.885 580.912   2
  12  -6  -1-1919.51 2010.94   3
  12  -6   1 2173.89 1657.26   3
 -12   6  -1 773.178 765.313   1
 -13   6  -1-279.174 427.793   2
  13  -6  -1-2532.10 2151.26   3
  14  -6  -1 108.046 753.462   3
  14  -6   1 3832.65 2117.97   3
  15  -6  -1-27.4200 512.368   3
 -15   6   1 591.202 650.614   2
  16  -6  -1 481.009 666.922   3
  16  -6   1 4381.57 2674.70   3
   0   6   2 5635.73 1325.77   2
   0  -6  -2 6280.09 1649.11   3
   1  -6  -2 2144.92 1101.09   3
   1   6   2 1863.80 717.883   2
  -1   6   2 20.9732 968.220   2
  -1  -6  -2 771.455 995.005   3
   2  -6  -2 1978.19 1594.70   3
   2   6   2 930.930 766.456   2
  -2  -6  -2 439.774 766.457   3
  -3  -6  -2 32234.3 4377.16   3
   3  -6  -2 38645.9 4914.52   3
  -3   6  -2 35222.3 3948.10   2
   3   6   2 35090.7 3876.66   2
  -4   6  -2-149.826 426.266   2
   4  -6  -2-1028.88 1074.44   3
   4   6   2 126.260 329.335   2
  -4  -6  -2 829.406 959.018   3
  -5   6  -2 72.0928 561.821   2
   5  -6  -2-1270.06 1225.16   3
   5   6   2-98.6112 474.067   2
  -5  -6  -2-226.462 624.290   3
   6   6   2-107.147 280.855   2
  -6   6  -2-54.9863 503.953   2
   6  -6  -2-549.324 938.913   3
  -6  -6  -2-1467.49 1424.91   3
  -7   6  -2 6549.71 1618.71   2
   7  -6  -2 5575.98 1944.43   3
   7  -6   2 9328.61 2508.76   3
  -8   6  -2-281.029 698.623   2
   8  -6  -2-39.0773 298.450   3
  -8   6  -2 1790.00 1843.72   1
   8  -6   2 1322.56 1341.93   3
  -9   6  -2 712.505 404.622   2
   9  -6  -2 1797.45 1611.89   3
  -9   6  -2 2677.52 1596.93   1
   9  -6   2 3351.45 1866.53   3
 -10   6  -2 794.967 289.697   2
  10  -6  -2 3249.53 2028.80   3
 -10   6  -2 1547.11 1108.00   1
  10  -6   2 4051.34 2166.46   3
 -11   6  -2 5741.87 1550.72   2
  11  -6  -2 8853.82 3261.50   3
  11  -6   2 8777.64 2840.58   3
 -11   6  -2 4170.37 1672.19   1
 -12   6  -2-296.300 605.836   2
 -12   6  -2-2422.69 1826.28   1
  13  -6  -2 11467.1 3997.05   3
 -13   6  -2 2176.75 793.882   1
 -14   6  -2-3458.57 2184.05   1
  14  -6  -2-2907.41 2477.74   3
  15  -6  -2-2208.12 2318.21   3
   0  -6  -3-2123.95 1675.67   3
   1   6   3 163.024 570.171   2
   1  -6  -3 76.5369 674.684   3
   2   6   3 2821.22 798.408   2
  -2  -6  -3 4578.34 2066.74   3
   2  -6  -3 2601.92 1061.04   3
   3  -6  -3 1764.68 1495.54   3
   3   6   3 1311.73 618.527   2
  -3  -6  -3 1431.64 1148.51   3
   4   6   3 19.8597 110.147   2
  -4  -6  -3-666.219 1371.70   3
  -5  -6  -3 26929.0 4822.03   3
   5  -6  -3 36179.1 5661.37   3
   5   6   3 30207.0 3574.15   2
   6  -6  -3 1774.72 1044.18   3
   6   6   3 315.166 455.834   2
   7   6   3 1507.62 720.089   2
  -7   6  -3 4771.83 2422.41   1
   8  -6  -3 638.960 753.180   3
  -8   6  -3 4224.02 1997.54   1
   9  -6  -3-651.155 978.845   3
  -9   6  -3-142.048 358.379   1
  10  -6  -3-897.745 670.919   3
 -10   6  -3-464.278 1141.21   1
  11  -6  -3 9084.83 3100.19   3
 -11   6  -3 3139.70 422.300   1
  12  -6  -3 2279.03 1941.91   3
 -12   6  -3-3140.94 2102.37   1
 -13   6  -3-3764.77 2496.23   1
  13  -6  -3 4793.66 2814.69   3
 -14   6  -3-2264.12 2155.83   1
  14  -6  -3 3379.93 2720.27   3
 -15   6  -3 433.448 669.073   1
  15  -6  -3 10509.8 4078.54   3
   0  -6  -4 24565.5 5113.16   3
  -1  -6  -4 1577.78 1650.62   3
   1  -6  -4-1119.81 1926.77   3
  -2  -6  -4 988.909 1201.48   3
   2  -6  -4-1842.47 1885.69   3
  -3  -6  -4 11780.3 3192.40   3
   3  -6  -4 11484.0 3158.13   3
   3   6   4 9957.98 2216.93   2
   4   6   4-208.477 460.296   2
  -4  -6  -4-690.899 1283.81   3
   4  -6  -4-607.822 422.935   3
   5  -6  -4 1436.59 1577.88   3
   5   6   4 78.8893 386.941   2
  -5  -6  -4-1845.69 1869.51   3
   6  -6  -4 10395.4 3588.29   3
  -6  -6  -4 5973.87 2087.71   3
   6   6   4 7493.25 1752.24   2
   7  -6  -4 7382.84 3149.85   3
   7   6   4 3039.87 1174.62   2
  -7   6  -4 3524.58 2061.11   1
   8   6   4 3825.03 1206.10   2
   8  -6  -4 153.044 1474.75   3
  -8   6  -4 4725.56 2053.66   1
   9  -6  -4-3737.80 2489.67   3
  -9   6  -4-753.792 1653.15   1
  10  -6  -4-1150.44 1828.78   3
 -10   6  -4-1214.61 1853.74   1
  11  -6  -4 848.918 685.671   3
 -11   6  -4-2235.54 2564.00   1
  12  -6  -4 1368.68 1398.21   3
  13  -6  -4 6024.40 2831.93   3
 -13   6  -4-1705.91 2515.32   1
 -14   6  -4-2081.37 2216.03   1
  14  -6  -4 3575.32 2541.39   3
 -15   6  -4-5191.72 3023.88   1
   0  -6  -5 1637.30 1668.01   3
  -1  -6  -5 1153.21 1438.31   3
   1  -6  -5 1254.88 1898.77   3
  -2  -6  -5 14174.6 3936.64   3
   2  -6  -5 9555.43 3028.93   3
  -3  -6  -5-1543.57 1683.75   3
   3  -6  -5-399.871 1178.47   3
   4   6   5-407.391 780.300   2
  -4  -6  -5-1034.30 1503.29   3
   4  -6  -5-112.260 982.458   3
   5   6   5 317.509 307.032   2
   5  -6  -5-92.3626 752.638   3
   6   6   5 1708.30 909.502   2
  -6  -6  -5 691.515 907.418   3
   7   6   5 390.951 621.838   2
  -7   6  -5-652.718 884.253   1
   8  -6  -5 13425.5 4233.24   3
  -8   6  -5 8138.89 2706.87   1
   9  -6  -5-2073.34 1501.62   3
  -9   6  -5-5476.54 2851.75   1
  10  -6  -5-2375.77 2098.73   3
  11  -6  -5-2669.77 2326.21   3
  12  -6  -5-1826.07 1864.48   3
  13  -6  -5-118.746 673.647   3
   0  -6  -6 9768.32 3685.64   3
  -1  -6  -6 1238.37 1536.66   3
   1  -6  -6 1942.12 2151.08   3
  -2  -6  -6 1627.71 1509.28   3
   2  -6  -6 2146.61 1621.17   3
  -3  -6  -6 965.504 1128.22   3
   3  -6  -6 302.070 1130.28   3
  -4  -6  -6-1022.53 1695.62   3
   4  -6  -6-1579.26 1827.74   3
   5   6   6-41.2293 233.414   2
   5  -6  -6 184.216 313.325   3
   6  -6  -6 2496.02 1992.80   3
  -6  -6  -6 615.159 386.438   3
   7  -6  -6 483.031 1372.64   3
  -7  -6  -6-1558.72 1955.90   3
  -7   6  -6-2698.16 2118.94   1
   8  -6  -6 2182.89 2076.21   3
  -8   6  -6-1248.02 1971.66   1
   9  -6  -6 3683.46 2512.78   3
  -9   6  -6-1615.85 2080.91   1
  10  -6  -6 2224.37 1959.51   3
 -10   6  -6-6999.50 3857.82   1
  11  -6  -6-3212.64 2702.27   3
   0  -6  -7 2100.53 2220.27   3
  -1  -6  -7 2671.01 2104.91   3
   1  -6  -7 5956.03 3264.11   3
  -2  -6  -7 2314.71 1949.36   3
   2  -6  -7 4008.19 3114.99   3
  -3  -6  -7 256.648 569.652   3
   3  -6  -7-2267.39 2660.86   3
  -4  -6  -7-339.234 1281.30   3
   4  -6  -7 159.263 992.141   3
  -5  -6  -7 2441.32 1540.00   3
   5  -6  -7 4081.79 2069.66   3
  -6  -6  -7-1734.20 2201.45   3
   6  -6  -7-177.256 923.361   3
   7  -6  -7-58.1982 769.047   3
  -7  -6  -7-3564.96 2843.38   3
  -7   6  -7-4318.73 2742.77   1
   8  -6  -7 2179.40 2219.02   3
  -8   6  -7-2264.87 2222.87   1
   9  -6  -7 2851.42 2468.62   3
  -9   6  -7-6174.03 3554.73   1
   0  -6  -8 3193.88 2857.78   3
  -1  -6  -8 2238.09 2621.11   3
   1  -6  -8 2524.69 2401.61   3
  -2  -6  -8-380.206 1162.84   3
   2  -6  -8 4425.98 3330.94   3
  -3  -6  -8 5529.32 3161.50   3
   3  -6  -8 2519.31 2117.74   3
  -4  -6  -8-1486.26 2133.62   3
   4  -6  -8-621.406 1424.79   3
  -5  -6  -8-1895.63 2668.31   3
   5  -6  -8 554.552 1208.16   3
  -6  -6  -8-4167.36 3313.40   3
   6  -6  -8-461.158 1141.46   3
  -7  -6  -8-1909.54 2295.61   3
  -8  -6  -8-2348.81 2612.47   3
   0   7   0-190.643 222.098   2
   1   7   0 91.2501 520.916   2
  -1   7   0 202.073 454.912   2
   2   7   0 492.479 574.876   2
  -2   7   0 1214.47 1048.34   2
  -3   7   0 278.131 456.053   2
   3   7   0-80.9439 250.379   2
   4  -7   0 9368.60 2147.59   3
  -4   7   0 13307.1 2697.02   2
  -5   7   0 745.788 793.181   2
   5  -7   0-1121.81 1160.92   3
  -6   7   0 7838.79 2101.96   2
   6  -7   0 3309.96 1269.40   3
  -7   7   0 25.1133 332.794   2
   7  -7   0-1800.12 1409.77   3
  -8   7   0 772.993 865.652   2
   8  -7   0-1212.16 1395.57   3
  -9   7   0-40.7172 214.290   2
   9  -7   0-1253.71 1521.92   3
 -10   7   0 3367.14 1502.47   2
  10  -7   0 2832.25 1424.62   3
 -11   7   0-337.700 546.586   2
  11  -7   0-21.4710 228.745   3
 -12   7   0 1022.38 665.307   2
  12  -7   0 210.536 553.173   3
 -13   7   0 2.13597 661.312   2
  13  -7   0 482.395 797.431   3
  14  -7   0 2546.50 1825.12   3
  15  -7   0 1219.35 1571.60   3
   0   7   1-263.497 341.323   2
   0   7  -1-704.879 738.120   2
  -1   7  -1 3750.89 1336.78   2
   1  -7  -1 2165.73 891.014   3
   1   7   1 4940.08 1694.34   2
  -1   7   1 4543.39 1580.14   2
  -2   7  -1 4910.46 1573.39   2
   2   7   1 5676.74 1826.42   2
   2  -7  -1 4865.67 1503.94   3
  -2   7   1 5135.67 1586.64   2
   3   7   1 786.089 699.488   2
  -3   7  -1-408.000 751.588   2
   3  -7  -1 278.804 486.932   3
  -3   7   1-440.606 611.091   2
   4   7   1 4262.74 1497.20   2
  -4   7  -1 5988.47 1651.41   2
   4  -7  -1 5149.75 1842.25   3
  -4   7   1 5223.79 1726.44   2
  -5   7  -1 1794.23 950.085   2
   5  -7  -1 2357.41 1426.16   3
  -5   7   1 3.37703 457.575   2
   5  -7   1 1316.29 1041.79   3
  -6   7  -1 1141.69 970.119   2
   6  -7  -1 3197.93 1831.76   3
  -6   7   1 1614.73 1065.58   2
   6  -7   1 1260.19 1177.35   3
  -7   7  -1 711.094 661.484   2
  -7   7   1-261.700 582.574   2
   7  -7   1 1201.29 1057.29   3
  -8   7  -1-157.540 401.240   2
   8  -7  -1 2071.61 1781.30   3
  -8   7   1-168.574 521.835   2
   8  -7   1 1481.89 1262.78   3
  -9   7  -1 2694.66 1317.53   2
   9  -7  -1 1562.59 1665.50   3
  -9   7   1 1746.23 937.632   2
   9  -7   1 3540.03 1914.03   3
 -10   7  -1 741.410 817.942   2
 -10   7   1 578.641 203.748   2
  10  -7   1 2127.32 1667.34   3
 -11   7  -1-406.568 507.405   2
 -11   7   1-569.539 856.571   2
  11  -7   1 1147.33 1580.18   3
 -12   7  -1 1184.52 820.207   2
  12  -7  -1 42.6949 999.267   3
 -12   7   1-36.2734 504.251   2
 -13   7  -1 53.0173 247.231   2
 -13   7   1 562.285 786.990   2
  14  -7  -1-554.563 1112.76   3
 -14   7   1 1199.43 819.521   2
  15  -7   1 3638.28 2447.88   3
   0  -7  -2 1867.64 1496.02   3
   0   7   2-351.106 460.107   2
  -1  -7  -2 4814.66 1785.93   3
   1   7   2 5121.06 1660.49   2
   1  -7  -2 6621.87 2288.11   3
  -1   7   2 4671.05 1566.36   2
   2   7   2 78.8092 238.454   2
  -2   7   2-426.108 536.833   2
   3  -7  -2 947.407 897.785   3
  -3   7   2 1997.52 804.764   2
   4   7   2 2607.77 1272.10   2
   4  -7  -2 864.873 567.284   3
  -4   7   2 1383.87 334.646   2
  -4   7  -2 1355.45 614.979   2
  -5   7  -2-142.086 545.655   2
   5   7   2 229.533 315.999   2
   5  -7  -2-1006.05 999.147   3
  -5   7   2-6.14022 712.785   2
   6   7   2 317.064 464.706   2
  -6   7  -2-62.1871 532.531   2
   6  -7  -2-174.381 754.488   3
  -6   7   2-679.984 956.902   2
  -7   7  -2 7393.68 2056.60   2
   7  -7  -2 7341.16 2364.15   3
  -8   7  -2-232.222 442.309   2
   8  -7  -2 2399.19 1631.97   3
  -9   7  -2 4392.47 1643.44   2
   9  -7  -2 7688.44 3079.90   3
 -10   7  -2 1413.29 749.571   2
  10  -7  -2 3665.83 2373.33   3
 -11   7  -2 1712.28 913.374   2
  11  -7  -2 5773.85 3089.01   3
 -12   7  -2-1315.40 1056.10   2
  12  -7  -2 1640.72 189.223   3
  13  -7  -2-2651.77 2418.56   3
  14  -7  -2-2728.75 2210.83   3
 -15   7   2 921.984 831.103   2
   0   7   3 14.3545 128.642   2
   0  -7  -3-25.2045 555.646   3
   1  -7  -3 8685.25 2632.84   3
  -1   7   3 8347.12 2253.38   2
  -1  -7  -3 6187.61 2006.10   3
   1   7   3 9422.42 2258.79   2
   2  -7  -3 2191.13 1569.34   3
   2   7   3 1726.67 960.477   2
  -2   7   3-326.439 1248.02   2
  -2  -7  -3-696.095 1143.98   3
   3  -7  -3 2172.63 1865.80   3
   3   7   3 709.010 421.441   2
   4  -7  -3 2573.80 1842.12   3
   4   7   3 673.622 742.607   2
   5  -7  -3-1799.80 1935.78   3
   5   7   3 781.054 835.288   2
   6   7   3 197.732 448.616   2
   6  -7  -3-3022.08 2339.20   3
   7   7   3 1021.43 743.502   2
   7  -7  -3-1254.63 1908.50   3
   8  -7  -3-1238.01 1652.45   3
   9  -7  -3 3062.54 1815.44   3
  10  -7  -3 1935.69 1658.65   3
  11  -7  -3 4341.45 2449.57   3
 -11   7  -3-1576.06 1899.07   1
  12  -7  -3 3469.21 2499.71   3
 -12   7  -3-3611.52 2631.49   1
  13  -7  -3 4996.70 2995.97   3
 -13   7  -3-3248.61 2665.40   1
   0   7   4-1875.25 1419.93   2
   0  -7  -4-2836.20 2059.38   3
   1   7   4 1713.94 717.600   2
  -1  -7  -4 229.603 1810.75   3
   1  -7  -4 1107.29 435.992   3
   2   7   4 387.342 584.347   2
   2  -7  -4 240.617 574.683   3
   3  -7  -4 1994.07 1713.22   3
   3   7   4 40.7153 543.188   2
  -3  -7  -4 1946.74 1887.39   3
   4  -7  -4 5112.24 2728.54   3
   4   7   4 4209.73 1483.69   2
  -4  -7  -4 4433.76 2321.47   3
   5  -7  -4 2531.32 2123.49   3
   5   7   4 679.161 725.366   2
   6  -7  -4 4031.99 2601.23   3
   6   7   4 1584.92 973.518   2
   7   7   4 1549.54 866.937   2
   7  -7  -4-3055.82 2622.34   3
   8  -7  -4-3291.32 2320.27   3
   9  -7  -4-256.854 1090.04   3
  10  -7  -4-998.356 1564.43   3
 -10   7  -4-2581.92 2403.42   1
  11  -7  -4 618.354 991.667   3
  12  -7  -4 1279.14 1800.51   3
 -12   7  -4-6414.79 3428.98   1
 -13   7  -4-6111.75 3263.38   1
   0  -7  -5-2972.61 2552.69   3
  -1  -7  -5 3050.60 2417.72   3
   1  -7  -5-2924.96 2504.63   3
   2   7   5 3049.19 1150.53   2
  -2  -7  -5 7256.64 3050.07   3
   2  -7  -5 3545.22 2065.16   3
   3   7   5 718.361 686.198   2
  -3  -7  -5 2297.21 2144.26   3
   3  -7  -5-393.950 1097.08   3
   4  -7  -5 1002.42 1315.34   3
   4   7   5 1508.70 909.401   2
  -4  -7  -5 1935.88 1801.10   3
   5  -7  -5 1149.42 1644.45   3
   5   7   5 550.456 677.844   2
  -5  -7  -5-567.143 1112.93   3
   6  -7  -5 2935.36 2372.77   3
   6   7   5 1487.53 877.584   2
   7  -7  -5 4946.76 2885.61   3
   9  -7  -5-2520.39 2554.17   3
  10  -7  -5-1844.88 1976.24   3
  11  -7  -5-1195.85 1861.41   3
 -11   7  -5-7165.52 3714.97   1
   0  -7  -6 1348.34 1389.69   3
  -1  -7  -6 2308.69 2431.28   3
   1  -7  -6-3043.18 2598.19   3
  -2  -7  -6 2715.25 2297.25   3
   2  -7  -6 362.162 856.957   3
   3   7   6 218.631 738.303   2
  -3  -7  -6 2524.76 2201.13   3
   3  -7  -6-393.707 925.061   3
   4   7   6 3705.66 1540.50   2
  -4  -7  -6 5366.96 2941.79   3
   4  -7  -6 5274.99 2793.02   3
   5  -7  -6 899.874 1705.85   3
   5   7   6-207.128 438.801   2
  -5  -7  -6 1013.53 1309.92   3
   6  -7  -6 2649.29 2404.65   3
   7  -7  -6 3088.61 2548.77   3
   8  -7  -6 3840.39 2694.72   3
   9  -7  -6-5648.48 3300.59   3
   0  -7  -7 3620.98 3064.22   3
  -1  -7  -7 4035.52 3002.14   3
   1  -7  -7-471.173 1839.67   3
  -2  -7  -7 1907.18 2222.07   3
   2  -7  -7-1603.63 1958.52   3
  -3  -7  -7 1064.70 1382.53   3
   3  -7  -7-1842.12 2027.70   3
  -4  -7  -7 687.367 1462.37   3
   4  -7  -7 693.060 854.456   3
  -5  -7  -7 86.1405 385.572   3
   5  -7  -7-269.942 1140.20   3
   6  -7  -7 139.353 454.949   3
  -6  -7  -7-801.333 1507.37   3
   0  -7  -8 3516.41 3292.85   3
  -1  -7  -8 3219.29 2857.53   3
   1  -7  -8-3423.51 2824.92   3
  -2  -7  -8 1101.87 1666.87   3
  -3  -7  -8 2303.29 2446.72   3
  -4  -7  -8 1350.73 1455.44   3
   0   8   0 22968.1 3999.69   2
   1   8   0 1710.16 1359.43   2
  -1   8   0 1916.65 1345.40   2
  -2   8   0 691.929 1051.04   2
   2   8   0 459.691 846.206   2
  -3   8   0 629.302 920.306   2
  -4   8   0 264.189 763.289   2
  -5   8   0 383.404 492.658   2
  -6   8   0 3579.62 1687.36   2
  -7   8   0 849.740 789.515   2
  -8   8   0 1157.69 1040.18   2
  -9   8   0 1373.97 1134.74   2
 -10   8   0 2939.81 1698.81   2
 -11   8   0 974.034 923.712   2
 -12   8   0 1502.22 1246.11   2
 -13   8   0-196.953 562.653   2
   0   8   1 1102.81 1321.80   2
   1   8   1 1607.04 1280.76   2
  -1   8   1 1025.54 991.816   2
  -1   8  -1 969.840 1028.57   2
  -2   8  -1 1131.94 1077.49   2
   2   8   1 2146.38 1440.22   2
  -2   8   1 705.961 698.458   2
   3   8   1 349.426 354.834   2
  -3   8  -1 1040.57 1095.68   2
  -3   8   1-920.674 1014.23   2
  -4   8  -1-656.947 782.351   2
  -4   8   1 29.8971 611.732   2
   4   8   1 96.9217 163.229   2
  -5   8  -1 346.641 333.080   2
  -5   8   1 1155.14 1057.96   2
  -6   8  -1 1152.63 1147.76   2
  -6   8   1 1113.89 852.328   2
  -7   8  -1 374.644 466.570   2
  -7   8   1 882.725 978.308   2
  -8   8  -1 2031.44 1275.91   2
  -8   8   1 1169.99 823.142   2
  -9   8  -1-810.779 599.769   2
  -9   8   1 683.679 871.159   2
   9  -8  -1-1613.94 1822.51   3
 -10   8  -1 383.819 147.743   2
 -10   8   1 434.202 889.427   2
 -11   8  -1 118.201 350.547   2
 -11   8   1 715.505 887.674   2
  11  -8  -1-1232.19 1616.97   3
 -12   8  -1-1224.79 904.056   2
 -12   8   1-30.5177 303.798   2
  12  -8  -1-790.302 1215.16   3
  13  -8  -1-545.611 765.419   3
   0   8   2 1664.72 1124.00   2
   1   8   2 803.549 751.099   2
  -1   8   2 757.556 548.711   2
   2   8   2 637.407 901.252   2
  -2   8   2-141.182 705.898   2
   3   8   2 4453.76 1886.26   2
  -3   8   2 3780.23 1551.31   2
   4   8   2 244.001 769.320   2
  -4   8   2-374.684 694.958   2
   5   8   2 704.333 816.594   2
  -5   8   2-487.252 831.357   2
  -6   8   2-1335.04 1207.88   2
   7  -8  -2 2056.32 1721.92   3
  -7   8   2 731.277 494.207   2
  -7   8  -2 752.048 359.887   2
   8  -8  -2 2249.89 1935.49   3
  -8   8   2-1778.93 1354.66   2
  -8   8  -2-386.916 913.412   2
  -9   8   2-106.530 541.318   2
  -9   8  -2-849.033 833.452   2
 -10   8   2-353.489 483.669   2
 -10   8  -2-1177.68 1077.73   2
  11  -8  -2-2328.53 2251.16   3
 -11   8   2 324.382 432.436   2
 -11   8  -2-145.180 793.963   2
  12  -8  -2-4069.12 2937.26   3
   0   8   3-819.126 793.414   2
   1   8   3-74.5752 685.351   2
  -1   8   3-43.9739 655.330   2
   2   8   3 157.525 360.379   2
  -2   8   3-231.586 574.345   2
   3   8   3 611.536 826.087   2
  -3   8   3-1904.06 1624.09   2
   4   8   3 1190.02 922.492   2
  -4   8   3-1898.81 1749.53   2
   5   8   3 2803.04 1431.14   2
   5  -8  -3 2125.82 973.563   3
  -5   8   3 1416.68 797.269   2
   6   8   3 351.632 534.376   2
   6  -8  -3-1257.32 1276.98   3
   7  -8  -3 421.838 817.608   3
  -7   8   3-826.976 1393.15   2
   8  -8  -3 949.694 1250.10   3
  -8   8   3-1197.18 1527.06   2
   9  -8  -3 1267.01 1454.88   3
  -9   8   3-2022.17 1739.82   2
  10  -8  -3 3372.79 2397.10   3
  11  -8  -3 4712.84 2710.62   3
   0   8   4 1505.98 730.271   2
   1   8   4-239.752 701.901   2
  -1   8   4-1411.09 1309.78   2
   2   8   4 384.536 714.779   2
  -2   8   4-2159.23 2007.02   2
   3   8   4 1934.74 1218.73   2
  -3   8   4-833.886 1206.32   2
   4  -8  -4 3774.68 2553.77   3
   4   8   4 676.663 753.318   2
   5  -8  -4-4380.31 2677.01   3
   5   8   4-189.233 314.053   2
   6   8   4 543.557 869.750   2
   6  -8  -4-1546.23 2078.69   3
   7   8   4 885.912 651.638   2
   7  -8  -4-2538.78 1825.49   3
   8  -8  -4 896.678 659.958   3
   9  -8  -4 1224.05 1374.46   3
  10  -8  -4 134.149 742.784   3
   0   8   5-1599.51 1510.30   2
   1   8   5-1571.03 1525.96   2
  -1   8   5-3477.05 2069.72   2
   2  -8  -5 1528.54 1730.25   3
   2   8   5 1040.70 749.809   2
   3  -8  -5 2609.61 2172.82   3
   3   8   5-822.664 814.327   2
   4  -8  -5 2367.72 2018.91   3
   4   8   5-562.741 763.821   2
   5  -8  -5 5388.96 3068.38   3
   5   8   5 303.106 881.194   2
   6  -8  -5-2274.14 1611.83   3
   7  -8  -5-4737.10 2927.24   3
   8  -8  -5-2250.66 2250.85   3
   9  -8  -5-2456.00 1896.27   3
   0   8   6-2856.52 2054.52   2
   1   8   6-2631.70 1859.81   2
   2   8   6-1343.77 1047.32   2
   2  -8  -6 285.472 1035.79   3
   3  -8  -6 1392.90 1512.77   3
   3   8   6-185.071 618.546   2
   4  -8  -6 2819.90 2461.52   3
   4   8   6 183.868 642.075   2
   5  -8  -6 2927.44 2549.14   3
   6  -8  -6 2489.73 2506.33   3
   1  -8  -7-1454.11 2101.35   3
   2   8   7-687.542 1315.16   2
   2  -8  -7-808.819 1461.42   3
   3  -8  -7-0.21938 732.037   3
   0   9   0 598.544 899.111   2
  -1   9   0 622.331 883.411   2
  -2   9   0 1227.81 1072.90   2
  -3   9   0 150.455 278.863   2
  -4   9   0 1455.17 1329.00   2
  -5   9   0 1326.45 1402.45   2
  -6   9   0 912.871 1009.45   2
  -7   9   0 901.185 1369.84   2
  -8   9   0 505.441 835.562   2
   0   9   1 980.439 1325.58   2
   1   9   1 1482.49 1289.93   2
  -1   9   1 2613.25 1618.40   2
   2   9   1 1202.79 1253.78   2
  -2   9   1 793.212 1036.93   2
  -3   9   1 2576.84 1726.20   2
  -3   9  -1 275.286 788.451   2
  -4   9   1 982.178 1211.90   2
  -4   9  -1 609.498 736.881   2
  -5   9  -1 750.391 753.496   2
  -5   9   1 83.9861 304.654   2
  -6   9  -1-613.850 475.845   2
  -6   9   1 1233.08 1171.31   2
  -7   9  -1-490.651 534.205   2
  -7   9   1 385.616 527.743   2
  -8   9  -1 12.1209 461.575   2
  -8   9   1 692.970 743.991   2
  -9   9  -1 145.710 470.768   2
   0   9   2 489.647 994.285   2
   1   9   2 1532.13 1408.27   2
  -1   9   2 1236.20 1362.07   2
   2   9   2 1187.96 1156.02   2
  -2   9   2 842.228 1082.03   2
   3   9   2 1019.88 1283.02   2
  -3   9   2 617.999 861.212   2
   4   9   2 711.356 1025.44   2
  -4   9   2-1168.85 1019.09   2
  -5   9   2 395.551 597.467   2
  -6   9   2-497.216 787.477   2
   0   9   3 596.249 1063.78   2
   1   9   3 851.181 1004.85   2
  -1   9   3 1266.87 984.831   2
   2   9   3 2076.20 1671.14   2
  -2   9   3 418.176 537.426   2
   3   9   3 1045.28 1112.30   2
  -3   9   3-724.129 1307.44   2
   4   9   3 452.507 903.739   2
  -4   9   3-212.719 746.036   2
   5   9   3 289.344 825.088   2
  -5   9   3-5.62234 535.730   2
   0   9   4-122.313 707.586   2
   1   9   4 494.802 585.568   2
  -1   9   4-179.399 935.227   2
   2   9   4 611.849 917.480   2
  -2   9   4-415.323 820.355   2
   3   9   4-90.2024 710.021   2
   4   9   4 1127.07 1140.32   2
   5   9   4 905.821 1007.93   2
   6   9   4 59.6110 196.521   2
   2   9   5 767.156 1066.27   2
   3   9   5 706.596 983.122   2
   4   9   5 1103.35 1167.07   2
   0   0   0    0.00    0.00   0
TITL DMP4_test6 in Pnma
REM Pnma (#62, found as Pmcn in cab setting)
CELL 0.71073  14.177542   6.918683   7.640693  90.0000  90.0000  90.0000
ZERR    4.00   0.002905   0.001751   0.001152   0.0000   0.0000   0.0000
LATT  1
SYMM -x+1/2,-y, z+1/2
SYMM -x, y+1/2,-z
SYMM  x+1/2,-y+1/2,-z+1/2
SFAC C H O
UNIT 24.00 48.00 24.00
TREF
HKLF 4
END
;
_shelx_hkl_checksum              46828
_shelx_res_file
;
  TITL DMP4_test6 in Pnma
CELL  0.71073  14.1780   6.9190   7.6410   90.000   90.000   90.000
ZERR     8.00   0.0050   0.0050   0.0050    0.005    0.005    0.005
LATT   1
SYMM  1/2 - X, - Y, 1/2 + Z
SYMM  1/2 + X, 1/2 - Y, 1/2 - Z
SYMM  - X, 1/2 + Y, - Z
SFAC  C    H    N    BR
UNIT  24   20   4    8
MERG   2
FMAP   2
PLAN   25
ACTA
LIST   4
L.S.   4
WGHT    0.034700    0.097900
FVAR       5.95132
BR3   4    1.210256    0.250000    0.845568    10.50000    0.03585    0.08974 =
         0.04320    0.00000    0.00612    0.00000
BR5   4    0.910808    0.250000    1.353260    10.50000    0.04478    0.09120 =
         0.03606    0.00000    0.00691    0.00000
N1    3    0.921462    0.250000    0.820588    10.50000    0.05054    0.06672 =
         0.02369    0.00000   -0.00579    0.00000
C4    1    1.058228    0.250000    1.089821    10.50000    0.03375    0.05051 =
         0.02508    0.00000   -0.00527    0.00000
C41   1    1.128444    0.250000    1.240572    10.50000    0.03203    0.07528 =
         0.03280    0.00000   -0.01113    0.00000
AFIX  33
H41A  2    1.094903    0.250000    1.349713    10.50000   -1.50000
H41B  2    1.167353    0.363288    1.233531    10.50000   -1.50000
H41C  2    1.167352    0.136712    1.233531    10.50000   -1.50000
AFIX   0
C5    1    0.960103    0.250000    1.122644    10.50000    0.02987    0.04725 =
         0.03364    0.00000   -0.00325    0.00000
C6    1    0.896781    0.250000    0.985476    10.50000    0.03754    0.05801 =
         0.04712    0.00000   -0.01674    0.00000
AFIX  43
H6    2    0.832749    0.250000    1.011883    10.50000   -1.20000
AFIX   0
C2    1    1.014470    0.250000    0.788023    10.50000    0.04126    0.05203 =
         0.02996    0.00000    0.00123    0.00000
AFIX  43
H2    2    1.034392    0.250000    0.672061    10.50000   -1.20000
AFIX   0
C3    1    1.081127    0.250000    0.916317    10.50000    0.02635    0.04358 =
         0.03344    0.00000    0.00859    0.00000
HKLF 4
REM  DMP4_test6 in Pnma
REM R1 =  0.0511 for    650 Fo > 4sig(Fo)  and  0.1220 for all   1289 data
REM     55 parameters refined using      0 restraints
END
WGHT      0.0347      0.0979
REM Highest difference peak  0.716,  deepest hole -0.830,  1-sigma level  0.132
Q1    1   1.1394  0.2500  0.8655  10.50000  0.05    0.64
Q2    1   0.8061  0.2500  1.2255  10.50000  0.05    0.56
Q3    1   0.8414  0.2500  1.3215  10.50000  0.05    0.50
Q4    1   1.2775  0.2500  0.8648  10.50000  0.05    0.50
Q5    1   0.8172  0.2500  0.7726  10.50000  0.05    0.48
Q6    1   1.0774  0.2500  1.1485  10.50000  0.05    0.47
Q7    1   0.9783  0.2500  1.3487  10.50000  0.05    0.46
Q8    1   0.8451  0.2500  1.3944  10.50000  0.05    0.45
Q9    1   0.8202  0.2500  1.5042  10.50000  0.05    0.44
Q10   1   1.0181  0.2500  1.1472  10.50000  0.05    0.42
Q11   1   1.1040  0.1538  1.3347  11.00000  0.05    0.42
Q12   1   1.0682  0.0733  1.3617  11.00000  0.05    0.40
Q13   1   1.0756  0.2500  0.7760  10.50000  0.05    0.38
Q14   1   0.8116  0.2500  1.0561  10.50000  0.05    0.38
Q15   1   1.0800  0.2500  1.4948  10.50000  0.05    0.37
Q16   1   0.9019  0.1691  0.6884  11.00000  0.05    0.36
Q17   1   1.0973  0.1175  1.2579  11.00000  0.05    0.36
Q18   1   0.9367  0.2118  0.7655  11.00000  0.05    0.34
Q19   1   1.2625  0.0832  1.1332  11.00000  0.05    0.33
Q20   1   0.9156  0.1104  1.1366  11.00000  0.05    0.33
Q21   1   1.2304  0.2500  0.9965  10.50000  0.05    0.33
Q22   1   1.1458  0.1937  0.7856  11.00000  0.05    0.33
Q23   1   1.1669  0.2500  0.6473  10.50000  0.05    0.33
Q24   1   0.9196  0.1680  1.0493  11.00000  0.05    0.33
Q25   1   0.8982  0.2500  1.1977  10.50000  0.05    0.32
;
_shelx_res_checksum              28893
_shelxl_version_number           2014/6
loop_
_symmetry_equiv_pos_as_xyz
'x, y, z'
'-x+1/2, -y, z+1/2'
'x+1/2, -y+1/2, -z+1/2'
'-x, y+1/2, -z'
'-x, -y, -z'
'x-1/2, y, -z-1/2'
'-x-1/2, y-1/2, z-1/2'
'x, -y-1/2, z'
loop_
_atom_site_type_symbol
_atom_site_label
_atom_site_fract_x
_atom_site_fract_y
_atom_site_fract_z
_atom_site_U_iso_or_equiv
_atom_site_adp_type
_atom_site_calc_flag
_atom_site_refinement_flags
_atom_site_occupancy
Br Br3 1.21026(6) 0.25 0.84557(11) 0.0563(3) Uani d S 1
Br Br5 0.91081(6) 0.25 1.35326(10) 0.0573(3) Uani d S 1
N N1 0.9215(5) 0.25 0.8206(8) 0.0470(16) Uani d S 1
C C4 1.0582(5) 0.25 1.0898(9) 0.0364(15) Uani d S 1
C C41 1.1284(5) 0.25 1.2406(9) 0.0467(18) Uani d S 1
H H41A 1.0949 0.25 1.3497 0.07 Uiso calc SR 1
H H41B 1.1674 0.3633 1.2335 0.07 Uiso calc PR 0.5
H H41C 1.1674 0.1367 1.2335 0.07 Uiso calc PR 0.5
C C5 0.9601(5) 0.25 1.1226(9) 0.0369(16) Uani d S 1
C C6 0.8968(5) 0.25 0.9855(11) 0.0476(19) Uani d S 1
H H6 0.8327 0.25 1.0119 0.057 Uiso calc SR 1
C C2 1.0145(5) 0.25 0.7880(9) 0.0411(16) Uani d S 1
H H2 1.0344 0.25 0.6721 0.049 Uiso calc SR 1
C C3 1.0811(5) 0.25 0.9163(9) 0.0345(15) Uani d S 1
loop_
_atom_site_aniso_label
_atom_site_aniso_U_11
_atom_site_aniso_U_22
_atom_site_aniso_U_33
_atom_site_aniso_U_12
_atom_site_aniso_U_13
_atom_site_aniso_U_23
Br3 0.0359(5) 0.0897(6) 0.0432(5) 0 0.0061(4) 0
Br5 0.0448(5) 0.0912(6) 0.0361(4) 0 0.0069(4) 0
N1 0.051(4) 0.067(4) 0.024(3) 0 -0.006(3) 0
C4 0.034(4) 0.051(4) 0.025(3) 0 -0.005(3) 0
C41 0.032(4) 0.075(5) 0.033(3) 0 -0.011(3) 0
C5 0.030(4) 0.047(4) 0.034(3) 0 -0.003(3) 0
C6 0.038(4) 0.058(4) 0.047(4) 0 -0.017(4) 0
C2 0.041(4) 0.052(4) 0.030(3) 0 0.001(3) 0
C3 0.026(4) 0.044(3) 0.033(4) 0 0.009(3) 0
loop_
_atom_type_symbol
_atom_type_description
_atom_type_scat_dispersion_real
_atom_type_scat_dispersion_imag
_atom_type_scat_source
C C 0.0033 0.0016 'International Tables Vol C Tables 4.2.6.8 and 6.1.1.4'
H H 0 0 'International Tables Vol C Tables 4.2.6.8 and 6.1.1.4'
N N 0.0061 0.0033 'International Tables Vol C Tables 4.2.6.8 and 6.1.1.4'
Br Br -0.2901 2.4595 'International Tables Vol C Tables 4.2.6.8 and 6.1.1.4'
loop_
_geom_angle_atom_site_label_1
_geom_angle_atom_site_label_2
_geom_angle_atom_site_label_3
_geom_angle
C6 N1 C2 116.2(6)
C3 C4 C5 114.0(6)
C3 C4 C41 125.4(7)
C5 C4 C41 120.6(7)
C6 C5 C4 120.4(7)
C6 C5 Br5 117.8(6)
C4 C5 Br5 121.9(5)
N1 C6 C5 123.9(7)
N1 C2 C3 123.3(7)
C2 C3 C4 122.3(7)
C2 C3 Br3 117.5(6)
C4 C3 Br3 120.2(6)
loop_
_geom_bond_atom_site_label_1
_geom_bond_atom_site_label_2
_geom_bond_distance
Br3 C3 1.909(7)
Br5 C5 1.896(7)
N1 C6 1.308(9)
N1 C2 1.342(9)
C4 C3 1.365(8)
C4 C5 1.414(9)
C4 C41 1.522(9)
C5 C6 1.380(9)
C2 C3 1.362(10)
loop_
_geom_torsion_atom_site_label_1
_geom_torsion_atom_site_label_2
_geom_torsion_atom_site_label_3
_geom_torsion_atom_site_label_4
_geom_torsion
_geom_torsion_publ_flag
C6 N1 C2 C3 0.00 no
C2 N1 C6 C5 0.00 no
N1 C2 C3 Br3 180.00 no
N1 C2 C3 C4 0.00 no
Br3 C3 C4 C5 180.00 no
Br3 C3 C4 C41 0.00 no
C2 C3 C4 C5 0.00 no
C2 C3 C4 C41 180.00 no
C3 C4 C5 Br5 180.00 no
C3 C4 C5 C6 0.00 no
C41 C4 C5 Br5 0.00 no
C41 C4 C5 C6 180.00 no
Br5 C5 C6 N1 180.00 no
C4 C5 C6 N1 0.00 no

_cod_database_fobs_code 1543418
