#------------------------------------------------------------------------------
#$Date: 2016-08-13 04:39:51 +0300 (Sat, 13 Aug 2016) $
#$Revision: 185793 $
#$URL: file:///home/coder/svn-repositories/cod/cif/1/54/38/1543889.cif $
#------------------------------------------------------------------------------
#
# This file is available in the Crystallography Open Database (COD),
# http://www.crystallography.net/. The original data for this entry
# were provided by IUCr Journals, http://journals.iucr.org/.
#
# The file may be used within the scientific community so long as
# proper attribution is given to the journal article from which the
# data were obtained.
#
data_1543889
loop_
_publ_author_name
'Loganathan, C.'
'Ananad, S. Athavan Alias'
'Alphonsa, A. Therasa'
'Kabilan, S.'
'Selvanayagam, S.'
_publ_section_title
;
 4-Chloro-<i>N</i>-(isoquinolin-3-yl)butanamide
;
_journal_coeditor_code           BT4019
_journal_issue                   8
_journal_name_full               IUCrData
_journal_page_first              x161290
_journal_paper_doi               10.1107/S2414314616012906
_journal_volume                  1
_journal_year                    2016
_chemical_formula_iupac          'C13 H13 Cl N2 O'
_chemical_formula_moiety         'C13 H13 Cl N2 O'
_chemical_formula_sum            'C13 H13 Cl N2 O'
_chemical_formula_weight         248.70
_chemical_name_systematic
;
4-Chloro-<i>N</i>-(isoquinolin-3-yl)butanamide
;
_space_group_crystal_system      triclinic
_space_group_IT_number           2
_space_group_name_Hall           '-P 1'
_space_group_name_H-M_alt        'P -1'
_symmetry_space_group_name_Hall  '-P 1'
_symmetry_space_group_name_H-M   'P -1'
_atom_sites_solution_hydrogens   geom
_audit_creation_method           SHELXL-2014/7
_cell_angle_alpha                78.591(9)
_cell_angle_beta                 80.188(7)
_cell_angle_gamma                74.418(10)
_cell_formula_units_Z            2
_cell_length_a                   5.263(3)
_cell_length_b                   9.782(5)
_cell_length_c                   12.795(6)
_cell_measurement_reflns_used    2288
_cell_measurement_temperature    293(2)
_cell_measurement_theta_max      26.8
_cell_measurement_theta_min      3.2
_cell_volume                     617.2(6)
_computing_cell_refinement
;
<i>CrystalClear SM-Expert</i> (Rigaku, 2011)
;
_computing_data_collection
;
<i>CrystalClear SM-Expert</i> (Rigaku, 2011)
;
_computing_data_reduction
;
<i>CrystalClear SM-Expert</i> (Rigaku, 2011)
;
_computing_molecular_graphics
;
ORTEP-3 for Windows (Farrugia, 2012) and PLATON (Spek, 2009)
;
_computing_publication_material
;
SHELXL2014 (Sheldrick, 2015) and PLATON (Spek, 2009)
;
_computing_structure_refinement
;
SHELXL2014 (Sheldrick, 2015)
;
_computing_structure_solution
;
SHELXS97 (Sheldrick, 2008)
;
_diffrn_ambient_temperature      293(2)
_diffrn_measured_fraction_theta_full 0.989
_diffrn_measured_fraction_theta_max 0.960
_diffrn_measurement_device_type  'Rigaku Saturn724+ area-dectector'
_diffrn_measurement_method       '\w scans'
_diffrn_radiation_source         'fine-focus sealed tube'
_diffrn_radiation_type           MoK\a
_diffrn_radiation_wavelength     0.71073
_diffrn_reflns_av_R_equivalents  0.1240
_diffrn_reflns_limit_h_max       6
_diffrn_reflns_limit_h_min       -6
_diffrn_reflns_limit_k_max       8
_diffrn_reflns_limit_k_min       -12
_diffrn_reflns_limit_l_max       11
_diffrn_reflns_limit_l_min       -16
_diffrn_reflns_number            3534
_diffrn_reflns_theta_full        25.242
_diffrn_reflns_theta_max         27.646
_diffrn_reflns_theta_min         3.274
_exptl_absorpt_coefficient_mu    0.294
_exptl_absorpt_correction_type   none
_exptl_crystal_colour            Colourless
_exptl_crystal_density_diffrn    1.338
_exptl_crystal_description       Prism
_exptl_crystal_F_000             260
_exptl_crystal_size_max          0.40
_exptl_crystal_size_mid          0.20
_exptl_crystal_size_min          0.20
_refine_diff_density_max         0.201
_refine_diff_density_min         -0.513
_refine_ls_extinction_method     none
_refine_ls_goodness_of_fit_ref   1.011
_refine_ls_hydrogen_treatment    constr
_refine_ls_matrix_type           full
_refine_ls_number_parameters     154
_refine_ls_number_reflns         2746
_refine_ls_number_restraints     0
_refine_ls_restrained_S_all      1.011
_refine_ls_R_factor_all          0.1134
_refine_ls_R_factor_gt           0.0688
_refine_ls_shift/su_max          0.000
_refine_ls_shift/su_mean         0.000
_refine_ls_structure_factor_coef Fsqd
_refine_ls_weighting_details
'w=1/[\s^2^(Fo^2^)+(0.1016P)^2^] where P=(Fo^2^+2Fc^2^)/3'
_refine_ls_weighting_scheme      calc
_refine_ls_wR_factor_gt          0.1786
_refine_ls_wR_factor_ref         0.2273
_reflns_number_gt                1546
_reflns_number_total             2746
_reflns_threshold_expression     'I > 2\s(I)'
_cod_data_source_file            bt4019sup1.cif
_cod_data_source_block           I
_cod_original_cell_volume        617.2(5)
_cod_database_code               1543889
_shelx_space_group_comment
;
The symmetry employed for this shelxl refinement is uniquely defined
by the following loop, which should always be used as a source of
symmetry information in preference to the above space-group names.
They are only intended as comments.
;
_shelx_hkl_file
;
   0   0   255357.05  505.47   1-0.00804-0.00638-0.99061 0.96886-0.13644 0.24752
   0   0  -257454.24  521.25   1 0.39546-0.38057-0.90028 0.92204-0.18194 0.07070
   0   0  -245824.76  652.91   1-0.21095 0.22558-0.93810 0.96048-0.27470 0.16303
   0   0   3 9978.93  162.39   1-0.11189 0.09025-0.98647 0.95383-0.11981 0.28643
   0   0  -310604.38  169.80   1 0.48854-0.46621-0.85174 0.88438-0.18936 0.02250
   0   0  -3 8421.97  290.65   1-0.21390 0.23584-0.92875 0.96233-0.30273 0.13523
   0   0  -461882.71  626.98   1 0.57918-0.54941-0.79156 0.83509-0.19483-0.02764
   0   0  -452459.03  872.11   1-0.21667 0.24593-0.91857 0.96333-0.33057 0.10723
   0   0  -5  526.91   69.55   1 0.66789-0.63010-0.71747 0.77235-0.19785-0.08020
   0   0  -5  487.05  147.35   1-0.21925 0.25582-0.90752 0.96348-0.35821 0.07904
   0   0  -6 8392.50  204.40   1 0.75247-0.70713-0.62811 0.69396-0.19812-0.13554
   0   0  -6 8146.75  684.49   1-0.22165 0.26553-0.89561 0.96276-0.38566 0.05065
   0   0   7 2552.82  183.11   1-0.81613 0.76498 0.53912-0.61780 0.20800 0.18200
   0   0  -7 3251.94  781.12   1-0.22386 0.27506-0.88283 0.96117-0.41290 0.02206
   0   0   830095.36  535.25   1-0.88525 0.82673 0.41784-0.50860 0.20426 0.24046
   0   0  -924387.29  979.80   1-0.22770 0.29353-0.85455 0.95528-0.46677-0.03572
   0   0 -10 2573.04  540.70   1-0.22932 0.30246-0.83902 0.95094-0.49339-0.06494
   0   0 -11  187.74  179.10   1-0.23074 0.31119-0.82254 0.94564-0.51979-0.09438
   0   0 -1211889.06 1036.94   1-0.23194 0.31971-0.80506 0.93935-0.54596-0.12404
   0   0 -13 1992.11  432.62   1-0.22687 0.32215-0.78919 0.93389-0.57069-0.15509
   0   0 -14  197.23  255.77   1-0.22766 0.33027-0.76970 0.92553-0.59642-0.18520
   0   0 -15 1130.94  490.24   1-0.22823 0.33817-0.74910 0.91606-0.62189-0.21556
   0   0 -16  619.26  415.44   1-0.22855 0.34582-0.72733 0.90542-0.64710-0.24618
   0   1 -15   22.00  273.20   1-0.22857 0.32060-0.69343 0.93458-0.68330-0.15415
   0   1 -14 1360.97  440.70   1-0.22863 0.31333-0.71226 0.94228-0.66363-0.11799
   0   1 -13 2282.47  451.70   1-0.22853 0.30590-0.72968 0.94857-0.64445-0.08133
   0   1 -12 1253.03  442.85   1-0.22830 0.29834-0.74568 0.95344-0.62596-0.04399
   0   1 -11  356.30  209.87   1-0.22796 0.29067-0.76017 0.95680-0.60841-0.00572
   0   1 -1010358.27  667.95   1-0.22755 0.28293-0.77304 0.95854-0.59213 0.03383
   0   1  -9 6802.27  538.76   1-0.22710 0.27516-0.78408 0.95845-0.57760 0.07513
   0  -1   8  324.51   92.46   1-0.98743 0.94714-0.02487-0.13951 0.15604 0.28888
   0   1  -8  340.28  218.30   1-0.22668 0.26740-0.79298 0.95622-0.56549 0.11885
   0  -1   751241.17  681.71   1-0.98345 0.95045 0.06596-0.21903 0.16871 0.22059
   0  -1   654066.69  759.50   1-0.97618 0.95047 0.12630-0.26805 0.17638 0.15731
   0  -1   5 4379.94  230.70   1-0.97056 0.95199 0.15956-0.29013 0.18037 0.09757
   0   1  -5 4183.67  309.98   1-0.22636 0.24510-0.79891 0.92876-0.55721 0.27805
   0  -1   4108430.4 1228.44   1-0.97034 0.95908 0.16078-0.28000 0.18051 0.04184
   0   1  -497442.29 1330.13   1-0.22696 0.23837-0.78711 0.90583-0.57352 0.35020
   0  -1   344666.80  657.73   1-0.97632 0.97238 0.12530-0.23317 0.17630-0.00953
   0   1  -339794.66  710.64   1-0.22801 0.23209-0.75816 0.86575-0.61089 0.44340
   0   1  -2  487.36  107.93   1-0.93217 0.92880 0.30476-0.20822 0.19535-0.30653
   0  -1   2  720.72  139.78   1-0.98522 0.98866 0.04339-0.13989 0.16569-0.05446
   0   1  -2  526.24   87.22   1-0.22854 0.22529-0.68992 0.78638-0.68685 0.57519
   0  -1  -237117.14  477.58   1-0.74483 0.77742-0.66697 0.61540 0.01908-0.12993
   0  -1  -3172403.9 1549.84   1-0.56994 0.61007-0.82114 0.78049-0.02984-0.13648
   0  -1  -3153533.3 1594.14   1-0.15271 0.19339-0.98219 0.94112 0.10942-0.27726
   0  -1  -459230.14  699.91   1-0.37661 0.42409-0.92330 0.89369-0.07532-0.14644
   0  -1  -449976.19  826.23   1-0.17665 0.22469-0.98394 0.95398-0.02522-0.19856
   0  -1  -547422.94  624.97   1-0.16850 0.22312-0.97953 0.96027-0.11010-0.16759
   0  -1  -537743.79  783.08   1-0.19128 0.24669-0.97439 0.95552-0.11815-0.16157
   0  -1  -635763.94  542.21   1 0.03665 0.02657-0.98897 0.98153-0.14347-0.18943
   0  -1  -627765.76  742.63   1-0.20142 0.26419-0.96105 0.95328-0.18922-0.14645
   0  -1  -761763.04  765.58   1 0.22613-0.15549-0.95944 0.96300-0.16831-0.22008
   0  -1  -751892.07 1132.14   1-0.20806 0.27767-0.94600 0.95007-0.24854-0.14229
   0  -1  -8  -12.87   32.77   1 0.41618-0.33827-0.89052 0.90406-0.18373-0.26121
   0  -1  -8   76.24  122.88   1-0.21349 0.29042-0.93013 0.94539-0.29876-0.14790
   0  -1  -9 1815.53  461.23   1-0.21791 0.30215-0.91347 0.93992-0.34362-0.15888
   0  -1 -1018318.79 2347.78   1-0.22157 0.31312-0.89605 0.93370-0.38468-0.17365
   0  -1 -11  501.97  221.67   1-0.22463 0.32350-0.87786 0.92670-0.42294-0.19122
   0  -1 -1213257.04 1972.43   1-0.22719 0.33338-0.85886 0.91888-0.45905-0.21094
   0  -1 -13 4843.31 1118.41   1-0.22933 0.34282-0.83898 0.91020-0.49346-0.23237
   0  -1 -14 2976.76  689.02   1-0.23107 0.35188-0.81817 0.90058-0.52648-0.25518
   0  -1 -15  749.91  515.29   1-0.22634 0.35419-0.79926 0.89203-0.55671-0.28073
   0  -1 -16  271.85  377.84   1-0.22742 0.36259-0.77650 0.88039-0.58764-0.30564
   0   2 -15  535.46  404.55   1-0.22734 0.30146-0.63312 0.94847-0.73990-0.09754
   0   2 -14  504.94  374.78   1-0.22782 0.29461-0.64973 0.95394-0.72521-0.05640
   0   2 -13 5046.13  703.88   1-0.22816 0.28762-0.66455 0.95763-0.71155-0.01424
   0   2 -12 3660.37  569.40   1-0.22839 0.28052-0.67744 0.95940-0.69921 0.02924
   0   2 -11  -39.96  232.18   1-0.22852 0.27332-0.68821 0.95903-0.68857 0.07444
   0   2 -10 8187.81  702.35   1-0.22859 0.26606-0.69653 0.95622-0.68014 0.12183
   0   2  -9  560.60  397.89   1-0.22862 0.25876-0.70192 0.95048-0.67456 0.17208
   0  -2   816660.99  443.36   1-0.96936 0.94680-0.21284-0.02351 0.12260 0.32095
   0   2  -815704.91  738.50   1-0.22862 0.25144-0.70365 0.94109-0.67275 0.22610
   0  -2   7 4427.52  383.28   1-0.97936 0.96438-0.14901-0.07791 0.13655 0.25276
   0   2  -7 3675.24  419.79   1-0.22861 0.24410-0.70057 0.92687-0.67596 0.28514
   0  -2   613476.82  364.02   1-0.98361 0.97592-0.10981-0.10579 0.14298 0.19071
   0   2  -611400.50  557.30   1-0.22854 0.23670-0.69079 0.90596-0.68598 0.35099
   0  -2   5 7753.30  344.58   1-0.98511 0.98471-0.09073-0.11356 0.14602 0.13205
   0   2  -5 6531.49  417.10   1-0.22828 0.22911-0.67109 0.87513-0.70534 0.42619
   0  -2   4111796.7 1545.53   1-0.98503 0.99192-0.09190-0.10107 0.14583 0.07662
   0   2  -498231.25 1431.33   1-0.22742 0.22092-0.63575 0.82866-0.73762 0.51430
   0  -2   3262904.3 2480.27   1-0.98322 0.99741-0.11407-0.06759 0.14229 0.02455
   0   2  -3222439.5 2342.49   1-0.22484 0.21101-0.57401 0.75579-0.78736 0.61987
   0  -2   275235.03 1019.22   1-0.97816 0.99963-0.15795-0.01239 0.13504-0.02381
   0   2  -262125.87  925.36   1-0.21393 0.19206-0.46507 0.63604-0.85903 0.74736
   0  -2   1149713.0 1589.36   1-0.96684 0.99560-0.22346 0.06442 0.12361-0.06800
   0   2  -1110138.8 1250.03   1-0.19436 0.16502-0.27247 0.43231-0.94232 0.88649
   0  -2   010453.18  309.60   1-0.94491 0.98111-0.31024 0.16290 0.10431-0.10431
   0  -2  -1689631.543688.64   1-0.90797 0.95151-0.41060 0.27438 0.08359-0.13903
   0  -2  -285093.35 1024.52   1-0.85191 0.90280-0.52040 0.39531 0.05843-0.16932
   0  -2  -3 5726.34  242.73   1-0.77656 0.83441-0.62934 0.51514 0.02963-0.19591
   0  -2  -4 1457.89  298.96   1-0.67770 0.74288-0.73533 0.63219-0.00158-0.22010
   0  -2  -4 1251.53  352.57   1-0.12118 0.18781-0.95690 0.85257 0.26389-0.48768
   0  -2  -511294.31  346.46   1-0.55625 0.62917-0.83034 0.73801-0.03335-0.24386
   0  -2  -5 9809.19  399.71   1-0.15031 0.22430-0.98107 0.88784 0.12202-0.40176
   0  -2  -682802.82 1087.15   1-0.41948 0.49974-0.90536 0.82407-0.06592-0.26672
   0  -2  -670051.57 1251.81   1-0.17035 0.25171-0.98530 0.90317 0.01204-0.34772
   0  -2  -7 8384.33  318.91   1-0.25983 0.34743-0.96112 0.88997-0.09342-0.29535
   0  -2  -7 6795.83 1000.79   1-0.18491 0.27364-0.97977 0.90873-0.07649-0.31513
   0  -2  -876724.00 1199.09   1-0.09499 0.18980-0.98789 0.92762-0.12262-0.32169
   0  -2  -861029.07 9915.59   1-0.19600 0.29209-0.96899 0.90905-0.15044-0.29713
   0  -2  -9  342.60  110.35   1 0.08602 0.01817-0.98486 0.93697-0.15045-0.34891
   0  -2  -9  581.48  188.54   1-0.20476 0.30821-0.95508 0.90625-0.21419-0.28932
   0  -2 -10  217.46  149.82   1-0.21056 0.32053-0.93925 0.90262-0.27105-0.28728
   0  -2 -11 1862.06  416.67   1-0.21582 0.33310-0.92186 0.89642-0.32184-0.29233
   0  -2 -12  178.21  146.77   1-0.22017 0.34476-0.90318 0.88894-0.36847-0.30152
   0  -2 -13 2629.24  690.79   1-0.22378 0.35569-0.88333 0.88028-0.41186-0.31397
   0  -2 -14 2655.20  726.45   1-0.22676 0.36599-0.86237 0.87051-0.45264-0.32903
   0  -2 -15  170.28  216.31   1-0.22920 0.37574-0.84029 0.85962-0.49129-0.34621
   0  -2 -16   67.50  255.13   1-0.23115 0.38500-0.81707 0.84759-0.52816-0.36517
   0   3 -14  182.94  276.76   1-0.22531 0.27419-0.58326 0.96167-0.78040-0.00121
   0   3 -13  552.25  447.04   1-0.22587 0.26742-0.59523 0.96250-0.77115 0.04535
   0   3 -12  399.30  290.41   1-0.22629 0.26051-0.60477 0.96092-0.76357 0.09360
   0   3 -11  276.83  383.08   1-0.22656 0.25346-0.61156 0.95657-0.75806 0.14392
   0   3 -10 1166.44  381.07   1-0.22670 0.24627-0.61511 0.94900-0.75513 0.19683
   0   3  -9110959.3 2097.39   1-0.22669 0.23892-0.61475 0.93750-0.75544 0.25296
   0  -3   8  196.52   84.62   1-0.94523 0.94077-0.30921-0.00081 0.10451 0.33904
   0   3  -8   95.83  220.29   1-0.22648 0.23139-0.60946 0.92109-0.75977 0.31312
   0  -3   7 2743.44  317.25   1-0.95796 0.96084-0.26358-0.03532 0.11329 0.27482
   0   3  -7 2094.34  381.39   1-0.22598 0.22356-0.59776 0.89826-0.76915 0.37834
   0  -3   6  801.36  208.73   1-0.96529 0.97563-0.23075-0.05871 0.12229 0.21139
   0   3  -6  903.59  258.22   1-0.22502 0.21527-0.57740 0.86677-0.78483 0.44985
   0  -3   518059.80  675.85   1-0.96858 0.98621-0.21490-0.06325 0.12515 0.15292
   0   3  -514504.37  605.77   1-0.21963 0.20178-0.54487 0.82359-0.80924 0.53006
   0  -3   437765.31 1288.20   1-0.96891 0.99383-0.21320-0.05363 0.12545 0.09700
   0   3  -429963.89  861.98   1-0.21623 0.19092-0.49477 0.76235-0.84169 0.61835
   0  -3   3129238.1 1712.15   1-0.96639 0.99860-0.22561-0.02991 0.12323 0.04361
   0   3  -3105092.0 1519.49   1-0.20992 0.17713-0.41884 0.67530-0.88345 0.71595
   0  -3   210151.16  514.64   1-0.96044 0.99994-0.25204 0.00783 0.11839-0.00716
   0   3  -2 7605.96  396.39   1-0.19819 0.15792-0.30513 0.55046-0.93145 0.81978
   0  -3   1140876.3 1634.44   1-0.94978 0.99673-0.29385 0.06171 0.10751-0.05206
   0  -3   0110427.8 1390.85   1-0.93305 0.98734-0.34638 0.12537 0.09707-0.09707
   0  -3  -1  200.55  164.93   1-0.90817 0.96981-0.41013 0.20024 0.08369-0.13913
   0  -3  -2 5938.06  311.49   1-0.87309 0.94207-0.48288 0.28412 0.06735-0.17824
   0  -3  -3278260.6 2737.07   1-0.82590 0.90222-0.56175 0.37412 0.04818-0.21451
   0  -3  -4 2476.82  226.99   1-0.76727 0.85039-0.64076 0.46393 0.02648-0.24818
   0  -3  -5 2440.40  263.75   1-0.69235 0.78279-0.72154 0.55578 0.00275-0.27987
   0  -3  -5 2427.39  710.79   1-0.10806 0.20064-0.94045 0.77285 0.32228-0.60202
   0  -3  -641592.01  810.81   1-0.60253 0.70030-0.79776 0.64306-0.02265-0.30989
   0  -3  -636816.34  892.43   1-0.13616 0.23611-0.97165 0.81515 0.19324-0.52892
   0  -3  -721312.08  589.25   1-0.49553 0.60124-0.86724 0.72322-0.04833-0.33976
   0  -3  -717869.21  851.49   1-0.15736 0.26467-0.98390 0.83850 0.08465-0.47628
   0  -3  -8  389.61  147.94   1-0.37663 0.48969-0.92329 0.79032-0.07531-0.36822
   0  -3  -8  202.85  164.00   1-0.17371 0.28838-0.98476 0.85046-0.00765-0.43992
   0  -3  -941642.52  907.02   1-0.23461 0.35519-0.96712 0.84408-0.09815-0.40169
   0  -3  -933163.66 1069.27   1-0.18662 0.30866-0.97853 0.85533-0.08743-0.41608
   0  -3 -10  515.23  187.78   1-0.08654 0.21434-0.98849 0.87633-0.12401-0.43138
   0  -3 -10  435.95  271.44   1-0.19703 0.32643-0.96764 0.85554-0.15762-0.40185
   0  -3 -11 4221.39 1112.56   1-0.20557 0.34233-0.95350 0.85250-0.22039-0.39502
   0  -3 -12  641.29  200.08   1-0.21124 0.35425-0.93724 0.84873-0.27737-0.39263
   0  -3 -13 1381.62  407.52   1-0.21657 0.36690-0.91895 0.84163-0.32955-0.39628
   0  -3 -14  185.58  144.71   1-0.22100 0.37864-0.89902 0.83288-0.37803-0.40363
   0  -3 -15  968.08  323.44   1-0.22467 0.38962-0.87760 0.82265-0.42347-0.41403
   0  -3 -16 1311.35  507.99   1-0.22768 0.39994-0.85477 0.81102-0.46639-0.42695
   0   4 -14  168.09  278.69   1-0.21763 0.24864-0.51415 0.96740-0.82962 0.04794
   0   4 -13  999.05  418.12   1-0.21825 0.24178-0.52325 0.96537-0.82375 0.09790
   0   4 -12   74.60  249.68   1-0.21866 0.23472-0.52948 0.96047-0.81965 0.14964
   0   4 -11 4042.32  596.73   1-0.21885 0.22744-0.53242 0.95228-0.81769 0.20351
   0   4 -10 2679.45  525.49   1-0.21879 0.21991-0.53151 0.94024-0.81830 0.25995
   0  -4   914478.27  574.72   1-0.90130 0.90760-0.42567 0.03083 0.08030 0.41870
   0   4  -913044.53  856.12   1-0.21843 0.21207-0.52596 0.92355-0.82198 0.31947
   0  -4   8  495.37  247.13   1-0.92209 0.93573-0.37611-0.00758 0.09094 0.35261
   0   4  -8  224.73  310.54   1-0.21766 0.20383-0.51467 0.90113-0.82929 0.38262
   0  -4   761556.74 1225.83   1-0.93559 0.95657-0.33903-0.03354 0.09857 0.28954
   0   4  -749826.41 1409.77   1-0.21633 0.19503-0.49612 0.87145-0.84086 0.45002
   0  -4   615144.45  577.10   1-0.94391 0.97224-0.31347-0.04797 0.10367 0.22899
   0   4  -611918.13  713.36   1-0.21418 0.18540-0.46817 0.83237-0.85728 0.52228
   0  -4   511773.99  505.25   1-0.94831 0.98398-0.29892-0.05139 0.10652 0.17069
   0   4  -5 9624.91  538.80   1-0.21074 0.17449-0.42784 0.78091-0.87894 0.59976
   0  -4   477595.43 1265.92   1-0.94942 0.99244-0.29509-0.04410 0.10727 0.11450
   0   4  -457584.12 1220.86   1-0.20531 0.16158-0.37105 0.71300-0.90562 0.68229
   0  -4   3   27.95  154.36   1-0.94747 0.99783-0.30177-0.02629 0.10597 0.06036
   0   4  -3  -13.87  213.83   1-0.19673 0.14553-0.29251 0.62332-0.93580 0.76830
   0  -4   256950.59 1080.12   1-0.94226 0.99996-0.31876 0.00182 0.10263 0.00825
   0   4  -245325.93 1081.72   1-0.18175 0.12242-0.18616 0.50572-0.96555 0.85396
   0  -4   1 1029.10  213.54   1-0.93328 0.99832-0.34573 0.03992 0.09721-0.04176
   0  -4   041538.26  888.10   1-0.91972 0.99212-0.38217 0.08748 0.08966-0.08966
   0  -4  -1 6819.09  393.72   1-0.90057 0.98031-0.42728 0.14372 0.07994-0.13539
   0  -4  -233975.25  800.94   1-0.87464 0.96172-0.47996 0.20753 0.06803-0.17892
   0  -4  -332771.33  799.47   1-0.84071 0.93513-0.53878 0.27748 0.05393-0.22027
   0  -4  -4106136.8 1580.34   1-0.79947 0.90052-0.59951 0.34898 0.03765-0.25934
   0  -4  -5  398.55  264.90   1-0.74646 0.85483-0.66513 0.42567 0.01961-0.29673
   0  -4  -616034.29  569.92   1-0.68239 0.79809-0.73098 0.50259-0.00020-0.33233
   0  -4  -612996.55  578.38   1-0.10436 0.22289-0.93526 0.70440 0.33820-0.67389
   0  -4  -7   23.88  114.86   1-0.60661 0.72964-0.79470 0.57737-0.02155-0.36641
   0  -4  -7  411.60  134.34   1-0.13004 0.25594-0.96618 0.74642 0.22265-0.61428
   0  -4  -8  190.95  162.02   1-0.51624 0.64740-0.85534 0.64860-0.04332-0.40021
   0  -4  -8   39.90   59.09   1-0.15063 0.28389-0.98123 0.77257 0.12033-0.56791
   0  -4  -9 6646.59  508.64   1-0.41573 0.55424-0.90702 0.71133-0.06676-0.43222
   0  -4  -9 5198.78  982.14   1-0.16726 0.30789-0.98546 0.78789 0.02978-0.53330
   0  -4 -1013510.23  555.04   1-0.30259 0.44844-0.94879 0.76413-0.09074-0.46368
   0  -4 -10 9831.28 1513.80   1-0.18084 0.32883-0.98219 0.79573-0.05086-0.50860
   0  -4 -11  711.43  177.09   1-0.16510 0.31866-0.98004 0.80511-0.11069-0.50023
   0  -4 -11  274.50  147.78   1-0.19206 0.34741-0.97359 0.79823-0.12335-0.49206
   0  -4 -12 3472.32  998.20   1-0.20141 0.36413-0.96106 0.79680-0.18916-0.48219
   0  -4 -13  464.98  393.06   1-0.20814 0.37687-0.94581 0.79421-0.24920-0.47663
   0  -4 -14  291.00  183.17   1-0.21411 0.39017-0.92803 0.78762-0.30480-0.47687
   0  -4 -15  408.01  262.20   1-0.21911 0.40248-0.90817 0.77896-0.35665-0.48086
   0  -4 -16  102.27  158.90   1-0.22326 0.41394-0.88647 0.76844-0.40535-0.48798
   0   5 -13  379.64  268.78   1-0.21260 0.21774-0.44915 0.96562-0.86778 0.14194
   0   5 -12 1306.94  461.95   1-0.21287 0.21054-0.45238 0.95772-0.86604 0.19603
   0   5 -11 3500.16  638.10   1-0.21284 0.20302-0.45194 0.94616-0.86627 0.25210
   0   5 -10 5758.72  744.96   1-0.21244 0.19515-0.44725 0.93033-0.86881 0.31046
   0  -5   9 2272.67  333.51   1-0.87885 0.90324-0.47195 0.00344 0.06988 0.42911
   0   5  -9 1874.90  438.20   1-0.21160 0.18684-0.43750 0.90945-0.87396 0.37145
   0  -5   813497.00  627.29   1-0.89915 0.93089-0.43038-0.02698 0.07926 0.36429
   0   5  -8 8750.16  740.94   1-0.21018 0.17795-0.42166 0.88248-0.88205 0.43537
   0  -5   7 6288.16  555.87   1-0.91305 0.95213-0.39862-0.04762 0.08617 0.30194
   0   5  -7 3939.15  545.48   1-0.20800 0.16829-0.39835 0.84804-0.89333 0.50249
   0  -5   6  125.56  157.55   1-0.92212 0.96854-0.37605-0.05906 0.09095 0.24171
   0   5  -6   91.91  221.11   1-0.20477 0.15759-0.36578 0.80434-0.90789 0.57288
   0  -5   5   60.28  139.21   1-0.92732 0.98109-0.36229-0.06170 0.09381 0.18340
   0   5  -5  420.00  306.11   1-0.20005 0.14539-0.32167 0.74910-0.92547 0.64630
   0  -5   425711.42  817.00   1-0.92923 0.99034-0.35709-0.05576 0.09488 0.12689
   0   5  -418177.75  754.37   1-0.19324 0.13111-0.26322 0.67952-0.94518 0.72184
   0  -5   321189.79  737.15   1-0.92807 0.99653-0.36026-0.04147 0.09423 0.07209
   0   5  -314873.00  695.31   1-0.18192 0.11150-0.18741 0.59239-0.96528 0.79789
   0  -5   2  188.37  210.26   1-0.92383 0.99963-0.37159-0.01901 0.09188 0.01900
   0  -5   1138895.2 1983.46   1-0.91626 0.99941-0.39082 0.01133 0.08783-0.03239
   0  -5   010510.94  522.07   1-0.90491 0.99540-0.41759 0.04923 0.08207-0.08207
   0  -5  -114579.80  612.87   1-0.88919 0.98702-0.45141 0.09418 0.07456-0.13001
   0  -5  -2 3991.18  384.55   1-0.86836 0.97354-0.49161 0.14551 0.06531-0.17620
   0  -5  -3 4861.60  391.89   1-0.84160 0.95413-0.53735 0.20237 0.05429-0.22062
   0  -5  -411831.20  572.63   1-0.80981 0.92879-0.58522 0.26100 0.04139-0.26308
   0  -5  -585831.9013904.29   1-0.76893 0.89524-0.63875 0.32559 0.02704-0.30416
   0  -5  -617218.33  676.18   1-0.71967 0.85331-0.69421 0.39212 0.01109-0.34364
   0  -5  -7 4891.44 1106.60   1-0.66129 0.80226-0.75009 0.45906-0.00635-0.38161
   0  -5  -7 3070.38  484.57   1-0.10580 0.25028-0.93732 0.64320 0.33200-0.72363
   0  -5  -8 6887.83  443.06   1-0.59314 0.74143-0.80470 0.52474-0.02515-0.41823
   0  -5  -8 5462.68 1097.01   1-0.12901 0.28086-0.96518 0.68216 0.22753-0.67510
   0  -5  -9  488.74  198.87   1-0.14838 0.30759-0.98007 0.70815 0.13200-0.63553
   0  -5 -10  817.66  275.78   1-0.42249 0.58644-0.90401 0.64558-0.06525-0.48917
   0  -5 -10   63.51  134.83   1-0.16456 0.33114-0.98533 0.72451 0.04503-0.60450
   0  -5 -11   40.87   77.06   1-0.32135 0.49264-0.94296 0.69557-0.08693-0.52294
   0  -5 -11   57.89   93.53   1-0.17814 0.35208-0.98340 0.73368-0.03425-0.58116
   0  -5 -12  144.71  193.04   1-0.18959 0.37089-0.97603 0.73740-0.10685-0.56451
   0  -5 -13  259.50  147.80   1-0.19929 0.38795-0.96442 0.73689-0.17370-0.55360
   0  -5 -14 6037.96 1858.42   1-0.20651 0.40098-0.94979 0.73511-0.23503-0.54664
   0  -5 -15  -61.60  235.16   1-0.21285 0.41463-0.93225 0.72876-0.29255-0.54495
   0   6 -12 -106.09  280.98   1-0.20568 0.18494-0.37478 0.95448-0.90400 0.23399
   0   6 -11  108.43  302.98   1-0.20535 0.17714-0.37153 0.94010-0.90542 0.29124
   0   6 -10 2125.75  553.97   1-0.20457 0.16887-0.36381 0.92125-0.90872 0.35038
   0  -6   9  292.97  198.65   1-0.85552 0.89801-0.51429-0.02788 0.05991 0.43909
   0   6  -9  475.45  410.48   1-0.20322 0.16005-0.35090 0.89720-0.91409 0.41158
   0  -6   821430.45  835.39   1-0.87563 0.92547-0.47808-0.05296 0.06846 0.37509
   0   6  -815265.67 1161.54   1-0.20117 0.15053-0.33186 0.86704-0.92162 0.47494
   0  -6   7  179.61  141.90   1-0.88992 0.94710-0.44991-0.07000 0.07490 0.31320
   0   6  -7   70.75  259.12   1-0.19824 0.14012-0.30557 0.82961-0.93130 0.54046
   0  -6   6 3217.22  466.15   1-0.89963 0.96415-0.42935-0.07943 0.07949 0.25317
   0   6  -6 3515.23  559.19   1-0.19413 0.12855-0.27062 0.78353-0.94290 0.60789
   0  -6   5  808.42  293.72   1-0.90557 0.97744-0.41610-0.08155 0.08239 0.19482
   0   6  -5  691.17  384.50   1-0.18694 0.11294-0.22570 0.72717-0.95608 0.67709
   0  -6   4  170.80  155.89   1-0.90824 0.98746-0.40996-0.07657 0.08373 0.13804
   0   6  -4   -5.93  198.41   1-0.17931 0.09781-0.16819 0.65859-0.96930 0.74611
   0  -6   3 2540.56  383.89   1-0.90791 0.99446-0.41074-0.06466 0.08356 0.08277
   0  -6   2  952.48  292.05   1-0.90462 0.99852-0.41826-0.04601 0.08192 0.02896
   0  -6   113532.67  656.94   1-0.89826 0.99950-0.43232-0.02083 0.07883-0.02339
   0  -6   052644.59 1317.94   1-0.88859 0.99718-0.45264 0.01061 0.07429-0.07429
   0  -6  -131579.21  989.82   1-0.87522 0.99115-0.47887 0.04797 0.06828-0.12373
   0  -6  -227013.31  921.37   1-0.85767 0.98095-0.51057 0.09080 0.06080-0.17169
   0  -6  -3 2441.51  378.87   1-0.83540 0.96602-0.54718 0.13854 0.05184-0.21818
   0  -6  -4  633.58  238.00   1-0.80942 0.94634-0.58577 0.18784 0.04124-0.26294
   0  -6  -5 5076.49  942.34   1-0.77601 0.92026-0.63002 0.24316 0.02945-0.30657
   0  -6  -614224.50  721.65   1-0.73597 0.88754-0.67681 0.30102 0.01623-0.34877
   0  -6  -720107.91  831.31   1-0.68864 0.84754-0.72509 0.36037 0.00164-0.38961
   0  -6  -8 7521.71  589.98   1-0.63339 0.79961-0.77369 0.42003-0.01423-0.42915
   0  -6  -8 4898.31  891.01   1-0.11032 0.28075-0.94350 0.58611 0.31245-0.76002
   0  -6  -9 4914.03  512.47   1-0.56714 0.74185-0.82305 0.47982-0.03056-0.46842
   0  -6  -9 2768.84 1196.77   1-0.13130 0.30909-0.96736 0.62107 0.21669-0.72022
   0  -6 -10 1562.84  329.91   1-0.49399 0.67605-0.86810 0.53591-0.04870-0.50572
   0  -6 -10  986.24  536.67   1-0.14930 0.33446-0.98056 0.64537 0.12727-0.68675
   0  -6 -11   60.86  193.85   1-0.41099 0.60039-0.90911 0.58796-0.06781-0.54205
   0  -6 -11  183.28  136.32   1-0.16471 0.35723-0.98534 0.66125 0.04421-0.65963
   0  -6 -12  403.30  236.42   1-0.17791 0.37780-0.98349 0.67050-0.03286-0.63850
   0  -6 -13  491.34  254.66   1-0.18923 0.39648-0.97635 0.67446-0.10449-0.62281
   0  -6 -14 1978.02  655.72   1-0.19895 0.41357-0.96492 0.67413-0.17129-0.61196
   0  -6 -15  512.30  257.22   1-0.20625 0.42644-0.95040 0.67264-0.23278-0.60472
   0   7 -11  139.13  280.03   1-0.19666 0.15004-0.29191 0.93483-0.93600 0.32182
   0   7 -10  304.70  283.05   1-0.19548 0.14139-0.28192 0.91371-0.93931 0.38096
   0   7  -9 2306.70  613.42   1-0.19367 0.13210-0.26678 0.88744-0.94409 0.44158
   0  -7   8  284.26  246.04   1-0.85105 0.91898-0.52184-0.08287 0.05808 0.38547
   0   7  -8  196.00  274.65   1-0.19108 0.12203-0.24571 0.85524-0.95032 0.50364
   0  -7   7 3755.45  498.76   1-0.86579 0.94107-0.49626-0.09733 0.06421 0.32389
   0   7  -7 3111.52  551.39   1-0.18600 0.10841-0.21832 0.81627-0.95798 0.56739
   0  -7   6  282.92  264.11   1-0.87613 0.95875-0.47714-0.10532 0.06868 0.26398
   0   7  -6  190.20  276.13   1-0.18125 0.09617-0.18243 0.76932-0.96636 0.63157
   0  -7   511112.81  655.16   1-0.88280 0.97276-0.46425-0.10708 0.07165 0.20557
   0  -7   4 3444.58  487.38   1-0.88623 0.98354-0.45741-0.10279 0.07321 0.14856
   0  -7   3 3738.60  480.41   1-0.88670 0.99135-0.45646-0.09261 0.07342 0.09290
   0  -7   2 4108.27  496.12   1-0.88431 0.99630-0.46126-0.07669 0.07233 0.03855
   0  -7   1  254.89  271.45   1-0.87902 0.99836-0.47161-0.05521 0.06996-0.01452
   0  -7   0    0.54  205.30   1-0.87070 0.99739-0.48730-0.02839 0.06632-0.06632
   0  -7  -116715.29  784.23   1-0.85911 0.99314-0.50809 0.00351 0.06140-0.11684
   0  -7  -210759.46  664.04   1-0.84391 0.98529-0.53362 0.04018 0.05520-0.16609
   0  -7  -3  702.82  239.76   1-0.82471 0.97343-0.56352 0.08120 0.04773-0.21406
   0  -7  -4 6498.37  560.85   1-0.80268 0.95753-0.59514 0.12351 0.03880-0.26050
   0  -7  -5 3178.23  457.29   1-0.77425 0.93643-0.63221 0.17166 0.02885-0.30597
   0  -7  -6 1829.54  392.07   1-0.74036 0.90987-0.67197 0.22248 0.01764-0.35018
   0  -7  -7 5228.62  577.37   1-0.70046 0.87730-0.71366 0.27524 0.00519-0.39316
   0  -7  -8 1117.23  317.81   1-0.65400 0.83816-0.75644 0.32908-0.00844-0.43495
   0  -7  -9  587.65  248.82   1-0.60038 0.79187-0.79937 0.38308-0.02323-0.47558
   0  -7  -9  223.08  184.91   1-0.11679 0.31317-0.95174 0.53109 0.28378-0.78731
   0  -7 -10  195.66  164.85   1-0.13583 0.33957-0.97137 0.56182 0.19487-0.75434
   0  -7 -11   48.36  153.00   1-0.46652 0.67402-0.88278 0.48786-0.05519-0.55467
   0  -7 -11  238.30  165.95   1-0.15248 0.36359-0.98209 0.58363 0.11064-0.72606
   0  -7 -12  316.84  232.11   1-0.38746 0.60232-0.91898 0.53511-0.07297-0.59233
   0  -7 -12  229.51  204.64   1-0.16700 0.38548-0.98546 0.59810 0.03125-0.70261
   0  -7 -13 2802.01 1178.44   1-0.17963 0.40547-0.98277 0.60651-0.04340-0.68390
   0  -7 -14 -114.78  260.08   1-0.19061 0.42381-0.97506 0.60990-0.11363-0.66962
   0   8 -10  263.80  300.99   1-0.18395 0.11029-0.20266 0.90816-0.96181 0.40382
   0   8  -9  238.67  396.32   1-0.18173 0.10057-0.18598 0.88041-0.96559 0.46341
   0  -8   8  527.78  246.35   1-0.82507 0.91110-0.56299-0.11540 0.04786 0.39569
   0   8  -8  302.78  453.27   1-0.17869 0.09002-0.16369 0.84706-0.97019 0.52380
   0  -8   7 1077.50  385.04   1-0.84036 0.93373-0.53934-0.12792 0.05379 0.33431
   0  -8   6  520.93  277.46   1-0.85138 0.95210-0.52130-0.13483 0.05821 0.27445
   0  -8   5  409.98  215.27   1-0.85877 0.96683-0.50867-0.13633 0.06126 0.21596
   0  -8   4 2326.56  432.78   1-0.86296 0.97837-0.50131-0.13257 0.06301 0.15876
   0  -8   3 1809.30  362.19   1-0.86423 0.98698-0.49906-0.12369 0.06355 0.10278
   0  -8   2 1486.20  336.00   1-0.86269 0.99279-0.50179-0.10983 0.06290 0.04798
   0  -8   1 4676.24  588.03   1-0.85838 0.99582-0.50936-0.09114 0.06109-0.00565
   0  -8   010156.44  703.17   1-0.85121 0.99600-0.52158-0.06779 0.05815-0.05815
   0  -8  -1  495.12  343.81   1-0.84105 0.99318-0.53824-0.03999 0.05406-0.10951
   0  -8  -2  791.37  326.50   1-0.82765 0.98712-0.55911-0.00800 0.04885-0.15974
   0  -8  -3  507.30  281.11   1-0.81073 0.97755-0.58386 0.02787 0.04250-0.20883
   0  -8  -4  165.11  336.37   1-0.79156 0.96436-0.61008 0.06476 0.03484-0.25654
   0  -8  -514045.01  882.47   1-0.76668 0.94680-0.64148 0.10722 0.02629-0.30341
   0  -8  -6  127.44  223.73   1-0.73715 0.92459-0.67551 0.15233 0.01661-0.34915
   0  -8  -7 6056.99  646.24   1-0.70251 0.89728-0.71164 0.19952 0.00581-0.39378
   0  -8  -8 1189.18  358.81   1-0.66228 0.86438-0.74922 0.24817-0.00607-0.43732
   0  -8  -9  -32.86  190.96   1-0.61596 0.82538-0.78754 0.29755-0.01902-0.47978
   0  -8  -9  203.02  180.87   1-0.10517 0.32013-0.93642 0.44141 0.33472-0.83825
   0  -8 -10  264.60  234.61   1-0.56042 0.77869-0.82757 0.34785-0.03228-0.52214
   0  -8 -10  148.61  134.40   1-0.12459 0.34692-0.96065 0.47674 0.24821-0.80768
   0  -8 -11  131.43  238.39   1-0.50008 0.72569-0.86468 0.39600-0.04724-0.56262
   0  -8 -11  170.40  121.77   1-0.14194 0.37163-0.97607 0.50325 0.16472-0.78013
   0  -8 -12  317.05  290.98   1-0.43183 0.66479-0.89973 0.44209-0.06315-0.60216
   0  -8 -12   60.44  108.01   1-0.15733 0.39439-0.98389 0.52217 0.08479-0.75616
   0  -8 -13  236.42  174.86   1-0.17093 0.41535-0.98524 0.53462 0.00865-0.73597
   0  -9   7  174.85  239.27   1-0.81441 0.92454-0.57868-0.16206 0.04308 0.34489
   0  -9   6  510.94  245.09   1-0.82513 0.94395-0.56290-0.16690 0.04789 0.28477
   0  -9   5  892.78  357.85   1-0.83328 0.95944-0.55048-0.16820 0.05102 0.22619
   0  -9   4  172.65  235.41   1-0.83825 0.97176-0.54269-0.16485 0.05296 0.16881
   0  -9   3 5883.66  766.33   1-0.84031 0.98116-0.53942-0.15700 0.05377 0.11255
   0  -9   2 9056.56  919.69   1-0.83960 0.98780-0.54055-0.14474 0.05349 0.05739
   0  -9   1 1800.83  444.75   1-0.83619 0.99173-0.54593-0.12823 0.05216 0.00328
   0  -9   0 2456.62  522.06   1-0.83006 0.99294-0.55544-0.10760 0.04977-0.04977
   0  -9  -1 5176.50  648.36   1-0.82110 0.99133-0.56889-0.08302 0.04636-0.10181
   0  -9  -2 3446.01  556.99   1-0.81058 0.98665-0.58414-0.05700 0.04167-0.15252
   0  -9  -3 2844.85  549.78   1-0.79554 0.97895-0.60480-0.02528 0.03625-0.20252
   0  -9  -4 1416.03  490.84   1-0.77707 0.96780-0.62869 0.00967 0.02981-0.25151
   0  -9  -516300.78 1303.87   1-0.75486 0.95291-0.65550 0.04754 0.02235-0.29947
   0  -9  -6  405.83  314.54   1-0.72856 0.93394-0.68483 0.08795 0.01388-0.34642
   0  -9  -7 5025.08  681.62   1-0.69780 0.91051-0.71627 0.13045 0.00439-0.39236
   0  -9  -8 1016.32  348.77   1-0.66217 0.88221-0.74932 0.17456-0.00610-0.43729
   0  -9  -9  813.95  423.40   1-0.62124 0.84860-0.78341 0.21972-0.01758-0.48123
   0  -9 -10  969.87  388.67   1-0.57452 0.80921-0.81793 0.26531-0.03004-0.52419
   0  -9 -10  207.08  168.68   1-0.11575 0.35666-0.95047 0.39219 0.28845-0.84792
   0  -9 -11  394.40  281.43   1-0.51874 0.76246-0.85385 0.31140-0.04271-0.56715
   0  -9 -11  457.52  167.10   1-0.13334 0.38162-0.96922 0.42204 0.20691-0.82233
   0  -9 -12  252.41  180.65   1-0.14921 0.40485-0.98051 0.44443 0.12773-0.79910
   0 -10   7  269.70  268.25   1-0.78578 0.91385-0.61762-0.19681 0.03282 0.35514
   0 -10   6   92.58  199.33   1-0.79833 0.93373-0.60105-0.20232 0.03724 0.29530
   0 -10   5  514.85  292.61   1-0.80730 0.95003-0.58874-0.20356 0.04047 0.23664
   0 -10   4 1303.50  398.93   1-0.81309 0.96314-0.58057-0.20067 0.04259 0.17910
   0 -10   3  157.41  247.60   1-0.81478 0.97373-0.57808-0.19201 0.04400 0.12233
   0 -10   2  739.01  397.36   1-0.81490 0.98119-0.57791-0.18105 0.04404 0.06684
   0 -10   1  495.51  331.51   1-0.81236 0.98600-0.58155-0.16628 0.04310 0.01234
   0 -10   0   25.92  215.22   1-0.80849 0.98785-0.58707-0.14990 0.04090-0.04090
   0 -10  -1 2268.22  541.14   1-0.80066 0.98735-0.59789-0.12802 0.03807-0.09350
   0 -10  -2   57.83  242.25   1-0.79004 0.98405-0.61208-0.10276 0.03431-0.14515
   0 -10  -3  344.84  400.69   1-0.77647 0.97780-0.62945-0.07432 0.02960-0.19587
   0 -10  -425489.10 1549.05   1-0.75973 0.96840-0.64978-0.04293 0.02396-0.24566
   0 -10  -5    7.01  263.73   1-0.73961 0.95560-0.67280-0.00884 0.01739-0.29452
   0 -10  -6 3438.44  644.20   1-0.71581 0.93913-0.69821 0.02763 0.00989-0.34244
   0 -10  -7 4822.02  667.58   1-0.68803 0.91867-0.72567 0.06615 0.00146-0.38943
   0 -10  -8 -136.14  224.75   1-0.65591 0.89388-0.75479 0.10633-0.00789-0.43549
   0 -10  -9  513.62  338.56   1-0.61908 0.86438-0.78511 0.14772-0.01817-0.48064
   0 -10 -10  373.87  301.31   1-0.57712 0.82974-0.81612 0.18980-0.02937-0.52487
   0 -10 -10  364.47  188.20   1-0.10927 0.36877-0.94210 0.30945 0.31702-0.87649
   0 -10 -11  180.71  286.22   1-0.52677 0.78859-0.84902 0.23281-0.04073-0.56913
   0 -10 -11   44.55  220.62   1-0.12676 0.39363-0.96292 0.34138 0.23810-0.85352
   0 -11   4  181.28  239.79   1-0.78508 0.95307-0.61853-0.23641 0.03257 0.18912
   0 -11   3  843.58  433.96   1-0.78879 0.96410-0.61372-0.23015 0.03387 0.13240
   0 -11   2 1420.78  482.06   1-0.78976 0.97240-0.61245-0.22035 0.03421 0.07663
   0 -11   1  857.02  412.76   1-0.78810 0.97807-0.61462-0.20712 0.03363 0.02179
   0 -11   0  799.99  379.61   1-0.78385 0.98114-0.62011-0.19056 0.03215-0.03215
   0 -11  -1  202.69  342.12   1-0.77699 0.98161-0.62880-0.17081 0.02978-0.08521
   0 -11  -2  277.49  219.65   1-0.76745 0.97939-0.64055-0.14799 0.02654-0.13739
   0 -11  -3  208.73  266.51   1-0.75511 0.97438-0.65520-0.12227 0.02244-0.18871
   0 -11  -4  -27.23  256.61   1-0.73983 0.96643-0.67256-0.09385 0.01746-0.23916
   0 -11  -5  327.37  409.13   1-0.72140 0.95533-0.69241-0.06293 0.01163-0.28875
   0 -11  -613073.27 1135.27   1-0.69960 0.94086-0.71450-0.02977 0.00493-0.33748
   0 -11  -7  -10.45  242.33   1-0.67417 0.92275-0.73856 0.00534-0.00262-0.38534
   0 -11  -8  650.39  451.60   1-0.64481 0.90072-0.76425 0.04210-0.01104-0.43235
   0 -11  -9  397.44  359.65   1-0.61119 0.87442-0.79122 0.08013-0.02032-0.47849
   0 -12   1  -18.94  244.42   1-0.76067 0.96857-0.64868-0.24676 0.02427 0.03114
   0 -12   0  -28.87  251.78   1-0.75728 0.97251-0.65267-0.23170 0.02315-0.02315
   0 -12  -1  149.56  277.44   1-0.75132 0.97388-0.65958-0.21372 0.02119-0.07662
   0 -12  -2  220.96  374.24   1-0.74277 0.97265-0.66928-0.19295 0.01841-0.12926
   0 -12  -3  552.74  471.75   1-0.73153 0.96874-0.68164-0.16953 0.01482-0.18109
   0 -12  -4  554.63  406.46   1-0.71749 0.96202-0.69648-0.14362 0.01041-0.23211
   0 -12  -5 1967.34  534.10   1-0.70049 0.95235-0.71364-0.11540 0.00520-0.28232
   0 -12  -6  947.77  460.96   1-0.68034 0.93952-0.73289-0.08508-0.00081-0.33173
   1 -11  -7  313.41  458.75   1-0.53960 0.93041-0.84108 0.10693-0.03755-0.35054
   1 -11  -6 2769.56  665.97   1-0.56895 0.95045-0.82176 0.07747-0.03148-0.30105
   1 -11  -5 1042.20  337.48   1-0.59233 0.96650-0.80529 0.04994-0.02537-0.25174
   1 -11  -4  -77.45  280.87   1-0.61231 0.97915-0.79035 0.02394-0.02001-0.20167
   1 -11  -3  106.59  253.53   1-0.62904 0.98855-0.77721-0.00026-0.01544-0.15083
   1 -11  -2  175.56  279.67   1-0.64262 0.99481-0.76609-0.02245-0.01165-0.09919
   1 -11  -1   96.68  253.29   1-0.65314 0.99800-0.75718-0.04243-0.00868-0.04673
   1 -11   0  -10.09  263.29   1-0.66064 0.99817-0.75067-0.06000-0.00654 0.00654
   1 -11   1  961.64  471.60   1-0.66512 0.99533-0.74671-0.07503-0.00525 0.06067
   1 -11   2  -25.81  220.80   1-0.66655 0.98943-0.74544-0.08737-0.00483 0.11568
   1 -11   3  114.21  245.10   1-0.66483 0.98038-0.74697-0.09690-0.00533 0.17160
   1 -10  -9  167.94  248.20   1-0.47494 0.86234-0.87840 0.24010-0.05322-0.44576
   1 -10  -8  108.95  277.26   1-0.51281 0.89287-0.85736 0.20802-0.04416-0.39938
   1 -10  -7 7020.91  833.08   1-0.54642 0.91913-0.83674 0.17636-0.03583-0.35226
   1 -10  -6  618.03  439.94   1-0.57822 0.94178-0.81536 0.14477-0.02908-0.30346
   1 -10  -5  325.81  398.19   1-0.60387 0.96011-0.79676 0.11511-0.02229-0.25482
   1 -10  -4 2603.45  609.88   1-0.62589 0.97480-0.77973 0.08701-0.01630-0.20538
   1 -10  -3  390.19  358.37   1-0.64444 0.98602-0.76457 0.06078-0.01114-0.15512
   1 -10  -2  273.29  287.62   1-0.65964 0.99389-0.75154 0.03669-0.00682-0.10401
   1 -10   0  228.69  234.88   1-0.68039 0.99999-0.73284-0.00413-0.00079 0.00079
   1 -10   1 4909.71  727.18   1-0.68602 0.99830-0.72757-0.02047 0.00086 0.05455
   1 -10   2  125.32  249.10   1-0.68849 0.99343-0.72524-0.03387 0.00160 0.10924
   1 -10   3 1124.50  409.85   1-0.68769 0.98531-0.72599-0.04418 0.00136 0.16490
   1 -10   4  553.52  383.59   1-0.68349 0.97379-0.72995-0.05129 0.00011 0.22157
   1 -10   5  196.79  297.15   1-0.67565 0.95861-0.73721-0.05509-0.00219 0.27931
   1 -10   6  823.60  380.81   1-0.66380 0.93944-0.74788-0.05549-0.00563 0.33817
   1  -9 -11  -15.11  162.66   1-0.37019 0.75417-0.92578 0.38333-0.07669-0.53317
   1  -9 -10  263.31  347.26   1-0.42198 0.79861-0.90424 0.35075-0.06536-0.48906
   1  -9  -9  276.31  318.19   1-0.46856 0.83785-0.88173 0.31720-0.05471-0.44426
   1  -9  -9   48.91   99.48   1-0.11847 0.49419-0.95376 0.38438 0.27623-0.77975
   1  -9  -8 1013.58  391.11   1-0.51025 0.87220-0.85885 0.28328-0.04478-0.39875
   1  -9  -7  728.67  465.50   1-0.54732 0.90192-0.83616 0.24955-0.03561-0.35248
   1  -9  -6 2428.73  527.32   1-0.58214 0.92776-0.81259 0.21571-0.02805-0.30448
   1  -9  -5  773.91  375.23   1-0.61058 0.94888-0.79168 0.18372-0.02048-0.25663
   1  -9  -4   80.43  266.95   1-0.63508 0.96605-0.77231 0.15329-0.01376-0.20793
   1  -9  -3   49.95  240.33   1-0.65582 0.97946-0.75487 0.12478-0.00792-0.15835
   1  -9  -2 1102.20  479.11   1-0.67295 0.98927-0.73967 0.09852-0.00297-0.10786
   1  -9  -1  363.91  360.31   1-0.68660 0.99559-0.72702 0.07480 0.00104-0.05646
   1  -9   0 1729.85  474.85   1-0.69687 0.99853-0.71718 0.05389 0.00411-0.00411
   1  -9   1  855.78  434.21   1-0.70380 0.99813-0.71036 0.03601 0.00620 0.04921
   1  -9   2  497.52  418.07   1-0.70738 0.99439-0.70679 0.02137 0.00730 0.10354
   1  -9   3  734.27  333.14   1-0.70755 0.98723-0.70661 0.01013 0.00735 0.15891
   1  -9   4 1780.75  514.23   1-0.70417 0.97652-0.71000 0.00245 0.00632 0.21537
   1  -9   5 1065.11  352.50   1-0.69698 0.96201-0.71706-0.00154 0.00414 0.27297
   1  -9   6  288.23  263.91   1-0.68564 0.94335-0.72793-0.00174 0.00075 0.33179
   1  -9   7 1396.80  479.76   1-0.66961 0.91999-0.74269 0.00194-0.00394 0.39192
   1  -8 -11  281.01  241.46   1-0.34391 0.70979-0.93538 0.46670-0.08225-0.52761
   1  -8 -11  157.74  118.75   1-0.16242 0.53429-0.98507 0.51225 0.05698-0.67240
   1  -8 -10  320.61  150.40   1-0.14611 0.51062-0.97878 0.49486 0.14364-0.70311
   1  -8  -9  963.70  434.85   1-0.45302 0.80420-0.88959 0.39882-0.05832-0.44066
   1  -8  -9   81.94  104.03   1-0.12739 0.48453-0.96356 0.46854 0.23518-0.73870
   1  -8  -8  973.41  380.12   1-0.49943 0.84328-0.86505 0.36324-0.04740-0.39614
   1  -8  -8  437.28  158.40   1-0.10608 0.45585-0.93770 0.43159 0.33083-0.77840
   1  -8  -7  192.01  315.97   1-0.54080 0.87730-0.84032 0.32747-0.03725-0.35084
   1  -8  -6  691.95  422.29   1-0.57942 0.90710-0.81451 0.29133-0.02877-0.30377
   1  -8  -5 1250.75  415.75   1-0.61133 0.93169-0.79111 0.25685-0.02028-0.25683
   1  -8  -4   11.73  206.79   1-0.63891 0.95195-0.76917 0.22384-0.01269-0.20899
   1  -8  -3  104.27  227.78   1-0.66236 0.96807-0.74915 0.19276-0.00604-0.16022
   1  -8  -2 2683.78  513.46   1-0.68186 0.98025-0.73147 0.16402-0.00036-0.11048
   1  -8  -1 1452.78  449.39   1-0.69757 0.98863-0.71649 0.13797 0.00432-0.05974
   1  -8   0 1306.26  409.14   1-0.70960 0.99333-0.70454 0.11496 0.00798-0.00798
   1  -8   1  466.71  313.42   1-0.71804 0.99444-0.69592 0.09526 0.01058 0.04483
   1  -8   2   28.93  201.05   1-0.72288 0.99195-0.69086 0.07914 0.01209 0.09875
   1  -8   3  170.14  199.82   1-0.72409 0.98584-0.68958 0.06680 0.01247 0.15379
   1  -8   4 7132.67  753.08   1-0.72152 0.97594-0.69228 0.05843 0.01167 0.21002
   1  -8   5  711.98  324.70   1-0.71493 0.96203-0.69912 0.05420 0.00962 0.26749
   1  -8   6 2233.43  454.69   1-0.70394 0.94371-0.71022 0.05424 0.00625 0.32629
   1  -8   7 2722.92  462.73   1-0.68796 0.92040-0.72574 0.05869 0.00144 0.38652
   1  -8   8  576.02  255.51   1-0.66618 0.89129-0.74577 0.06765-0.00494 0.44834
  -1   8  -8  191.37  410.47   1-0.17919-0.05150-0.16734 0.85072-0.96947 0.52308
  -1   8  -9  504.78  562.97   1-0.18246-0.04074-0.19139 0.88583-0.96440 0.46221
   1  -7 -13  302.60  169.23   1-0.19627 0.56428-0.96865 0.59239-0.15229-0.57502
   1  -7 -12  405.13  292.69   1-0.22411 0.58108-0.96940 0.58442-0.10009-0.56637
   1  -7 -12  181.24  171.22   1-0.18525 0.54590-0.97953 0.59218-0.07865-0.59271
   1  -7 -11  154.83  156.50   1-0.30323 0.65100-0.94859 0.55368-0.09061-0.51925
   1  -7 -11  116.72   90.95   1-0.17228 0.52556-0.98504 0.58659 0.00076-0.61618
   1  -7 -10  597.62  295.12   1-0.36740 0.70782-0.92684 0.52088-0.07729-0.47713
   1  -7 -10   93.65  133.66   1-0.15702 0.50294-0.98379 0.57424 0.08651-0.64598
   1  -7  -9  -65.22  192.01   1-0.42548 0.75856-0.90265 0.48565-0.06458-0.43440
   1  -7  -9   18.62   97.21   1-0.13909 0.47765-0.97398 0.55333 0.17887-0.68239
   1  -7  -816954.39 1199.74   1-0.47778 0.80352-0.87690 0.44886-0.05255-0.39098
   1  -7  -8 8258.82 1833.97   1-0.11815 0.44934-0.95338 0.52162 0.27767-0.72525
   1  -7  -7  125.86  202.96   1-0.52454 0.84294-0.85038 0.41130-0.04128-0.34681
   1  -7  -6  286.46  295.92   1-0.56602 0.87707-0.82381 0.37369-0.03085-0.30180
   1  -7  -5 1672.02  451.31   1-0.60432 0.90674-0.79643 0.33587-0.02217-0.25494
   1  -7  -4  654.61  379.46   1-0.63582 0.93092-0.77171 0.30008-0.01355-0.20813
   1  -7  -3   16.64  240.62   1-0.66273 0.95050-0.74883 0.26614-0.00594-0.16033
   1  -7  -2  377.13  363.49   1-0.68524 0.96568-0.72831 0.23455 0.00063-0.11148
   1  -7  -138269.11 1208.25   1-0.70353 0.97665-0.71063 0.20581 0.00612-0.06155
   1  -7   0 2191.44  379.47   1-0.71775 0.98355-0.69621 0.18032 0.01049-0.01049
   1  -7   1  314.68  251.74   1-0.72801 0.98648-0.68542 0.15846 0.01370 0.04171
   1  -7   2 3580.38  554.11   1-0.73435 0.98549-0.67858 0.14056 0.01571 0.09513
   1  -7   3  -52.27  220.14   1-0.73672 0.98053-0.67599 0.12690 0.01647 0.14979
   1  -7   4  -31.88  171.94   1-0.73500 0.97149-0.67787 0.11771 0.01592 0.20577
   1  -7   5 3777.29  507.24   1-0.72893 0.95809-0.68443 0.11322 0.01399 0.26312
   1  -7   6 1528.39  376.75   1-0.71808 0.93991-0.69587 0.11358 0.01060 0.32194
  -1   7  -6 1193.11  357.14   1-0.18202-0.04510-0.18811 0.77500-0.96513 0.63033
   1  -7   7 3862.37  527.87   1-0.70181 0.91631-0.71234 0.11899 0.00560 0.38236
  -1   7  -7 1906.86  387.42   1-0.18701-0.03260-0.22625 0.82420-0.95594 0.56535
   1  -7   8  453.87  253.51   1-0.67914 0.88632-0.73400 0.12958-0.00116 0.44456
  -1   7  -8  265.52  356.67   1-0.19234-0.01890-0.25588 0.86541-0.94737 0.50070
  -1   7  -9  791.52  426.56   1-0.19505-0.00871-0.27828 0.89894-0.94048 0.43797
  -1   7 -10  354.41  372.34   1-0.19696 0.00066-0.29450 0.92630-0.93513 0.37678
  -1   7 -11 1342.42  548.93   1-0.19822 0.00939-0.30539 0.94831-0.93136 0.31718
   1  -6 -14  723.05  404.79   1-0.21087 0.56614-0.93833 0.64938-0.27395-0.50771
   1  -6 -13  179.87  146.12   1-0.20444 0.55387-0.95569 0.65380-0.21178-0.51552
   1  -6 -12   59.64  123.41   1-0.15549 0.49392-0.98142 0.67008-0.11237-0.55410
   1  -6 -12  166.78  105.35   1-0.19489 0.53695-0.97039 0.65739-0.14268-0.52868
   1  -6 -11  590.87  283.25   1-0.23558 0.56679-0.96690 0.64468-0.09797-0.51295
   1  -6 -11  -95.61  163.00   1-0.18348 0.51818-0.98070 0.65661-0.06738-0.54802
   1  -6 -10   18.74  137.67   1-0.31589 0.63821-0.94470 0.61251-0.08804-0.46638
   1  -6 -10   63.63   98.94   1-0.16982 0.49716-0.98535 0.65016 0.01508-0.57455
   1  -6  -9 6109.52  654.22   1-0.38174 0.69672-0.92128 0.57805-0.07421-0.42476
   1  -6  -9 3753.48  810.95   1-0.15342 0.47339-0.98249 0.63620 0.10569-0.60921
   1  -6  -8  166.14  184.70   1-0.44135 0.74899-0.89525 0.54098-0.06099-0.38255
   1  -6  -8  -21.26   92.17   1-0.13370 0.44631-0.96955 0.61216 0.20515-0.65273
   1  -6  -7 1047.76  357.77   1-0.49493 0.79522-0.86757 0.50226-0.04848-0.33961
   1  -6  -7  176.58  107.84   1-0.11007 0.41531-0.94317 0.57469 0.31352-0.70515
   1  -6  -6 2340.30  386.34   1-0.54269 0.83564-0.83912 0.46277-0.03677-0.29588
   1  -6  -5 6459.11  608.68   1-0.58661 0.87110-0.80941 0.42256-0.02688-0.25023
   1  -6  -411599.20  710.67   1-0.62323 0.90039-0.78184 0.38392-0.01704-0.20465
   1  -6  -3 2435.97  425.72   1-0.65466 0.92450-0.75587 0.34688-0.00825-0.15802
   1  -6  -2 5653.01  514.73   1-0.68111 0.94362-0.73217 0.31212-0.00058-0.11026
   1  -6  -124263.88  943.84   1-0.70278 0.95796-0.71138 0.28025 0.00589-0.06132
   1  -6   010957.65  698.18   1-0.71984 0.96770-0.69404 0.25185 0.01114-0.01114
   1  -6   1 1712.60  335.36   1-0.73243 0.97296-0.68067 0.22741 0.01510 0.04031
   1  -6   2 5302.60  981.82   1-0.74061 0.97381-0.67169 0.20737 0.01772 0.09312
   1  -6   319524.80  798.91   1-0.74437 0.97025-0.66749 0.19210 0.01893 0.14733
   1  -6   4 5438.61  526.64   1-0.74357 0.96212-0.66839 0.18194 0.01867 0.20302
  -1   6  -4 4310.18  529.36   1-0.18034-0.04319-0.17572 0.66612-0.96777 0.74458
   1  -6   5 7690.86  588.63   1-0.73792 0.94914-0.67467 0.17715 0.01685 0.26026
  -1   6  -5 6688.61  733.82   1-0.18832-0.02771-0.23656 0.73803-0.95318 0.67419
   1  -6   620206.23  830.44   1-0.72693 0.93082-0.68657 0.17799 0.01336 0.31917
  -1   6  -613431.84  767.02   1-0.19577-0.01201-0.28435 0.79726-0.93851 0.60351
   1  -6   7  464.29  248.89   1-0.70982 0.90639-0.70433 0.18467 0.00805 0.37992
  -1   6  -7  471.54  341.01   1-0.19996-0.00034-0.32084 0.84488-0.92578 0.53494
   1  -6   8 2364.75  592.79   1-0.68541 0.87465-0.72815 0.19743 0.00068 0.44270
  -1   6  -8 2582.19  532.36   1-0.20294 0.01010-0.34822 0.88340-0.91517 0.46850
  -1   6  -9  -54.07  237.65   1-0.20500 0.01963-0.36806 0.91436-0.90691 0.40440
  -1   6 -10  416.66  334.54   1-0.20636 0.02847-0.38159 0.93902-0.90099 0.34265
  -1   6 -11  748.76  452.53   1-0.20718 0.03676-0.38981 0.95838-0.89728 0.28310
  -1   6 -12 2322.19  583.01   1-0.20753 0.04459-0.39350 0.97320-0.89558 0.22557
   1  -5 -14  299.72  263.71   1-0.21705 0.55391-0.91702 0.70234-0.33458-0.44708
   1  -5 -13  430.57  200.88   1-0.21121 0.54075-0.93734 0.71147-0.27707-0.44876
   1  -5 -12   48.32  102.16   1-0.06028 0.38015-0.98990 0.75221-0.12827-0.53820
   1  -5 -12   42.15  145.87   1-0.20491 0.52839-0.95478 0.71615-0.21538-0.45597
   1  -5 -11  888.93  264.28   1-0.15018 0.46284-0.98214 0.73357-0.11329-0.49764
   1  -5 -11  692.92  204.55   1-0.19543 0.51154-0.96972 0.71999-0.14645-0.46896
   1  -5 -10 2651.29  434.08   1-0.23297 0.53841-0.96748 0.70803-0.09846-0.45693
   1  -5 -10 1180.81  527.36   1-0.18392 0.49266-0.98043 0.71960-0.07014-0.48932
   1  -5  -9 1373.91  300.80   1-0.31558 0.61245-0.94479 0.67533-0.08810-0.41087
   1  -5  -9  399.26  175.76   1-0.16982 0.47120-0.98535 0.71343 0.01510-0.51862
   1  -5  -8 3433.21  464.95   1-0.38414 0.67368-0.92032 0.63981-0.07369-0.36984
   1  -5  -8 1726.60  693.86   1-0.15241 0.44643-0.98205 0.69903 0.11103-0.55861
   1  -5  -7 3869.91  504.64   1-0.44626 0.72845-0.89289 0.60134-0.05987-0.32822
   1  -5  -7 2150.43  720.02   1-0.13076 0.41741-0.96686 0.67274 0.21925-0.61088
   1  -5  -6 4013.03  503.42   1-0.50204 0.77689-0.86357 0.56098-0.04677-0.28588
   1  -5  -6 2350.49  883.42   1-0.10381 0.38310-0.93448 0.62926 0.34052-0.67620
   1  -5  -5 4062.08  523.39   1-0.55161 0.81912-0.83338 0.51975-0.03452-0.24268
   1  -5  -411551.23  667.00   1-0.59672 0.85595-0.80208 0.47785-0.02420-0.19749
   1  -5  -3 8527.56  561.35   1-0.63421 0.88611-0.77302 0.43773-0.01400-0.15226
   1  -5  -260487.65 1502.62   1-0.66599 0.91056-0.74594 0.39958-0.00500-0.10584
   1  -5  -1 9864.95  575.48   1-0.69224 0.92949-0.72165 0.36423 0.00272-0.05814
   1  -5   017416.93  725.69   1-0.71315 0.94307-0.70094 0.33245 0.00907-0.00907
   1  -5   1  812.41  220.57   1-0.72887 0.95146-0.68450 0.30495 0.01397 0.04144
   1  -5   2 3620.99  440.83   1-0.73948 0.95475-0.67295 0.28232 0.01735 0.09349
   1  -5   3 9881.14  567.58   1-0.74498 0.95292-0.66681 0.26512 0.01912 0.14714
  -1   5  -3 6404.02  475.67   1-0.18377-0.02868-0.20128 0.60626-0.96213 0.79474
   1  -5   4 1240.77  286.21   1-0.74520 0.94582-0.66655 0.25379 0.01920 0.20249
  -1   5  -4  866.52  268.21   1-0.19546-0.00886-0.28170 0.69799-0.93938 0.71604
   1  -5   5 1316.92  318.48   1-0.73982 0.93311-0.67257 0.24874 0.01746 0.25965
  -1   5  -5  693.79  297.33   1-0.20230 0.00544-0.34226 0.76968-0.91756 0.63839
   1  -5   618017.40  706.57   1-0.72821 0.91417-0.68520 0.25031 0.01377 0.31877
  -1   5  -615294.77  845.04   1-0.20695 0.01756-0.38747 0.82603-0.89834 0.56334
   1  -5   735843.68  972.89   1-0.70937 0.88800-0.70478 0.25883 0.00791 0.38005
  -1   5  -731852.41 1218.04   1-0.21008 0.02818-0.42059 0.87028-0.88258 0.49174
   1  -5   8  444.30  170.31   1-0.68170 0.85300-0.73163 0.27461-0.00041 0.44380
  -1   5  -8  474.64  274.13   1-0.21217 0.03774-0.44415 0.90497-0.87046 0.42378
  -1   5  -9 2382.05  511.20   1-0.21352 0.04656-0.46011 0.93206-0.86180 0.35929
  -1   5 -10  355.18  284.07   1-0.21432 0.05483-0.46992 0.95300-0.85629 0.29794
  -1   5 -11  330.32  321.70   1-0.21470 0.06268-0.47468 0.96889-0.85356 0.23938
  -1   5 -12 3142.39  637.60   1-0.21474 0.07020-0.47521 0.98055-0.85326 0.18325
  -1   5 -13   39.83  265.15   1-0.21449 0.07743-0.47211 0.98859-0.85504 0.12919
   1  -4 -15  130.16  179.22   1-0.22634 0.55210-0.86565 0.73643-0.44655-0.39095
   1  -4 -14  -34.63  201.58   1-0.22278 0.54122-0.88932 0.74892-0.39932-0.38234
   1  -4 -13 -113.77  171.37   1-0.21838 0.52951-0.91144 0.75984-0.34867-0.37716
   1  -4 -12  219.90  128.10   1-0.21298 0.51680-0.93182 0.76903-0.29383-0.37617
   1  -4 -11  442.90  229.81   1-0.03150 0.32560-0.99063 0.81571-0.13282-0.47811
   1  -4 -11  -98.82  144.62   1-0.20637 0.50287-0.95013 0.77615-0.23377-0.38040
   1  -4 -10 9469.10  737.29   1-0.12464 0.41153-0.98519 0.79939-0.11766-0.43772
   1  -4 -10 5876.71 1096.88   1-0.19836 0.48852-0.96578 0.77932-0.16704-0.39242
   1  -4  -9  129.49  236.95   1-0.21109 0.49076-0.97207 0.77539-0.10248-0.39737
   1  -4  -9   21.13   71.00   1-0.18722 0.47002-0.97806 0.78049-0.09133-0.41218
   1  -4  -8  662.87  265.67   1-0.29713 0.56856-0.95040 0.74366-0.09184-0.35169
   1  -4  -8  784.45  270.36   1-0.17319 0.44863-0.98487 0.77621-0.00461-0.44296
   1  -4  -713277.04  643.18   1-0.36955 0.63364-0.92602 0.70824-0.07683-0.31126
   1  -4  -7 9017.64  944.89   1-0.15520 0.42327-0.98318 0.76342 0.09624-0.48787
   1  -4  -6  377.84  168.93   1-0.43536 0.69210-0.89809 0.66926-0.06235-0.27030
   1  -4  -6   95.32   94.80   1-0.13169 0.39240-0.96773 0.73687 0.21479-0.55048
   1  -4  -570876.50 1502.54   1-0.49451 0.74391-0.86780 0.62794-0.04858-0.22863
   1  -4  -554332.74 1150.14   1-0.10066 0.35400-0.92985 0.68789 0.35389-0.63362
   1  -4  -411183.48  568.37   1-0.54699 0.78904-0.83637 0.58547-0.03569-0.18607
   1  -4  -311956.32  579.44   1-0.59422 0.82818-0.80391 0.54232-0.02487-0.14140
   1  -4  -2  518.51  252.92   1-0.63336 0.86000-0.77372 0.50106-0.01424-0.09660
   1  -4  -111026.44  577.72   1-0.66604 0.88535-0.74589 0.46216-0.00498-0.05043
   1  -4   0100943.0 1629.63   1-0.69239 0.90437-0.72151 0.42672 0.00276-0.00276
   1  -4   1  -60.86  157.18   1-0.71253 0.91718-0.70158 0.39572 0.00888 0.04654
   1  -4   259525.89 1157.15   1-0.72652 0.92385-0.68701 0.37009 0.01323 0.09761
  -1   4  -240927.23  911.70   1-0.18480-0.01657-0.20908 0.52864-0.96027 0.84867
   1  -4   3  811.09  253.47   1-0.73433 0.92433-0.67860 0.35061 0.01570 0.15056
  -1   4  -3  635.39  164.96   1-0.20001 0.00661-0.32126 0.65207-0.92562 0.75812
   1  -4   4  795.30  233.46   1-0.73574 0.91842-0.67706 0.33800 0.01616 0.20553
  -1   4  -4  516.67  184.53   1-0.20829 0.02237-0.40135 0.74329-0.89192 0.66858
   1  -4   5 2921.63  371.22   1-0.73029 0.90564-0.68297 0.33285 0.01442 0.26269
  -1   4  -5 1988.61  319.52   1-0.21335 0.03490-0.45812 0.81119-0.86290 0.58372
   1  -4   6 9730.70  484.13   1-0.71711 0.88513-0.69688 0.33569 0.01029 0.32224
  -1   4  -6 8146.05  588.95   1-0.21646 0.04548-0.49781 0.86202-0.83983 0.50482
   1  -4   751810.95 1004.72   1-0.69471 0.85541-0.71928 0.34702 0.00346 0.38450
  -1   4  -741407.22 1233.51   1-0.21836 0.05486-0.52496 0.90030-0.82263 0.43179
   1  -4   865890.45 1134.88   1-0.66062 0.81400-0.75068 0.36736-0.00654 0.44994
  -1   4  -855574.48 1520.11   1-0.21950 0.06347-0.54275 0.92922-0.81069 0.36402
  -1   4  -9 8643.97  813.73   1-0.22014 0.07159-0.55340 0.95100-0.80329 0.30078
  -1   4 -10 3435.43  558.35   1-0.22404 0.08298-0.55916 0.96724-0.79820 0.23990
  -1   4 -11 3008.28  580.69   1-0.22407 0.09033-0.55960 0.97881-0.79789 0.18376
  -1   4 -12  -17.77  300.73   1-0.22028 0.09415-0.55583 0.98682-0.80157 0.13155
  -1   4 -13  618.31  381.11   1-0.21991 0.10125-0.54950 0.99162-0.80603 0.08018
  -1   4 -14  646.89  439.84   1-0.21935 0.10817-0.54040 0.99366-0.81230 0.03062
   1  -3 -15  253.34  272.80   1-0.23007 0.53741-0.83074 0.77580-0.50688-0.33062
   1  -3 -14 1302.37  526.56   1-0.22767 0.52770-0.85483 0.78870-0.46627-0.31539
   1  -3 -13  -20.76  108.09   1-0.22464 0.51736-0.87777 0.80044-0.42314-0.30269
   1  -3 -12  550.08  187.36   1-0.22090 0.50630-0.89952 0.81100-0.37689-0.29311
   1  -3 -11   45.98  105.01   1 0.13322 0.14556-0.97860 0.87926-0.15678-0.45354
   1  -3 -11  194.38  137.84   1-0.21629 0.49438-0.92004 0.82033-0.32670-0.28746
   1  -3 -10 8448.68  515.34   1 0.02579 0.24253-0.98959 0.87743-0.14153-0.41386
   1  -3 -10 5481.05  945.15   1-0.21060 0.48137-0.93913 0.82822-0.27143-0.28690
   1  -3  -9  230.72  204.73   1-0.07060 0.33172-0.98943 0.86639-0.12661-0.37324
   1  -3  -9  274.21  102.45   1-0.20411 0.46832-0.95631 0.83311-0.20927-0.29425
   1  -3  -8  740.66  220.99   1-0.16110 0.41501-0.98062 0.84671-0.11139-0.33291
   1  -3  -8  600.29  188.72   1-0.19415 0.45100-0.97126 0.83697-0.13762-0.30995
   1  -3  -720485.80  752.41   1-0.24547 0.49217-0.96462 0.81983-0.09613-0.29264
   1  -3  -714378.78  590.19   1-0.18121 0.43069-0.98200 0.83661-0.05312-0.33850
   1  -3  -631532.34  877.57   1-0.32866 0.56730-0.94057 0.78551-0.08542-0.24723
   1  -3  -622794.98  702.83   1-0.16375 0.40587-0.98525 0.82875 0.04957-0.38525
   1  -3  -524301.55  744.01   1-0.39936 0.63065-0.91408 0.74799-0.07038-0.20683
   1  -3  -518650.60  579.03   1-0.13923 0.37399-0.97409 0.80650 0.17817-0.45791
   1  -3  -466471.90 1276.23   1-0.46318 0.68713-0.88449 0.70735-0.05596-0.16580
   1  -3  -449218.68  889.24   1-0.10349 0.33088-0.93402 0.75532 0.34188-0.56567
   1  -3  -3139326.7 1886.89   1-0.51988 0.73649-0.85318 0.66500-0.04243-0.12389
   1  -3  -228407.91  752.09   1-0.57038 0.77908-0.82078 0.62182-0.03112-0.07972
   1  -3  -1 5953.73  354.03   1-0.61214 0.81351-0.79049 0.58046-0.02006-0.03535
   1  -3   0 5003.73  336.51   1-0.64633 0.84038-0.76297 0.54188-0.01061 0.01061
   1  -3   1 1931.09  383.82   1-0.67291 0.85963-0.73971 0.50755-0.00299 0.05841
  -1   3  -1 1190.27  207.33   1-0.18040-0.00988-0.17618 0.41032-0.96768 0.91188
   1  -3   219186.26  584.12   1-0.69179 0.87118-0.72209 0.47886 0.00258 0.10826
  -1   3  -214238.56 1024.44   1-0.20326 0.02079-0.35126 0.59658-0.91394 0.80227
   1  -3   386143.93 1403.15   1-0.70276 0.87483-0.71139 0.45710 0.00589 0.16037
  -1   3  -369358.66 1243.87   1-0.21388 0.03889-0.46457 0.72102-0.85931 0.69181
   1  -3   4 5934.56  351.24   1-0.70540 0.87015-0.70877 0.44341 0.00669 0.21499
  -1   3  -4 4731.52  379.81   1-0.21917 0.05165-0.53744 0.80502-0.81432 0.59098
   1  -3   541830.24  834.14   1-0.69889 0.85630-0.71521 0.43878 0.00472 0.27240
  -1   3  -534471.56  935.63   1-0.22542 0.06562-0.58561 0.86384-0.77861 0.49945
   1  -3   613004.07  469.51   1-0.68170 0.83179-0.73162 0.44413-0.00041 0.33295
  -1   3  -611095.87  593.30   1-0.22670 0.07423-0.61500 0.90436-0.75523 0.42024
   1  -3   7 1271.66  203.05   1-0.65116 0.79392-0.75888 0.46032-0.00924 0.39721
  -1   3  -7 1294.71  358.95   1-0.22733 0.08219-0.63291 0.93340-0.74009 0.34928
   1  -3   8  374.04  135.32   1-0.60339 0.73922-0.79716 0.48753-0.02105 0.46459
  -1   3  -8  294.81  232.64   1-0.22763 0.08982-0.64273 0.95435-0.73149 0.28484
  -1   3  -924053.27 1037.09   1-0.22774 0.09725-0.64660 0.96936-0.72803 0.22555
  -1   3 -10  214.71  262.00   1-0.22772 0.10457-0.64593 0.97982-0.72863 0.17032
  -1   3 -11  687.54  413.04   1-0.22760 0.11177-0.64164 0.98666-0.73245 0.11831
  -1   3 -12 3418.04  599.96   1-0.22738 0.11888-0.63436 0.99051-0.73883 0.06886
  -1   3 -13  -60.99  285.05   1-0.22705 0.12588-0.62453 0.99181-0.74726 0.02146
  -1   3 -14 2339.56  574.41   1-0.22660 0.13276-0.61244 0.99084-0.75734-0.02428
   1  -2 -15  351.11  371.85   1-0.22663 0.51511-0.79385 0.81242-0.56429-0.27315
   1  -2 -14   60.49  213.23   1-0.23139 0.51301-0.81356 0.82170-0.53344-0.24823
   1  -2 -13  854.58  364.75   1-0.22958 0.50388-0.83623 0.83317-0.49800-0.22784
   1  -2 -12   37.55   83.96   1-0.22730 0.49429-0.85796 0.84371-0.46068-0.20932
   1  -2 -1111454.73 1895.69   1-0.22448 0.48416-0.87883 0.85339-0.42102-0.19315
   1  -2 -10 2517.60  318.16   1 0.22813 0.02450-0.95893 0.92204-0.16854-0.38630
   1  -2 -10 2016.95  477.89   1-0.22103 0.47339-0.89889 0.86226-0.37833-0.18000
   1  -2  -9 1894.22  276.74   1 0.12685 0.11836-0.97958 0.93169-0.15595-0.34341
   1  -2  -9 1932.15  474.33   1-0.21677 0.46181-0.91817 0.87035-0.33160-0.17090
   1  -2  -824526.31  760.59   1 0.02452 0.21083-0.98965 0.92938-0.14134-0.30297
   1  -2  -818472.02  768.74   1-0.21145 0.44918-0.93663 0.87762-0.27929-0.16737
   1  -2  -7  350.50  172.62   1-0.06850 0.29664-0.98954 0.91839-0.12694-0.26182
   1  -2  -7  235.15  141.21   1-0.20530 0.43619-0.95403 0.88300-0.21832-0.17330
   1  -2  -6   38.40  114.50   1-0.15654 0.37746-0.98127 0.89925-0.11219-0.22104
   1  -2  -6   28.94   64.26   1-0.19522 0.41875-0.96998 0.88785-0.14498-0.19069
   1  -2  -5 2180.48  293.39   1-0.23899 0.45271-0.96612 0.87322-0.09734-0.18035
   1  -2  -5 1663.73  487.55   1-0.18093 0.39710-0.98215 0.88891-0.05141-0.22832
   1  -2  -456491.54 1018.41   1-0.31953 0.52538-0.94354 0.84017-0.08730-0.13446
   1  -2  -443651.97  754.49   1-0.15875 0.36755-0.98430 0.87997 0.07713-0.30092
   1  -2  -334175.05  749.96   1-0.38849 0.58699-0.91857 0.80416-0.07275-0.09357
   1  -2  -326621.72  506.39   1-0.12016 0.32160-0.95573 0.84030 0.26857-0.43641
   1  -2  -2269632.8 2731.33   1-0.45007 0.64123-0.89103 0.76558-0.05899-0.05188
   1  -2  -115599.26  480.35   1-0.50362 0.68744-0.86267 0.72618-0.04639-0.00905
   1  -2   0  -92.51  104.91   1-0.54850 0.72497-0.83540 0.68787-0.03531 0.03531
   1  -2   134645.60  680.17   1-0.58446 0.75324-0.81095 0.65249-0.02745 0.08287
  -1   2  -123640.62  479.45   1-0.20371 0.03217-0.35554 0.51538-0.91218 0.85635
   1  -2   2  653.22  134.95   1-0.60985 0.77131-0.79224 0.62271-0.02068 0.13153
  -1   2  -2  413.61  107.50   1-0.21935 0.05529-0.54038 0.71135-0.81231 0.70065
   1  -2   320496.29 1384.70   1-0.62440 0.77853-0.78092 0.60032-0.01672 0.18299
  -1   2  -317858.06  531.28   1-0.22749 0.07095-0.63816 0.81994-0.73551 0.56802
  -1   2  -4  -82.53  153.26   1-0.22853 0.07931-0.68926 0.88217-0.68752 0.46420
   1  -2   511202.64  362.55   1-0.61502 0.75451-0.78826 0.58554-0.01928 0.29640
  -1   2  -510924.60  539.85   1-0.22862 0.08673-0.71724 0.92128-0.65825 0.37909
   1  -2   683609.50 1054.48   1-0.58630 0.71872-0.80968 0.59590-0.02558 0.35823
  -1   2  -677036.74 1439.43   1-0.22851 0.09395-0.73189 0.94707-0.64195 0.30697
   1  -2   7 9043.02  311.62   1-0.53144 0.65651-0.84616 0.62134-0.03958 0.42768
  -1   2  -7 7614.87  519.52   1-0.22842 0.10119-0.73820 0.96450-0.63472 0.24391
  -1   2  -847644.20 1339.42   1-0.22841 0.10851-0.73885 0.97628-0.63397 0.18732
  -1   2  -9 7710.18  627.99   1-0.22846 0.11589-0.73541 0.98398-0.63793 0.13546
  -1   2 -10  454.88  390.02   1-0.22854 0.12330-0.72884 0.98853-0.64540 0.08710
  -1   2 -11  -69.41  254.61   1-0.22861 0.13069-0.71973 0.99055-0.65553 0.04139
  -1   2 -12 1519.69  453.09   1-0.22863 0.13805-0.70846 0.99042-0.66768-0.00228
  -1   2 -13  767.33  418.51   1-0.22858 0.14532-0.69530 0.98838-0.68139-0.04439
  -1   2 -14  933.67  386.10   1-0.22843 0.15250-0.68039 0.98461-0.69633-0.08529
  -1   2 -15  685.66  417.48   1-0.22815 0.15955-0.66386 0.97921-0.71220-0.12525
   1  -1 -15  -60.31  230.35   1-0.22827 0.49884-0.74725 0.84002-0.62410-0.21335
   1  -1 -14 2600.77  590.52   1-0.22766 0.49090-0.76967 0.85130-0.59646-0.18516
   1  -1 -13  238.46  329.14   1-0.22678 0.48269-0.79099 0.86150-0.56824-0.15755
   1  -1 -12  230.28  255.48   1-0.23178 0.48035-0.80767 0.86770-0.54215-0.12785
   1  -1 -11  162.05  139.64   1-0.23038 0.47163-0.82709 0.87593-0.51267-0.10149
   1  -1 -10  228.90  195.61   1 0.46519-0.23126-0.86508 0.90039-0.18765-0.36852
   1  -1 -10  272.98  162.05   1-0.22867 0.46261-0.84564 0.88328-0.48227-0.07606
   1  -1  -939008.42  925.49   1 0.36476-0.13827-0.91293 0.93850-0.18300-0.31635
   1  -1  -930214.88 1024.06   1-0.22663 0.45326-0.86341 0.88986-0.45071-0.05178
   1  -1  -816586.77  573.20   1 0.27125-0.05217-0.94675 0.96132-0.17343-0.27044
   1  -1  -812411.94  601.98   1-0.22422 0.44354-0.88052 0.89578-0.41761-0.02905
   1  -1  -7 7607.17  392.17   1 0.17991 0.03174-0.97012 0.97368-0.16274-0.22565
   1  -1  -7 5461.05  898.82   1-0.22137 0.43337-0.89710 0.90117-0.38235-0.00848
   1  -1  -6   94.04  133.65   1 0.09130 0.11293-0.98428 0.97684-0.15117-0.18173
   1  -1  -6   58.88   61.10   1-0.21793 0.42262-0.91338 0.90626-0.34384 0.00884
   1  -1  -510134.25  427.80   1 0.00203 0.19312-0.99043 0.97117-0.13797-0.13972
   1  -1  -5 7646.34  547.72   1-0.21362 0.41100-0.92971 0.91139-0.30000 0.02083
   1  -1  -444829.88  815.52   1-0.07894 0.26688-0.98897 0.95884-0.12525-0.09690
   1  -1  -435681.89  729.91   1-0.20780 0.39786-0.94666 0.91715-0.24626 0.02292
   1  -1  -341603.93  805.51   1-0.15464 0.33537-0.98154 0.94052-0.11252-0.05409
   1  -1  -331849.51  552.31   1-0.19858 0.38144-0.96545 0.92439-0.16868 0.00084
   1  -1  -1973112.861644.57   1-0.28807 0.45378-0.95301 0.89029-0.09365 0.03821
   1  -1   0349728.9 3128.65   1-0.33997 0.49833-0.93675 0.86299-0.08308 0.08308
   1  -1   0270933.117161.44   1-0.22863 0.38925-0.70596 0.63177-0.67032 0.67032
   1  -1   1105243.1 1204.88   1-0.38074 0.53176-0.92168 0.83687-0.07443 0.12987
  -1   1  -185706.05  907.04   1-0.22831 0.07501-0.67232 0.75764-0.70417 0.64834
   1  -1   2191399.1 1846.35   1-0.40788 0.55157-0.91045 0.81460-0.06850 0.17938
  -1   1  -2158361.3 1602.67   1-0.22702 0.08105-0.78597 0.88243-0.57506 0.46340
   1  -1   3 2643.41  188.29   1-0.41796 0.55430-0.90604 0.79915-0.06626 0.23259
  -1   1  -3 2533.14  422.73   1-0.23055 0.09169-0.82495 0.93279-0.51604 0.34854
   1  -1   418473.91  358.17   1-0.40557 0.53456-0.91145 0.79352-0.06901 0.29078
  -1   1  -417004.40 1660.22   1-0.22936 0.09781-0.83864 0.95768-0.49403 0.27069
   1  -1   5103975.1 1094.77   1-0.36084 0.48249-0.92929 0.80032-0.07869 0.35590
  -1   1  -591100.97 2077.81   1-0.22904 0.10480-0.84199 0.97222-0.48845 0.20928
  -1   1  -6 2235.84  381.43   1-0.22926 0.11234-0.83973 0.98115-0.49223 0.15722
  -1   1  -7 1168.47  242.76   1-0.22979 0.12019-0.83392 0.98653-0.50176 0.11092
  -1   1  -846485.76 3222.82   1-0.23050 0.12821-0.82558 0.98938-0.51505 0.06838
  -1   1  -910629.89 1527.94   1-0.23127 0.13630-0.81526 0.99026-0.53089 0.02839
  -1   1 -10 2103.70  406.50   1-0.23205 0.14438-0.80328 0.98947-0.54852-0.00981
  -1   1 -1121162.17  994.58   1-0.22676 0.14675-0.79144 0.98807-0.56761-0.04651
  -1   1 -12  280.11  402.58   1-0.22741 0.15473-0.77673 0.98449-0.58734-0.08262
  -1   1 -13 1285.80  429.14   1-0.22794 0.16260-0.76071 0.97960-0.60774-0.11804
  -1   1 -14  383.79  371.59   1-0.22834 0.17032-0.74341 0.97343-0.62864-0.15298
  -1   1 -15 2526.18  599.62   1-0.22857 0.17789-0.72485 0.96600-0.64987-0.18758
   1   0 -15  451.08  388.22   1-0.22858 0.48124-0.69557 0.86253-0.68112-0.15633
   1   0 -14  513.36  400.56   1-0.22862 0.47395-0.71619 0.87202-0.65939-0.12223
   1   0 -13 2662.49  556.60   1-0.22846 0.46646-0.73545 0.88015-0.63788-0.08790
   1   0 -12   17.81  218.77   1-0.22813 0.45881-0.75337 0.88693-0.61675-0.05321
   1   0 -11 5803.27 1130.92   1-0.22766 0.45100-0.76990 0.89234-0.59617-0.01796
   1   0 -10  596.85  189.66   1 0.69235-0.47563-0.69379 0.80354-0.19822-0.35789
   1   0 -10  781.50  359.74   1-0.22706 0.44307-0.78499 0.89630-0.57639 0.01808
   1   0  -9 4536.77  449.56   1 0.61562-0.40750-0.76315 0.86108-0.19645-0.30410
   1   0  -9 3841.59  515.44   1-0.22639 0.43507-0.79851 0.89869-0.55777 0.05530
   1   0  -8 1771.86  249.39   1 0.54041-0.33973-0.81902 0.90607-0.19272-0.25222
   1   0  -8 1640.01  322.37   1-0.23184 0.43274-0.80677 0.89630-0.54347 0.09680
   1   0  -731609.08  750.06   1 0.46630-0.27306-0.86447 0.94063-0.18774-0.20158
   1   0  -724458.20  798.56   1-0.23120 0.42479-0.81628 0.89462-0.52935 0.13851
   1   0  -6 4333.66  278.48   1 0.39122-0.20571-0.90141 0.96743-0.18544-0.14746
   1   0  -6 3965.05  848.30   1-0.23071 0.41699-0.82289 0.89004-0.51924 0.18424
   1   0  -549756.24  864.50   1 0.32221-0.14412-0.92962 0.98463-0.17883-0.09859
   1   0  -538803.66  822.43   1-0.23053 0.40949-0.82514 0.88110-0.51573 0.23656
   1   0  -433714.73  674.11   1 0.25706-0.08638-0.95098 0.99500-0.17185-0.05008
   1   0  -427094.11  602.15   1-0.23094 0.40259-0.81984 0.86461-0.52394 0.30060
   1   0  -3107430.1 1287.54   1 0.19713-0.03387-0.96641 0.99942-0.16485-0.00160
   1   0  -383093.61 1022.27   1-0.22610 0.39080-0.80356 0.83695-0.55060 0.38311
   1   0  -218755.82  430.58   1 0.14425 0.01159-0.97680 0.99881-0.15822 0.04725
   1   0  -214068.54  286.65   1-0.22846 0.38584-0.73568 0.75794-0.63762 0.52596
   1   0  -1  252.58  148.26   1 0.10087 0.04755-0.98314 0.99414-0.15247 0.09699
  -1   0   1   61.74   42.16   1-0.22553 0.07548-0.81256 0.80143-0.53747 0.59330
   1   0  -1   72.68   48.07   1-0.21065 0.36033-0.42685 0.43798-0.87944 0.82360
   1   0   0  287.29   74.09   1 0.07027 0.07027-0.98649 0.98649-0.14797 0.14797
   1   0   1  475.96  102.98   1 0.05909 0.07423-0.98746 0.97658-0.14638 0.20192
   1   0   1  601.58  121.90   1-0.11674 0.25155-0.95168 0.94058 0.28400-0.22805
  -1   0  -1  551.81  111.48   1-0.16895 0.03414-0.98541 0.99651 0.02012-0.07607
   1   0   278773.63  879.05   1 0.07247 0.05372-0.98624 0.96423-0.14857 0.25954
  -1   0  -268637.64  888.38   1-0.18978 0.06234-0.97584 0.99804-0.10815-0.00373
   1   0   340405.48  534.21   1 0.12695-0.00817-0.97957 0.94656-0.15596 0.32242
  -1   0  -335528.25  732.01   1-0.19992 0.07984-0.96345 0.99675-0.17828 0.01044
   1   0   4117976.6 1091.53   1 0.24970-0.13834-0.95309 0.90908-0.17102 0.39296
  -1   0  -4103550.0 1442.34   1-0.20671 0.09400-0.95116 0.99555-0.22926 0.00547
   1   0   5286842.0 2286.04   1 0.50967-0.40574-0.83894 0.78454-0.19080 0.46889
  -1   0  -5255199.5 2848.65   1-0.21082 0.10500-0.93849 0.99445-0.27345-0.00571
  -1   0  -6 4096.55  677.72   1-0.21475 0.11625-0.92578 0.99293-0.31113-0.02387
  -1   0  -711649.22 1358.41   1-0.21812 0.12693-0.91255 0.99089-0.34592-0.04490
  -1   0  -8  932.40  215.24   1-0.22107 0.13719-0.89868 0.98821-0.37880-0.06786
  -1   0  -911562.60 1200.47   1-0.22366 0.14709-0.88409 0.98481-0.41031-0.09219
  -1   0 -10 2679.37  570.38   1-0.22594 0.15669-0.86871 0.98062-0.44078-0.11755
  -1   0 -11 4283.59 1048.96   1-0.22793 0.16600-0.85248 0.97559-0.47043-0.14373
  -1   0 -1232785.88 3683.10   1-0.22966 0.17504-0.83536 0.96966-0.49941-0.17059
  -1   0 -13  189.92  199.88   1-0.23113 0.18382-0.81731 0.96280-0.52780-0.19803
  -1   0 -14 1215.36  398.07   1-0.22629 0.18618-0.80026 0.95609-0.55531-0.22631
  -1   0 -15  130.91  247.62   1-0.22726 0.19449-0.78027 0.94723-0.58267-0.25477
  -1   0 -16  619.63  482.79   1-0.22799 0.20254-0.75919 0.93728-0.60962-0.28366
   1   1 -15  151.53  269.66   1-0.22754 0.46229-0.63955 0.88070-0.73430-0.10315
   1   1 -14  220.12  279.18   1-0.22802 0.45544-0.65794 0.88796-0.71771-0.06391
   1   1 -13 2959.07  590.04   1-0.22834 0.44843-0.67460 0.89349-0.70197-0.02382
   1   1 -12  482.30  319.51   1-0.22853 0.44129-0.68942 0.89719-0.68735 0.01738
   1   1 -1110605.13  890.74   1-0.22862 0.43405-0.70224 0.89888-0.67422 0.06008
  -1  -1  10  226.75  117.90   1-0.85125 0.65451 0.48279-0.66933 0.20559 0.35156
   1   1 -10  106.45  216.37   1-0.22863 0.42673-0.71278 0.89828-0.66306 0.10476
  -1  -1   9 1670.98  648.14   1-0.80338 0.61394 0.55772-0.73302 0.20861 0.29282
   1   1  -9 2914.30  332.53   1 0.81130-0.62034-0.55071 0.72289-0.19622-0.30429
   1   1  -9 1877.73  365.68   1-0.22860 0.41938-0.72060 0.89497-0.65456 0.15209
   1   1  -8 9141.68  437.51   1 0.76295-0.57955-0.61540 0.77661-0.19793-0.24696
   1   1  -8 7062.69  502.38   1-0.22857 0.41202-0.72502 0.88826-0.64968 0.20304
   1   1  -7 5699.85  340.41   1 0.71582-0.53998-0.66950 0.81973-0.19837-0.19091
   1   1  -7 4358.40  798.62   1-0.22857 0.40469-0.72489 0.87700-0.64983 0.25901
   1   1  -617993.05  498.95   1 0.67101-0.50358-0.71446 0.85325-0.19818-0.13553
   1   1  -612950.79  542.99   1-0.22861 0.39740-0.71825 0.85923-0.65714 0.32216
   1   1  -5  340.27  132.08   1 0.63053-0.47054-0.75073 0.87864-0.19701-0.08107
   1   1  -5  798.82  236.37   1-0.22861 0.39007-0.70150 0.83135-0.67499 0.39584
   1   1  -426022.80  584.02   1 0.59570-0.44315-0.77901 0.89604-0.19561-0.02686
   1   1  -420242.18  560.20   1-0.22822 0.38235-0.66751 0.78623-0.70875 0.48543
   1   1  -322911.97 1530.30   1 0.56859-0.42349-0.79934 0.90548-0.19429 0.02743
   1   1  -317142.21  456.38   1-0.22612 0.37291-0.60081 0.70840-0.76673 0.59924
   1   1  -2217321.9 2104.52   1 0.55183-0.41417-0.81122 0.90648-0.19338 0.08214
   1   1  -2162876.2 1636.54   1-0.21430 0.35304-0.46966 0.56628-0.85643 0.74476
   1   1  -1999998.163328.04   1 0.54882-0.41860-0.81330 0.89768-0.19321 0.13759
   1   1  -1601716.038113.53   1-0.18221 0.31317-0.18955 0.27498-0.96481 0.90901
   1   1   048225.55  711.60   1 0.56393-0.44115-0.80269 0.87620-0.19404 0.19404
   1   1   1 8555.59  270.65   1 0.60259-0.48726-0.77362 0.83624-0.19591 0.25153
   1   1   2110272.8 1137.78   1 0.67076-0.56286-0.71470 0.76644-0.19817 0.30941
  -1  -1  -3 4516.57  167.73   1-0.77653 0.67479 0.59421-0.63463 0.20952-0.37667
   1   1   3 5694.34  193.76   1 0.77067-0.67039-0.60576 0.64624-0.19775 0.36459
  -1  -1  -3 5398.85  372.25   1-0.13489 0.03340-0.97058 0.92951 0.19941-0.36725
  -1  -1  -4 2474.96  303.55   1-0.90412 0.81005 0.37686-0.40532 0.20133-0.42369
  -1  -1  -4 3290.74  727.65   1-0.16082 0.06669-0.98478 0.95481 0.06581-0.28960
  -1  -1  -621708.63  954.18   1-0.19003 0.11063-0.97561 0.96785-0.10979-0.22588
  -1  -1  -791261.88 1619.78   1-0.19932 0.12729-0.96436 0.96769-0.17399-0.21763
  -1  -1  -814282.55 1527.71   1-0.20674 0.14207-0.95110 0.96553-0.22948-0.21809
  -1  -1  -9 6181.24  873.65   1-0.21154 0.15339-0.93636 0.96281-0.28012-0.22238
  -1  -1 -10  699.37  293.87   1-0.21614 0.16531-0.92063 0.95827-0.32514-0.23319
  -1  -1 -11  540.82  266.70   1-0.22002 0.17650-0.90388 0.95271-0.36684-0.24732
  -1  -1 -12  588.62  287.70   1-0.22332 0.18711-0.88616 0.94619-0.40599-0.26401
  -1  -1 -13 1990.56  591.53   1-0.22610 0.19721-0.86748 0.93870-0.44310-0.28273
  -1  -1 -14 8375.27 1416.19   1-0.22844 0.20686-0.84781 0.93022-0.47855-0.30312
  -1  -1 -15  605.19  329.37   1-0.23037 0.21611-0.82712 0.92073-0.51262-0.32488
  -1  -1 -16   27.86  269.41   1-0.23192 0.22497-0.80537 0.91016-0.54551-0.34783
   1   2 -15  243.94  284.46   1-0.22515 0.44199-0.58000 0.89535-0.78287-0.05458
   1   2 -14  363.64  384.67   1-0.22590 0.43541-0.59594 0.90016-0.77059-0.01103
   1   2 -13  168.76  365.33   1-0.22649 0.42867-0.60974 0.90282-0.75954 0.03375
   1   2 -12 1404.35  428.26   1-0.22693 0.42178-0.62119 0.90314-0.75007 0.08011
   1   2 -1121647.71 1032.68   1-0.22723 0.41476-0.62998 0.90081-0.74261 0.12847
  -1  -2  1014658.95  641.20   1-0.94333 0.76486 0.27053-0.53166 0.19216 0.36374
   1   2 -1015186.13  865.00   1-0.22742 0.40761-0.63566 0.89535-0.73770 0.17940
  -1  -2   916404.85  567.59   1-0.91830 0.74715 0.34243-0.59222 0.19860 0.30170
   1   2  -914661.53  781.49   1-0.22748 0.40034-0.63752 0.88608-0.73607 0.23360
  -1  -2   8 9887.72  571.15   1-0.89274 0.72890 0.40214-0.64058 0.20318 0.24154
   1   2  -8 9490.71  593.43   1-0.22738 0.39292-0.63453 0.87196-0.73869 0.29204
  -1  -2   7  677.04  175.75   1-0.87069 0.71426 0.44765-0.67461 0.20368 0.18632
   1   2  -7  743.50  265.56   1-0.22707 0.38527-0.62506 0.85136-0.74681 0.35600
  -1  -2   6 1242.90  308.06   1-0.84869 0.69956 0.48719-0.70291 0.20580 0.12848
   1   2  -6 1422.16  214.09   1 0.85321-0.70314-0.48439 0.69705-0.19332-0.14034
   1   2  -6 1008.26  241.41   1-0.22636 0.37724-0.60655 0.82172-0.76213 0.42715
  -1  -2   581164.64 1242.77   1-0.83051 0.68869 0.51704-0.72152 0.20715 0.07142
   1   2  -594847.08 1318.89   1 0.83451-0.69199-0.51540 0.71708-0.19481-0.08325
   1   2  -569296.25 1275.35   1-0.22488 0.36843-0.57476 0.77880-0.78680 0.50765
  -1  -2   428242.84  672.28   1-0.81758 0.68307 0.53695-0.73019 0.20792 0.01493
   1   2  -433182.06  704.90   1 0.82096-0.68600-0.53639 0.72710-0.19568-0.02676
   1   2  -423876.59  673.19   1-0.21836 0.35364-0.52491 0.71814-0.82266 0.59932
  -1  -2   341976.03  792.02   1-0.81139 0.68419 0.54613-0.72813 0.20824-0.04110
   1   2  -351020.92  856.01   1 0.81410-0.68669-0.54662 0.72635-0.19607 0.02923
   1   2  -333822.74  716.94   1-0.21188 0.33969-0.44070 0.62280-0.87228 0.70478
  -1  -2   210571.40  507.11   1-0.81344 0.69355 0.54312-0.71388 0.20814-0.09671
   1   2  -212546.84  390.85   1 0.81542-0.69557-0.54467 0.71343-0.19600 0.08477
   1   2  -2 8006.38  318.35   1-0.19814 0.31848-0.30470 0.47568-0.93160 0.81993
  -1  -2   1190502.7 1991.16   1-0.82506 0.71248 0.52555-0.68507 0.20750-0.15178
   1   2  -1235125.0 2299.05   1 0.82630-0.71401-0.52826 0.68604-0.19536 0.13974
  -1  -2   0109208.4 1304.46   1-0.84710 0.74182 0.48990-0.63819 0.20594-0.20594
   1   2   0130762.9 1476.72   1 0.84762-0.74289-0.49393 0.64074-0.19380 0.19380
  -1  -2  -115877.82  386.63   1-0.87917 0.78120 0.43123-0.56827 0.20270-0.25841
  -1  -2  -2120948.7 1323.75   1-0.91763 0.82694 0.34416-0.46916 0.19874-0.30992
  -1  -2  -317093.75  374.93   1-0.95775 0.87437 0.21858-0.33223 0.18691-0.35368
  -1  -2  -480549.32  961.65   1-0.98483 0.90875 0.04891-0.15137 0.16644-0.38890
  -1  -2  -470429.01 1087.93   1-0.10737 0.03182-0.93950 0.83517 0.32527-0.54906
  -1  -2  -5 7972.76  406.80   1-0.97700 0.90820-0.16614 0.07499 0.13366-0.41174
  -1  -2  -5 7616.19  777.41   1-0.13615 0.06797-0.97164 0.87841 0.19330-0.47304
  -1  -2  -622471.54  418.37   1-0.90760 0.84699-0.41144 0.33086 0.08341-0.41608
  -1  -2  -620709.38  898.17   1-0.15715 0.09633-0.98384 0.90170 0.08579-0.42147
  -1  -2  -7 8603.31  230.42   1-0.74261 0.68952-0.66946 0.59953 0.01836-0.40633
  -1  -2  -7 7530.37 1023.59   1-0.17303 0.11958-0.98490 0.91387-0.00364-0.38798
  -1  -2  -854289.92 1354.83   1-0.18545 0.13936-0.97939 0.91946-0.07992-0.36764
  -1  -2  -9 2286.86  531.47   1-0.19544 0.15672-0.96970 0.92086-0.14654-0.35698
  -1  -2 -1012329.60 1711.85   1-0.20366 0.17231-0.95714 0.91940-0.20591-0.35355
  -1  -2 -1116452.90 2172.62   1-0.20940 0.18429-0.94248 0.91704-0.26053-0.35364
  -1  -2 -12 -141.39  226.45   1-0.21464 0.19685-0.92619 0.91194-0.30999-0.36001
  -1  -2 -13 3253.44  605.08   1-0.21905 0.20857-0.90844 0.90538-0.35601-0.36982
  -1  -2 -14  811.45  374.11   1-0.22277 0.21961-0.88936 0.89750-0.39924-0.38243
  -1  -2 -15  450.06  224.21   1-0.22589 0.23004-0.86903 0.88836-0.44016-0.39734
  -1  -2 -16 -239.29  264.50   1-0.22848 0.23994-0.84747 0.87799-0.47915-0.41419
   1   3 -14  532.68  423.06   1-0.21884 0.41046-0.53226 0.91116-0.81780 0.03612
   1   3 -13  107.77  273.61   1-0.21953 0.40367-0.54321 0.91098-0.81038 0.08453
   1   3 -12 5550.23  701.79   1-0.22002 0.39669-0.55137 0.90801-0.80471 0.13470
   1   3 -11 3971.34  629.34   1-0.22031 0.38951-0.55632 0.90182-0.80122 0.18704
  -1  -3  10  174.33  124.32   1-0.98139 0.82128 0.08649-0.42123 0.17139 0.38477
   1   3 -10  356.40  352.62   1-0.22038 0.38210-0.55747 0.89185-0.80040 0.24206
  -1  -3   918016.61  776.29   1-0.97181 0.81866 0.15272-0.47635 0.17957 0.32073
   1   3  -916784.35  885.76   1-0.22018 0.37443-0.55402 0.87726-0.80285 0.30034
  -1  -3   8  988.54  361.80   1-0.96077 0.81493 0.20610-0.51838 0.18558 0.25914
   1   3  -8 1062.50  298.57   1-0.21962 0.36640-0.54476 0.85687-0.80931 0.36264
  -1  -3   7 3566.64  718.19   1-0.94969 0.81117 0.24893-0.54987 0.19003 0.19909
   1   3  -7 3125.58  441.15   1-0.21856 0.35786-0.52799 0.82897-0.82063 0.42979
  -1  -3   6 1217.83  260.60   1-0.93982 0.80862 0.28175-0.57135 0.19323 0.14031
   1   3  -6  653.43  262.53   1-0.21671 0.34853-0.50120 0.79105-0.83775 0.50274
  -1  -3   573732.15 1270.81   1-0.93221 0.80832 0.30466-0.58291 0.19534 0.08260
   1   3  -557561.66 1226.39   1-0.21357 0.33792-0.46068 0.73940-0.86148 0.58231
  -1  -3   4142485.9 1928.59   1-0.92773 0.81115 0.31734-0.58425 0.19646 0.02589
   1   3  -4116196.4 1787.35   1-0.20826 0.32514-0.40105 0.66864-0.89206 0.66872
  -1  -3   3 8533.63  893.87   1-0.92709 0.81783 0.31912-0.57468 0.19662-0.02985
   1   3  -3 5790.64  418.08   1-0.19929 0.30869-0.31482 0.57128-0.92799 0.76048
  -1  -3   253430.17  981.43   1-0.93072 0.82877 0.30893-0.55315 0.19572-0.08454
   1   3  -237967.13  804.67   1-0.18283 0.28412-0.19419 0.43939-0.96377 0.85217
  -1  -3   1  761.09  154.47   1-0.93867 0.84403 0.28535-0.51822 0.19356-0.13797
  -1  -3   0 5963.57  647.74   1-0.95034 0.86302 0.24661-0.46814 0.18980-0.18980
  -1  -3  -137590.04  723.09   1-0.96426 0.88426 0.19072-0.40090 0.18390-0.23949
  -1  -3  -2  747.68  151.79   1-0.97772 0.90503 0.11570-0.31454 0.17513-0.28631
  -1  -3  -3130549.1 1537.09   1-0.98652 0.92117 0.01973-0.20737 0.16243-0.32928
  -1  -3  -420843.86  734.75   1-0.98467 0.92661-0.09686-0.07946 0.14505-0.36751
  -1  -3  -514380.00  421.16   1-0.96476 0.91400-0.23317 0.06817 0.12185-0.39994
  -1  -3  -6 4178.97  239.86   1-0.91989 0.87738-0.38175 0.22750 0.08975-0.42242
  -1  -3  -6 3269.83  544.57   1-0.12300 0.08077-0.95893 0.80244 0.25555-0.59123
  -1  -3  -735141.74  662.76   1-0.83947 0.80430-0.54076 0.39764 0.05344-0.44156
  -1  -3  -731670.57  934.81   1-0.14456 0.10969-0.97782 0.83242 0.15153-0.54316
  -1  -3  -8 4068.39  350.49   1-0.71830 0.69048-0.69564 0.56308 0.01066-0.45406
  -1  -3  -8 3415.32 1070.55   1-0.16175 0.13425-0.98496 0.85066 0.06069-0.50827
  -1  -3  -9 6895.47  283.47   1-0.53896 0.51910-0.84148 0.71955-0.03770-0.46127
  -1  -3  -9 6351.67 1655.56   1-0.17568 0.15554-0.98425 0.86105-0.01939-0.48413
  -1  -3 -10 2581.43  813.01   1-0.18715 0.17437-0.97812 0.86602-0.09085-0.46861
  -1  -3 -1115281.47 1865.86   1-0.19671 0.19131-0.96806 0.86706-0.15541-0.46000
  -1  -3 -12 6300.56 1063.75   1-0.20478 0.20674-0.95503 0.86513-0.21441-0.45694
  -1  -3 -13  927.65  262.26   1-0.21036 0.21830-0.93981 0.86248-0.26926-0.45658
  -1  -3 -14  520.89  223.63   1-0.21563 0.23088-0.92257 0.85643-0.31993-0.46174
  -1  -3 -15  351.64  167.46   1-0.22008 0.24264-0.90360 0.84865-0.36750-0.47000
  -1  -3 -16  112.26  229.11   1-0.22383 0.25370-0.88303 0.83928-0.41248-0.48086
   1   4 -14  601.33  505.54   1-0.21396 0.38717-0.46552 0.91877-0.85878 0.07710
   1   4 -13  103.59  268.00   1-0.21462 0.38036-0.47377 0.91590-0.85408 0.12824
   1   4 -12   77.25  246.05   1-0.21502 0.37329-0.47886 0.90985-0.85114 0.18113
   1   4 -11 1349.00  469.51   1-0.21514 0.36593-0.48033 0.90019-0.85029 0.23611
   1   4 -1023964.57 1200.15   1-0.21492 0.35824-0.47754 0.88627-0.85191 0.29357
  -1  -4   9  323.67  156.56   1-0.98719 0.85239-0.00089-0.39638 0.15952 0.34102
   1   4  -9  310.65  291.45   1-0.21430 0.35014-0.46965 0.86725-0.85644 0.35393
  -1  -4   8  219.19  113.16   1-0.98501 0.85751 0.04638-0.43234 0.16610 0.27883
   1   4  -8  175.04  239.65   1-0.21314 0.34151-0.45551 0.84197-0.86433 0.41766
  -1  -4   7  602.72  190.78   1-0.98158 0.86107 0.08463-0.45942 0.17122 0.21790
   1   4  -7  506.18  291.45   1-0.21125 0.33214-0.43353 0.80887-0.87602 0.48518
  -1  -4   6 5695.81  853.63   1-0.97814 0.86494 0.11264-0.47608 0.17475 0.15878
   1   4  -6 5236.53  496.92   1-0.20831 0.32174-0.40159 0.76580-0.89180 0.55680
  -1  -4   5 1674.03  335.44   1-0.97538 0.86950 0.13141-0.48351 0.17704 0.10090
   1   4  -5 1185.12  267.70   1-0.20384 0.30979-0.35685 0.70993-0.91164 0.63247
  -1  -4   436673.67 2055.72   1-0.97387 0.87530 0.14080-0.48155 0.17817 0.04418
   1   4  -427868.13  863.58   1-0.19710 0.29557-0.29566 0.63761-0.93473 0.71139
  -1  -4   3 4357.63  677.31   1-0.97393 0.88267 0.14043-0.46984 0.17812-0.01135
   1   4  -3 2723.22  434.70   1-0.18555 0.27575-0.21485 0.54547-0.95885 0.79146
  -1  -4   2182252.3 2329.19   1-0.97564 0.89170 0.12977-0.44783 0.17684-0.06566
  -1  -4   1  711.95  184.79   1-0.97875 0.90212 0.10813-0.41484 0.17419-0.11860
  -1  -4   021486.99  984.41   1-0.98261 0.91329 0.07476-0.37013 0.16994-0.16994
  -1  -4  -117244.31 1363.17   1-0.98610 0.92420 0.02854-0.31267 0.16366-0.21927
  -1  -4  -2 1172.01  236.26   1-0.98741 0.93280-0.03020-0.24261 0.15526-0.26649
  -1  -4  -379450.89 1463.15   1-0.98425 0.93693-0.10216-0.15933 0.14420-0.31105
  -1  -4  -421200.75 1091.90   1-0.97370 0.93366-0.18705-0.06312 0.13006-0.35252
  -1  -4  -5176714.0 2078.82   1-0.95286 0.92110-0.28290 0.04386 0.10962-0.38684
  -1  -4  -6 4468.58  288.59   1-0.91713 0.89271-0.38867 0.16074 0.08829-0.42096
  -1  -4  -722702.88  652.18   1-0.86295 0.84588-0.50133 0.28454 0.06301-0.45112
  -1  -4  -722038.79 1804.41   1-0.11730 0.10102-0.95236 0.73260 0.28147-0.67310
  -1  -4  -825695.71  700.89   1-0.78818 0.77829-0.61451 0.40825 0.03365-0.47705
  -1  -4  -821937.05  870.15   1-0.13806 0.12915-0.97319 0.76453 0.18393-0.63151
  -1  -4  -9   27.64   59.09   1-0.68566 0.68310-0.72791 0.53272 0.00075-0.49957
  -1  -4  -9  262.67  140.71   1-0.15530 0.15375-0.98321 0.78565 0.09572-0.59925
  -1  -4 -10  519.90  168.80   1-0.54856 0.55415-0.83536 0.65070-0.03529-0.51913
  -1  -4 -10  745.33  262.63   1-0.16970 0.17551-0.98536 0.79890 0.01580-0.57527
  -1  -4 -11  136.45  127.76   1-0.18183 0.19501-0.98167 0.80631-0.05700-0.55841
  -1  -4 -12 4930.37 1883.17   1-0.19212 0.21266-0.97353 0.80926-0.12377-0.54759
  -1  -4 -13 6157.25 1523.32   1-0.20091 0.22881-0.96189 0.80872-0.18546-0.54184
  -1  -4 -14  439.58  285.36   1-0.20742 0.24108-0.94761 0.80721-0.24288-0.53878
  -1  -4 -15 1008.97  262.46   1-0.21326 0.25424-0.93090 0.80168-0.29653-0.54097
  -1  -4 -16  936.24  326.45   1-0.21823 0.26652-0.91209 0.79406-0.34706-0.54627
   1   5 -13  155.40  294.37   1-0.20848 0.35582-0.40337 0.91985-0.89096 0.16511
   1   5 -12  -40.67  256.05   1-0.20871 0.34857-0.40579 0.91114-0.88981 0.21979
   1   5 -11  728.97  404.31   1-0.20857 0.34096-0.40433 0.89854-0.89051 0.27633
   1   5 -10 1450.65  431.77   1-0.20800 0.33292-0.39836 0.88144-0.89333 0.33498
  -1  -5   913465.90  992.97   1-0.98238 0.86561-0.12278-0.34836 0.14088 0.35966
   1   5  -910673.37 1014.99   1-0.20691 0.32435-0.38710 0.85905-0.89852 0.39601
  -1  -5   8 2410.88  491.28   1-0.98575 0.87627-0.08069-0.37913 0.14759 0.29733
   1   5  -8 1753.16  412.03   1-0.20515 0.31511-0.36950 0.83033-0.90629 0.45962
  -1  -5   7 9179.51  709.77   1-0.98713 0.88494-0.04740-0.40110 0.15269 0.23661
   1   5  -7 7493.27  642.56   1-0.20251 0.30501-0.34426 0.79395-0.91676 0.52592
  -1  -5   614776.92  766.83   1-0.98743 0.89253-0.02254-0.41465 0.15639 0.17730
   1   5  -6 9978.15  696.76   1-0.19871 0.29372-0.30970 0.74826-0.92983 0.59482
  -1  -5   5 3548.51  697.83   1-0.98729 0.89968-0.00594-0.41993 0.15879 0.11928
   1   5  -5 2215.40  355.69   1-0.19331 0.28085-0.26378 0.69121-0.94501 0.66583
  -1  -5   4   22.77   99.85   1-0.98711 0.90679 0.00235-0.41691 0.15998 0.06247
   1   5  -4   27.40  174.11   1-0.18429 0.26341-0.20519 0.62124-0.96121 0.73801
  -1  -5   353506.10 1269.30   1-0.98711 0.91408 0.00220-0.40545 0.15996 0.00688
  -1  -5   213386.48 1430.35   1-0.98730 0.92156-0.00661-0.38531 0.15870-0.04747
  -1  -5   1  853.51  202.18   1-0.98743 0.92898-0.02440-0.35621 0.15611-0.10050
  -1  -5   0 8954.32 1261.73   1-0.98702 0.93586-0.05145-0.31785 0.15208-0.15208
  -1  -5  -154196.76 1256.88   1-0.98529 0.94142-0.08800-0.26998 0.14645-0.20206
  -1  -5  -234589.80 1481.67   1-0.98115 0.94457-0.13417-0.21249 0.13901-0.25024
  -1  -5  -355923.46 1147.11   1-0.97321 0.94391-0.18991-0.14544 0.12956-0.29641
  -1  -5  -422780.79  792.92   1-0.95976 0.93775-0.25487-0.06916 0.11786-0.34033
  -1  -5  -535310.80  885.16   1-0.93932 0.92566-0.32787 0.01515 0.10081-0.37804
  -1  -5  -6  529.79  193.18   1-0.90905 0.90273-0.40809 0.10650 0.08413-0.41680
  -1  -5  -7 6965.91  438.36   1-0.86700 0.86802-0.49408 0.20361 0.06472-0.45284
  -1  -5  -816946.94  652.22   1-0.81236 0.82041-0.58160 0.30164 0.04232-0.48572
  -1  -5  -812759.93 1583.83   1-0.11638 0.12605-0.95124 0.66822 0.28562-0.73320
  -1  -5  -916952.59  617.23   1-0.74000 0.75537-0.67237 0.40348 0.01752-0.51634
  -1  -5  -913402.54 2281.13   1-0.13590 0.15293-0.97143 0.69950 0.19454-0.69806
  -1  -5 -10 5774.44  497.21   1-0.64844 0.67115-0.76119 0.50336-0.01001-0.54422
  -1  -5 -10 3994.97  765.56   1-0.15258 0.17698-0.98213 0.72130 0.11015-0.66962
  -1  -5 -1111513.33 1693.03   1-0.16686 0.19862-0.98545 0.73573 0.03207-0.64749
  -1  -5 -1211938.39 1592.57   1-0.17912 0.21825-0.98300 0.74437-0.04027-0.63108
  -1  -5 -13  423.10  230.95   1-0.18969 0.23619-0.97593 0.74840-0.10755-0.61976
  -1  -5 -14  417.46  170.50   1-0.19882 0.25268-0.96511 0.74868-0.17037-0.61288
  -1  -5 -15  241.13  205.80   1-0.20672 0.26794-0.95114 0.74581-0.22931-0.60988
  -1  -5 -16  376.31  161.64   1-0.21200 0.27870-0.93496 0.74266-0.28443-0.60891
   1   6 -12  101.39  290.20   1-0.20128 0.32274-0.33283 0.91253-0.92125 0.25123
   1   6 -11  188.60  372.28   1-0.20086 0.31484-0.32902 0.89759-0.92270 0.30853
   1   6 -10 1144.40  443.00   1-0.19994 0.30644-0.32064 0.87807-0.92585 0.36751
  -1  -6   9  738.00  181.11   1-0.96706 0.86832-0.22237-0.32262 0.12381 0.37673
   1   6  -9  625.21  483.68   1-0.19840 0.29743-0.30697 0.85328-0.93080 0.42829
  -1  -6   8 3098.59  571.18   1-0.97414 0.88269-0.18439-0.34928 0.13052 0.31440
   1   6  -8 3108.77  625.49   1-0.19610 0.28766-0.28716 0.82234-0.93759 0.49091
  -1  -6   7  218.93  126.76   1-0.97867 0.89450-0.15424-0.36813 0.13567 0.25364
   1   6  -7  205.36  270.00   1-0.19286 0.27695-0.26016 0.78420-0.94610 0.55526
  -1  -6   610975.85 1528.21   1-0.98144 0.90457-0.13157-0.37948 0.13944 0.19425
   1   6  -6 9372.95  819.56   1-0.18695 0.26250-0.22578 0.73831-0.95606 0.62127
  -1  -6   5 3150.39  465.92   1-0.98302 0.91344-0.11621-0.38352 0.14195 0.13613
   1   6  -5 1677.16  344.63   1-0.18097 0.24901-0.18037 0.68183-0.96680 0.68781
  -1  -6   4 3773.81  610.60   1-0.98376 0.92146-0.10812-0.38029 0.14325 0.07921
  -1  -6   3 7401.21 1115.40   1-0.98382 0.92882-0.10733-0.36977 0.14338 0.02346
  -1  -6   2  992.17  253.57   1-0.98324 0.93552-0.11391-0.35188 0.14232-0.03109
  -1  -6   128301.51 1683.63   1-0.98184 0.94141-0.12796-0.32651 0.14003-0.08442
  -1  -6   0  668.43  165.89   1-0.97928 0.94614-0.14959-0.29356 0.13645-0.13645
  -1  -6  -127581.08 2095.21   1-0.97505 0.94920-0.17885-0.25299 0.13148-0.18709
  -1  -6  -2 4148.59  853.46   1-0.96842 0.94986-0.21571-0.20481 0.12500-0.23624
  -1  -6  -322200.27  819.08   1-0.95849 0.94722-0.26005-0.14916 0.11690-0.28375
  -1  -6  -469981.1711356.59   1-0.94445 0.94154-0.31175-0.08576 0.10401-0.32579
  -1  -6  -5  362.44  214.63   1-0.92462 0.92906-0.36952-0.01687 0.09231-0.36954
  -1  -6  -6 1168.17  264.24   1-0.89787 0.90965-0.43317 0.05791 0.07864-0.41131
  -1  -6  -7 1448.92  292.08   1-0.86271 0.88183-0.50176 0.13763 0.06291-0.45102
  -1  -6  -8  879.03  341.54   1-0.81757 0.84404-0.57405 0.22104 0.04503-0.48859
  -1  -6  -8  779.27  345.71   1-0.09787 0.12612-0.92562 0.56823 0.36556-0.81314
  -1  -6  -9 1285.38  263.53   1-0.76254 0.79585-0.64645 0.30386 0.02490-0.52372
  -1  -6  -9  932.50  415.97   1-0.11862 0.15424-0.95393 0.60764 0.27556-0.77908
  -1  -6 -10  547.21  215.27   1-0.69269 0.73333-0.72122 0.38969 0.00285-0.55709
  -1  -6 -10  440.90  214.49   1-0.13680 0.17978-0.97217 0.63698 0.19014-0.74961
  -1  -6 -11 6963.26  608.86   1-0.60743 0.65540-0.79408 0.47361-0.02133-0.58833
  -1  -6 -11 5213.83 1365.96   1-0.15267 0.20302-0.98217 0.65808 0.10963-0.72505
  -1  -6 -1211926.01 1758.49   1-0.16652 0.22424-0.98545 0.67245 0.03398-0.70534
  -1  -6 -13 7592.00 1369.35   1-0.17860 0.24368-0.98322 0.68132-0.03708-0.69022
  -1  -6 -14  283.79  222.55   1-0.18915 0.26159-0.97643 0.68563-0.10394-0.67931
  -1  -6 -15  480.02  202.60   1-0.19835 0.27816-0.96580 0.68610-0.16698-0.67222
   1   7 -11 2255.96  706.22   1-0.19221 0.28778-0.25482 0.89774-0.94769 0.33351
   1   7 -10  344.88  275.97   1-0.18951 0.27647-0.24604 0.87718-0.95055 0.39256
  -1  -7   9   25.38  126.27   1-0.94591 0.86562-0.30696-0.30888 0.10495 0.39404
   1   7  -9  820.03  427.85   1-0.18758 0.26705-0.23072 0.85079-0.95476 0.45257
  -1  -7   8  178.73  209.36   1-0.95572 0.88278-0.27225-0.33246 0.11165 0.33190
   1   7  -8  131.69  271.83   1-0.18486 0.25682-0.20957 0.81858-0.96015 0.51376
  -1  -7   7 1191.18  292.65   1-0.96237 0.89623-0.24383-0.35239 0.11990 0.26940
   1   7  -7 1171.93  446.23   1-0.18116 0.24562-0.18178 0.77973-0.96650 0.57591
  -1  -7   6   12.04   94.62   1-0.96699 0.90814-0.22271-0.36220 0.12375 0.20994
  -1  -7   5  479.41  203.74   1-0.96991 0.91835-0.20807-0.36552 0.12636 0.15171
  -1  -7   4 1479.50  365.57   1-0.97145 0.92718-0.19983-0.36245 0.12782 0.09463
  -1  -7   3 2880.70  435.01   1-0.97179 0.93481-0.19795-0.35301 0.12815 0.03869
  -1  -7   2   55.17  141.16   1-0.97097 0.94128-0.20243-0.33722 0.12736-0.01613
  -1  -7   119946.27 2661.98   1-0.96890 0.94650-0.21328-0.31505 0.12544-0.06982
  -1  -7   018614.51 2559.03   1-0.96534 0.95023-0.23051-0.28650 0.12234-0.12234
  -1  -7  -1 2500.67  493.00   1-0.95994 0.95212-0.25410-0.25160 0.11801-0.17362
  -1  -7  -2  119.44  259.10   1-0.95236 0.95286-0.28470-0.20874 0.10927-0.22016
  -1  -7  -3 9588.24  617.82   1-0.94171 0.94955-0.32049-0.16182 0.10228-0.26862
  -1  -7  -426093.56  959.25   1-0.92739 0.94258-0.36210-0.10908 0.09385-0.31563
  -1  -7  -5  323.31  286.13   1-0.90859 0.93112-0.40916-0.05089 0.08390-0.36112
  -1  -7  -6 8755.15  600.02   1-0.88434 0.91422-0.46118 0.01225 0.07235-0.40502
  -1  -7  -7 8372.10  589.20   1-0.85362 0.89084-0.51751 0.07970 0.05913-0.44725
  -1  -7  -8 3035.27  455.44   1-0.81666 0.86058-0.57544 0.14808 0.04391-0.48730
  -1  -7  -9 1628.67  329.65   1-0.76981 0.82105-0.63768 0.22139 0.02734-0.52616
  -1  -7  -9 1579.54  318.34   1-0.10408 0.15828-0.93486 0.51421 0.33940-0.84293
  -1  -7 -10   34.57  155.86   1-0.71288 0.77146-0.70122 0.29599 0.00899-0.56323
  -1  -7 -10  162.93  161.17   1-0.12303 0.18460-0.95896 0.54941 0.25543-0.81490
  -1  -7 -11  598.03  259.82   1-0.64442 0.71032-0.76458 0.37042-0.01115-0.59851
  -1  -7 -11  449.17  265.17   1-0.13992 0.20885-0.97461 0.57615 0.17478-0.79020
  -1  -7 -12  589.46  232.41   1-0.15490 0.23120-0.98307 0.59571 0.09783-0.76919
  -1  -7 -13  387.21  214.65   1-0.16816 0.25182-0.98545 0.60919 0.02466-0.75197
  -1  -7 -14  353.20  174.38   1-0.17986 0.27089-0.98266 0.61751-0.04482-0.73843
  -1  -7 -15   49.70  289.33   1-0.19018 0.28858-0.97547 0.62141-0.11081-0.72839
   1   8 -10  575.18  430.05   1-0.17982 0.24820-0.17189 0.87739-0.96856 0.41057
   1   8  -9 1183.71  472.35   1-0.17757 0.23845-0.15567 0.85010-0.97171 0.46952
  -1  -8   8  347.77  218.01   1-0.93258 0.87773-0.34773-0.33066 0.09680 0.34675
  -1  -8   7  465.41  239.63   1-0.94127 0.89377-0.32185-0.34541 0.10201 0.28609
  -1  -8   6 3728.08  545.29   1-0.94742 0.90726-0.30193-0.35420 0.10594 0.22672
  -1  -8   5 2669.28  508.58   1-0.95150 0.91869-0.28780-0.35720 0.10868 0.16854
  -1  -8   422003.24 2136.30   1-0.95383 0.92836-0.27933-0.35454 0.11030 0.11147
  -1  -8   3   91.05  184.01   1-0.95460 0.93648-0.27646-0.34628 0.11085 0.05548
  -1  -8   2  -47.74  188.97   1-0.95388 0.94310-0.27914-0.33248 0.11034 0.00054
  -1  -8   1  176.91  301.82   1-0.95163 0.94819-0.28733-0.31316 0.10877-0.05332
  -1  -8   055173.46 1467.43   1-0.94770 0.95161-0.30098-0.28838 0.10612-0.10612
  -1  -8  -1  318.10  351.15   1-0.94185 0.95311-0.32003-0.25820 0.10237-0.15782
  -1  -8  -216493.42  860.25   1-0.93375 0.95235-0.34438-0.22272 0.09748-0.20837
  -1  -8  -312671.02  797.52   1-0.92295 0.94889-0.37389-0.18209 0.09140-0.25774
  -1  -8  -4 2154.60  408.29   1-0.90894 0.94223-0.40834-0.13652 0.08408-0.30586
  -1  -8  -512649.00  737.40   1-0.89112 0.93175-0.44744-0.08629 0.07546-0.35268
  -1  -8  -6  276.79  285.78   1-0.86878 0.91676-0.49083-0.03177 0.06549-0.39816
  -1  -8  -7  862.72  302.44   1-0.84118 0.89650-0.53803 0.02655 0.05412-0.44223
  -1  -8  -8  120.08  188.04   1-0.80878 0.87064-0.58667 0.08561 0.04101-0.48441
  -1  -8  -9 3138.42  487.37   1-0.76827 0.83745-0.63956 0.14957 0.02682-0.52564
  -1  -8 -10 4428.25  540.47   1-0.71976 0.79627-0.69413 0.21520 0.01112-0.56536
  -1  -8 -10 3353.37  771.83   1-0.11161 0.19176-0.94520 0.46128 0.30680-0.86627
  -1  -8 -11  165.52  192.53   1-0.12900 0.21651-0.96516 0.49234 0.22761-0.84303
  -1  -8 -12 2709.49  999.78   1-0.14468 0.23957-0.97789 0.51618 0.15092-0.82229
  -1  -8 -13  -37.05  263.59   1-0.15876 0.26101-0.98430 0.53368 0.07708-0.80439
  -1  -8 -14   74.34  141.88   1-0.17135 0.28096-0.98519 0.54566 0.00623-0.78949
  -1  -9   8  285.51  229.09   1-0.90620 0.86945-0.41467-0.33739 0.08270 0.36085
  -1  -9   7  342.08  315.58   1-0.91649 0.88709-0.39026-0.35067 0.08795 0.30015
  -1  -9   6   61.68  174.40   1-0.92398 0.90192-0.37121-0.35859 0.09196 0.24070
  -1  -9   5 3437.31  613.93   1-0.92914 0.91442-0.35735-0.36132 0.09483 0.18238
  -1  -9   4 1956.31  522.13   1-0.93228 0.92491-0.34857-0.35898 0.09663 0.12514
  -1  -9   3  560.85  276.38   1-0.93361 0.93359-0.34477-0.35164 0.09740 0.06892
  -1  -9   2 1044.15  357.04   1-0.93322 0.94054-0.34590-0.33939 0.09717 0.01371
  -1  -9   1 6256.99  685.73   1-0.93111 0.94577-0.35188-0.32228 0.09595-0.04051
  -1  -9   0 1330.29  372.61   1-0.92719 0.94920-0.36266-0.30038 0.09374-0.09374
  -1  -9  -1 6379.32  775.68   1-0.92130 0.95065-0.37815-0.27376 0.09051-0.14595
  -1  -9  -219438.81 1000.95   1-0.91320 0.94990-0.39826-0.24252 0.08625-0.19714
  -1  -9  -324966.11 1129.47   1-0.90257 0.94662-0.42284-0.20681 0.08092-0.24725
  -1  -9  -421705.40 1063.76   1-0.88903 0.94042-0.45173-0.16680 0.07449-0.29627
  -1  -9  -5 4131.30  615.97   1-0.87212 0.93085-0.48468-0.12272 0.06693-0.34415
  -1  -9  -6 2562.64  528.06   1-0.85132 0.91739-0.52140-0.07487 0.05819-0.39086
  -1  -9  -7  236.93  273.94   1-0.82604 0.89946-0.56153-0.02361 0.04823-0.43635
  -1  -9  -8 1076.28  429.72   1-0.79694 0.87673-0.60293 0.02817 0.03674-0.48014
  -1  -9  -9  242.71  283.52   1-0.76088 0.84800-0.64842 0.08473 0.02435-0.52316
  -1  -9 -10  -42.80  174.17   1-0.71821 0.81266-0.69573 0.14311 0.01064-0.56488
  -1  -9 -10   61.68  240.58   1-0.10261 0.20135-0.93273 0.37445 0.34564-0.90511
  -1  -9 -11   99.93  173.76   1-0.66805 0.76982-0.74409 0.20254-0.00440-0.60526
  -1  -9 -11  294.41  220.76   1-0.12009 0.22620-0.95565 0.40847 0.26887-0.88429
  -1  -9 -12 2516.15 1025.30   1-0.13611 0.24958-0.97160 0.43552 0.19351-0.86488
  -1  -9 -13  105.70  204.09   1-0.15068 0.27151-0.98126 0.45627 0.12008-0.84740
  -1 -10   7  415.57  380.83   1-0.88888 0.87758-0.45204-0.36256 0.07442 0.31368
  -1 -10   5  109.66  184.58   1-0.90384 0.90723-0.42001-0.37234 0.08154 0.19567
  -1 -10   4   90.58  230.95   1-0.90783 0.91856-0.41092-0.37030 0.08352 0.13825
  -1 -10   310823.63  970.81   1-0.90981 0.92788-0.40632-0.36377 0.08451 0.08181
  -1 -10   2  183.99  227.72   1-0.90989 0.93531-0.40612-0.35284 0.08456 0.02632
  -1 -10   1  390.40  279.46   1-0.90811 0.94087-0.41027-0.33756 0.08366-0.02821
  -1 -10   0 1191.86  472.91   1-0.90443 0.94454-0.41868-0.31803 0.08183-0.08183
  -1 -10  -1 1448.38  496.67   1-0.89874 0.94619-0.43128-0.29430 0.07906-0.13451
  -1 -10  -2  700.62  390.77   1-0.89087 0.94566-0.44795-0.26650 0.07534-0.18623
  -1 -10  -3  125.91  261.51   1-0.88058 0.94272-0.46859-0.23474 0.07065-0.23699
  -1 -10  -417304.40 1344.28   1-0.86758 0.93706-0.49302-0.19918 0.06497-0.28675
  -1 -10  -5 6581.66  707.24   1-0.85152 0.92835-0.52106-0.16001 0.05827-0.33550
  -1 -10  -6 5295.06  654.07   1-0.83199 0.91616-0.55247-0.11747 0.05052-0.38319
  -1 -10  -7  869.19  384.94   1-0.80970 0.90010-0.58538-0.07413 0.04135-0.42932
  -1 -10  -8 1349.01  444.75   1-0.78194 0.87966-0.62255-0.02589 0.03148-0.47488
  -1 -10  -9  655.91  287.08   1-0.74917 0.85422-0.66205 0.02466 0.02049-0.51931
  -1 -10 -10 -116.63  200.50   1-0.71076 0.82314-0.70338 0.07706 0.00833-0.56258
  -1 -10 -11  861.68  376.64   1-0.66597 0.78568-0.74595 0.13070-0.00500-0.60466
  -1 -10 -11  443.78  148.14   1-0.11324 0.23793-0.94732 0.32577 0.29959-0.91501
  -1 -10 -12  177.17  260.06   1-0.12929 0.26135-0.96545 0.35501 0.22622-0.89758
  -1 -11   5  545.01  350.22   1-0.87599 0.89747-0.47741-0.38861 0.06862 0.20859
  -1 -11   4 1802.26  521.58   1-0.88086 0.90969-0.46804-0.38685 0.07078 0.15099
  -1 -11   3  510.37  316.14   1-0.88356 0.91973-0.46273-0.38103 0.07199 0.09433
  -1 -11   2  208.28  328.58   1-0.88422 0.92774-0.46142-0.37121 0.07229 0.03859
  -1 -11   1  104.29  205.78   1-0.88291 0.93377-0.46402-0.35749 0.07170-0.01626
  -1 -11   0  435.04  308.69   1-0.87962 0.93782-0.47046-0.33992 0.07022-0.07022
  -1 -11  -1  138.87  210.48   1-0.87428 0.93983-0.48065-0.31860 0.06787-0.12331
  -1 -11  -2   75.24  221.44   1-0.86677 0.93966-0.49449-0.29363 0.06463-0.17552
  -1 -11  -3 9053.93  910.59   1-0.85691 0.93715-0.51188-0.26511 0.06049-0.22682
  -1 -11  -4 1800.52  580.64   1-0.84449 0.93207-0.53268-0.23319 0.05544-0.27722
  -1 -11  -5  206.53  255.88   1-0.82922 0.92415-0.55671-0.19803 0.04945-0.32668
  -1 -11  -6   19.76  193.64   1-0.81187 0.91288-0.58230-0.16198 0.04214-0.37469
  -1 -11  -7  238.79  266.71   1-0.79001 0.89834-0.61213-0.12108 0.03429-0.42226
  -1 -11  -8  139.31  233.15   1-0.76419 0.87985-0.64448-0.07766 0.02545-0.46884
  -1 -11  -9 1827.14  433.36   1-0.73395 0.85694-0.67901-0.03206 0.01559-0.51440
  -1 -11 -10   11.81  194.60   1-0.69876 0.82907-0.71534 0.01532 0.00468-0.55892
  -1 -12   2   27.80  254.18   1-0.85634 0.91795-0.51288-0.39343 0.06025 0.05063
  -1 -12   1  711.29  419.97   1-0.85559 0.92455-0.51416-0.38102 0.05994-0.00450
  -1 -12   0  199.39  359.48   1-0.85279 0.92909-0.51892-0.36513 0.05879-0.05879
  -1 -12  -1  384.62  438.85   1-0.84790 0.93155-0.52709-0.34584 0.05680-0.11225
  -1 -12  -2  556.18  389.97   1-0.84085 0.93184-0.53856-0.32323 0.05399-0.16488
  -1 -12  -3 2813.94  641.15   1-0.83149 0.92983-0.55324-0.29743 0.05033-0.21666
  -1 -12  -4   67.24  262.94   1-0.81966 0.92534-0.57100-0.26854 0.04582-0.26760
  -1 -12  -5  584.69  438.73   1-0.80619 0.91781-0.59029-0.23875 0.04007-0.31719
  -1 -12  -6  394.60  386.75   1-0.78880 0.90774-0.61371-0.20427 0.03387-0.36642
  -1 -12  -7  -40.91  242.00   1-0.76816 0.89443-0.63969-0.16722 0.02678-0.41475
  -1 -12  -8  436.22  364.10   1-0.74392 0.87752-0.66800-0.12784 0.01878-0.46218
   2 -10  -7  374.80  326.28   1-0.40069 0.91366-0.91352 0.25314-0.07008-0.31801
   2 -10  -6  355.11  416.76   1-0.42981 0.93544-0.90067 0.22925-0.06360-0.26904
   2 -10  -5 -151.62  244.82   1-0.45534 0.95363-0.88843 0.20597-0.05778-0.21942
   2 -10  -4  153.12  262.92   1-0.47739 0.96834-0.87710 0.18360-0.05264-0.16912
   2 -10  -3  454.90  380.20   1-0.49602 0.97962-0.86696 0.16242-0.04821-0.11810
   2 -10  -2  -52.38  252.09   1-0.51128 0.98754-0.85825 0.14267-0.04453-0.06635
   2 -10  -1  287.65  271.22   1-0.52319 0.99211-0.85119 0.12457-0.04162-0.01382
   2 -10   0   67.91  267.66   1-0.53176 0.99333-0.84597 0.10830-0.03950 0.03950
   2 -10   1  162.69  266.33   1-0.53692 0.99115-0.84276 0.09406-0.03822 0.09366
   2 -10   2  -92.82  231.88   1-0.53859 0.98548-0.84171 0.08197-0.03780 0.14868
   2 -10   3  106.93  247.29   1-0.53663 0.97617-0.84294 0.07215-0.03829 0.20462
   2 -10   4 1021.45  481.20   1-0.53083 0.96302-0.84654 0.06471-0.03973 0.26150
   2  -9  -9  174.24  324.75   1-0.31920 0.82875-0.94365 0.37911-0.08737-0.41161
   2  -9  -8   -6.63  233.63   1-0.35892 0.86113-0.93000 0.35443-0.07909-0.36444
   2  -9  -7  289.41  392.79   1-0.39460 0.88947-0.91606 0.32945-0.07142-0.31667
   2  -9  -6  224.82  251.18   1-0.42639 0.91392-0.90224 0.30459-0.06437-0.26827
   2  -9  -5  388.78  261.97   1-0.45438 0.93457-0.88891 0.28021-0.05800-0.21920
   2  -9  -4   -0.02  248.50   1-0.47868 0.95152-0.87642 0.25668-0.05234-0.16943
   2  -9  -3  416.53  369.35   1-0.49936 0.96486-0.86509 0.23431-0.04741-0.11891
   2  -9  -2  -95.53  208.79   1-0.51646 0.97462-0.85521 0.21339-0.04327-0.06761
   2  -9  -1 -135.48  229.98   1-0.53003 0.98084-0.84703 0.19417-0.03993-0.01551
   2  -9   0   73.82  234.60   1-0.54004 0.98351-0.84080 0.17690-0.03743 0.03743
   2  -9   1  -38.23  205.48   1-0.54647 0.98259-0.83670 0.16177-0.03582 0.09126
   2  -9   2  921.02  409.74   1-0.54922 0.97800-0.83493 0.14895-0.03513 0.14601
   2  -9   3   23.00  230.26   1-0.54814 0.96958-0.83563 0.13861-0.03540 0.20173
   2  -9   4  266.09  361.47   1-0.54302 0.95711-0.83891 0.13085-0.03669 0.25846
   2  -9   5 -180.67  196.03   1-0.53354 0.94029-0.84487 0.12576-0.03906 0.31627
   2  -9   6 2261.48  510.97   1-0.51926 0.91867-0.85355 0.12340-0.04258 0.37524
   2  -8 -11  100.61  186.88   1-0.19179 0.70090-0.97569 0.50534-0.10596-0.50335
   2  -8 -10 1158.33  399.07   1-0.24296 0.74461-0.96521 0.48483-0.09660-0.45879
   2  -8  -9 1258.47  455.24   1-0.29787 0.78933-0.95018 0.45942-0.09169-0.40729
   2  -8  -8 1091.89  434.15   1-0.34115 0.82526-0.93635 0.43454-0.08283-0.36070
   2  -8  -7  125.98  240.40   1-0.38018 0.85694-0.92190 0.40905-0.07455-0.31354
   2  -8  -6  369.49  337.31   1-0.41508 0.88450-0.90731 0.38343-0.06690-0.26575
   2  -8  -5   21.81  244.66   1-0.44596 0.90804-0.89304 0.35811-0.05994-0.21727
   2  -8  -4  190.84  280.37   1-0.47291 0.92764-0.87947 0.33350-0.05369-0.16807
   2  -8  -3 6211.07  768.08   1-0.49598 0.94337-0.86698 0.30998-0.04822-0.11809
   2  -8  -2 1478.30  470.46   1-0.51524 0.95529-0.85593 0.28788-0.04356-0.06731
   2  -8  -1 1177.36  455.91   1-0.53071 0.96342-0.84661 0.26752-0.03976-0.01567
   2  -8   0  148.20  258.02   1-0.54239 0.96775-0.83931 0.24918-0.03685 0.03685
   2  -8   1 1325.20  470.33   1-0.55022 0.96824-0.83428 0.23311-0.03487 0.09032
   2  -8   2  714.40  449.04   1-0.55412 0.96480-0.83174 0.21952-0.03389 0.14477
   2  -8   3 2414.60  508.00   1-0.55394 0.95727-0.83186 0.20860-0.03393 0.20026
   2  -8   4 1326.36  469.96   1-0.54943 0.94542-0.83480 0.20050-0.03507 0.25685
   2  -8   5  223.35  213.10   1-0.54026 0.92890-0.84066 0.19533-0.03738 0.31459
   2  -8   6  635.68  332.97   1-0.52595 0.90725-0.84952 0.19315-0.04094 0.37359
   2  -8   7  266.75  222.74   1-0.50584 0.87980-0.86140 0.19399-0.04585 0.43395
   2  -7 -11  779.81  396.93   1-0.14894 0.63925-0.98230 0.58644-0.11350-0.49742
   2  -7 -10  591.98  323.51   1-0.20609 0.68918-0.97305 0.56631-0.10339-0.45200
   2  -7  -9  175.87  210.95   1-0.26515 0.73849-0.95919 0.54219-0.09818-0.40080
   2  -7  -8   57.97  184.38   1-0.31250 0.77850-0.94576 0.51772-0.08873-0.35480
   2  -7  -7   93.55  207.88   1-0.35540 0.81406-0.93129 0.49221-0.07984-0.30825
   2  -7  -6  380.96  342.80   1-0.39394 0.84526-0.91634 0.46622-0.07156-0.26108
   2  -7  -6   90.83   76.64   1-0.10521 0.56384-0.93647 0.48252 0.33457-0.67025
   2  -7  -5 1247.90  461.42   1-0.42821 0.87218-0.90141 0.44025-0.06397-0.21324
   2  -7  -4 4207.08  634.49   1-0.45827 0.89490-0.88697 0.41477-0.05710-0.16466
   2  -7  -3 1699.09  464.62   1-0.48418 0.91346-0.87347 0.39023-0.05104-0.11528
   2  -7  -2 3328.53  594.08   1-0.50598 0.92792-0.86132 0.36704-0.04582-0.06506
   2  -7  -1  477.76  349.30   1-0.52368 0.93828-0.85089 0.34557-0.04150-0.01394
   2  -7   0  252.83  311.14   1-0.53728 0.94453-0.84254 0.32617-0.03813 0.03813
   2  -7   1  181.77  218.74   1-0.54671 0.94662-0.83655 0.30914-0.03576 0.09120
   2  -7   2  256.35  228.55   1-0.55187 0.94445-0.83321 0.29476-0.03446 0.14534
   2  -7   3  832.82  271.21   1-0.55260 0.93782-0.83274 0.28325-0.03427 0.20060
   2  -7   432229.75 1231.35   1-0.54861 0.92650-0.83532 0.27480-0.03528 0.25705
   2  -7   5  198.99  294.90   1-0.53954 0.91008-0.84111 0.26955-0.03756 0.31477
   2  -7   6 1528.30  441.46   1-0.52483 0.88803-0.85020 0.26759-0.04121 0.37387
  -2   7  -6 1054.53  383.60   1-0.17830-0.19086-0.16087 0.74776-0.97073 0.63594
   2  -7   7   38.98  165.38   1-0.50373 0.85959-0.86261 0.26896-0.04636 0.43446
  -2   7  -7  316.66  341.98   1-0.18407-0.17759-0.20354 0.80150-0.96160 0.57101
  -2   7  -8  223.38  359.00   1-0.18838-0.16577-0.23703 0.84605-0.95306 0.50667
  -2   7  -9  183.68  269.47   1-0.19319-0.15277-0.26285 0.88351-0.94529 0.44278
  -2   7 -10  -59.55  275.50   1-0.19545-0.14304-0.28162 0.91341-0.93940 0.38106
   2  -6 -11  876.68  348.02   1-0.09266 0.56441-0.98806 0.66585-0.12300-0.48792
   2  -6 -10  175.81  244.95   1-0.15463 0.61917-0.98154 0.64845-0.11252-0.44287
   2  -6  -9 2583.74  482.55   1-0.21173 0.66905-0.97195 0.62798-0.10236-0.39749
   2  -6  -8  532.97  267.11   1-0.27022 0.71812-0.95787 0.60360-0.09719-0.34635
   2  -6  -8   74.89  124.36   1-0.16947 0.62425-0.98538 0.62799 0.01709-0.46467
   2  -6  -7  791.00  345.06   1-0.31751 0.75807-0.94418 0.57887-0.08771-0.30038
   2  -6  -7  312.67  151.61   1-0.14929 0.59670-0.98056 0.61207 0.12731-0.51894
   2  -6  -6  204.05  271.68   1-0.36024 0.79345-0.92952 0.55316-0.07881-0.25383
   2  -6  -6   44.01   79.57   1-0.12374 0.56379-0.95974 0.58015 0.25215-0.58784
   2  -6  -5  824.68  464.33   1-0.39844 0.82431-0.91447 0.52707-0.07058-0.20663
   2  -6  -4 1829.73  446.07   1-0.43215 0.85068-0.89958 0.50115-0.06308-0.15869
   2  -6  -3 4939.71  652.20   1-0.46140 0.87258-0.88539 0.47591-0.05638-0.10994
   2  -6  -224820.72 1082.02   1-0.48620 0.89004-0.87238 0.45186-0.05056-0.06032
   2  -6   0 1687.71  511.95   1-0.52238 0.91153-0.85168 0.40908-0.04182 0.04182
   2  -6   1 4867.35  661.87   1-0.53364 0.91545-0.84480 0.39116-0.03903 0.09447
   2  -6   2 1614.32  457.52   1-0.54020 0.91466-0.84070 0.37602-0.03740 0.14828
   2  -6   3 4911.27  542.90   1-0.54183 0.90895-0.83967 0.36395-0.03699 0.20332
   2  -6   4  -28.06  186.35   1-0.53822 0.89800-0.84194 0.35518-0.03789 0.25966
   2  -6   5 4858.95  506.81   1-0.52892 0.88136-0.84771 0.34991-0.04020 0.31742
  -2   6  -5 1601.93  354.27   1-0.18491-0.17316-0.20998 0.71145-0.96005 0.68106
   2  -6   611345.84  881.33   1-0.51328 0.85838-0.85708 0.34824-0.04404 0.37670
  -2   6  -6 7950.07  804.99   1-0.19331-0.15666-0.26386 0.77677-0.94498 0.60998
   2  -6   7  232.67  224.53   1-0.49037 0.82812-0.87010 0.35021-0.04957 0.43767
  -2   6  -7  181.64  292.07   1-0.19813-0.14437-0.30462 0.82867-0.93163 0.54079
   2  -6   8 2132.33  408.11   1-0.45883 0.78924-0.88669 0.35576-0.05697 0.50052
  -2   6  -8  806.49  289.77   1-0.20156-0.13347-0.33540 0.87057-0.92025 0.47358
  -2   6  -9  160.34  261.64   1-0.20396-0.12360-0.35796 0.90427-0.91118 0.40867
  -2   6 -10  696.54  322.52   1-0.20558-0.11450-0.37373 0.93117-0.90446 0.34611
  -2   6 -11  370.89  309.20   1-0.20659-0.10602-0.38383 0.95240-0.89999 0.28581
   2  -5 -12  727.89  374.65   1 0.05323 0.40717-0.98791 0.75022-0.14554-0.52093
   2  -5 -11  812.59  299.88   1-0.01858 0.47177-0.99069 0.74212-0.13482-0.47610
   2  -5 -11  -15.46  131.34   1-0.21502 0.67233-0.92482 0.67656-0.31379-0.30037
   2  -5 -10  504.84  287.58   1-0.08547 0.53145-0.98857 0.72912-0.12419-0.43120
   2  -5 -10  366.31  183.26   1-0.20811 0.65810-0.94588 0.68643-0.24898-0.30935
   2  -5  -9  388.48  312.53   1-0.14752 0.58629-0.98249 0.71216-0.11375-0.38610
   2  -5  -9  -21.44  111.42   1-0.19957 0.64313-0.96398 0.69206-0.17576-0.32775
   2  -5  -8 1370.24  335.06   1-0.20477 0.63633-0.97330 0.69210-0.10362-0.34068
   2  -5  -8  309.23  128.76   1-0.18691 0.62311-0.97830 0.69527-0.08936-0.35821
   2  -5  -7 2029.94  402.20   1-0.26287 0.68533-0.95977 0.66822-0.09862-0.28947
   2  -5  -7  553.08  238.31   1-0.17027 0.59910-0.98531 0.69119 0.01250-0.40413
   2  -5  -613689.76  771.03   1-0.31025 0.72536-0.94645 0.64387-0.08919-0.24346
   2  -5  -5  591.55  269.10   1-0.35290 0.76067-0.93220 0.61857-0.08037-0.19684
   2  -5  -5  331.72  190.15   1-0.11809 0.53218-0.95330 0.63698 0.27796-0.55769
   2  -5  -4  109.37  218.86   1-0.39080 0.79122-0.91763 0.59296-0.07225-0.14951
   2  -5  -3   20.59  202.12   1-0.42391 0.81699-0.90337 0.56766-0.06493-0.10139
   2  -5  -2 1450.34  367.18   1-0.45220 0.83794-0.88999 0.54324-0.05850-0.05237
   2  -5  -111582.66  710.64   1-0.47561 0.85400-0.87805 0.52026-0.05306-0.00237
   2  -5   0  410.45  170.81   1-0.49404 0.86509-0.86807 0.49923-0.04869 0.04869
   2  -5   117360.17  835.13   1-0.50738 0.87108-0.86052 0.48064-0.04548 0.10092
   2  -5   2 4381.02  553.45   1-0.51542 0.87178-0.85582 0.46491-0.04352 0.15441
   2  -5   3 5188.80  522.09   1-0.51789 0.86691-0.85436 0.45241-0.04292 0.20925
  -2   5  -3 3473.37  375.04   1-0.17890-0.17559-0.16525 0.57024-0.96988 0.80249
   2  -5   4  494.95  298.79   1-0.51438 0.85605-0.85644 0.44344-0.04378 0.26555
  -2   5  -4  511.25  217.24   1-0.19236-0.15416-0.25607 0.67236-0.94732 0.72398
   2  -5   553386.85 1330.03   1-0.50431 0.83864-0.86228 0.43824-0.04622 0.32343
  -2   5  -538861.55 1187.84   1-0.20026-0.13879-0.32351 0.75094-0.92478 0.64561
   2  -5   630015.47  967.62   1-0.48684 0.81383-0.87203 0.43695-0.05041 0.38306
  -2   5  -621493.32  960.94   1-0.20558-0.12599-0.37375 0.81231-0.90445 0.56945
   2  -5   7  355.96  207.72   1-0.46077 0.78042-0.88571 0.43959-0.05652 0.44462
  -2   5  -7   13.80  193.66   1-0.20916-0.11493-0.41061 0.86030-0.88749 0.49665
   2  -5   8 1660.17  315.45   1-0.42430 0.73660-0.90319 0.44603-0.06484 0.50839
  -2   5  -8  585.02  249.06   1-0.21156-0.10507-0.43705 0.89787-0.87419 0.42752
  -2   5  -9  218.18  330.86   1-0.21312-0.09603-0.45528 0.92723-0.86446 0.36195
  -2   5 -10 5678.44  735.15   1-0.21408-0.08760-0.46693 0.95002-0.85798 0.29964
  -2   5 -11 1526.20  457.79   1-0.21458-0.07962-0.47323 0.96744-0.85440 0.24022
  -2   5 -12  246.19  328.49   1-0.21473-0.07200-0.47506 0.98040-0.85334 0.18333
   2  -4 -12   26.24  117.11   1 0.15710 0.28885-0.97455 0.81275-0.15987-0.50594
   2  -4 -12   33.95  105.74   1-0.22611 0.67231-0.86744 0.70465-0.44318-0.22682
   2  -4 -11  372.51  242.82   1 0.08129 0.35725-0.98536 0.81256-0.14979-0.46053
   2  -4 -11  159.48  130.18   1-0.22243 0.66132-0.89134 0.71736-0.39499-0.21917
   2  -4 -10  959.86  297.32   1 0.00462 0.42280-0.99037 0.80456-0.13836-0.41702
   2  -4 -10  728.81  223.53   1-0.21774 0.64931-0.91420 0.72903-0.34178-0.21655
   2  -4  -9  316.73  184.54   1-0.06209 0.48230-0.98983 0.79314-0.12798-0.37187
   2  -4  -9   61.40   56.79   1-0.21171 0.63598-0.93582 0.73946-0.28177-0.22072
   2  -4  -8  313.56  270.97   1-0.12416 0.53716-0.98525 0.77769-0.11774-0.32656
   2  -4  -8  136.50  105.10   1-0.20456 0.62216-0.95547 0.74681-0.21267-0.23490
   2  -4  -7  555.20  328.82   1-0.18152 0.58731-0.97746 0.75902-0.10780-0.28097
   2  -4  -7   23.01   57.09   1-0.19281 0.60305-0.97279 0.75303-0.12844-0.26318
   2  -4  -6 1177.33  380.61   1-0.23407 0.63265-0.96724 0.73792-0.09825-0.23498
   2  -4  -6  353.65  122.71   1-0.17645 0.57933-0.98401 0.75315-0.02403-0.31165
   2  -4  -4  945.17  315.66   1-0.32892 0.71124-0.94048 0.68958-0.08537-0.13639
   2  -4  -4  424.98  154.02   1-0.11721 0.50536-0.95225 0.69919 0.28191-0.50570
   2  -4  -3 1274.63  317.83   1-0.36628 0.74125-0.92726 0.66532-0.07753-0.08879
   2  -4  -2 1734.90  336.91   1-0.39844 0.76607-0.91447 0.64148-0.07058-0.04030
   2  -4  -1  625.55  265.54   1-0.42525 0.78554-0.90276 0.61873-0.06463 0.00919
   2  -4   0  163.65  222.64   1-0.44654 0.79949-0.89275 0.59769-0.05980 0.05980
   2  -4   1  808.05  277.71   1-0.46208 0.80768-0.88505 0.57894-0.05622 0.11166
   2  -4   2 6381.25  491.04   1-0.47155 0.80981-0.88017 0.56303-0.05401 0.16490
  -2   4  -2 3675.45  317.12   1-0.17919-0.16422-0.16734 0.48690-0.96947 0.85787
   2  -4   3  540.74  233.74   1-0.47456 0.80548-0.87860 0.55041-0.05331 0.21963
  -2   4  -3  189.83  127.11   1-0.19705-0.13854-0.29523 0.62604-0.93488 0.76738
   2  -4   4 4972.61  531.65   1-0.47053 0.79410-0.88071 0.54148-0.05425 0.27602
  -2   4  -4 2843.94  345.61   1-0.20666-0.12145-0.38458 0.72652-0.89965 0.67632
   2  -4   5 9223.53  556.33   1-0.45865 0.77487-0.88678 0.53651-0.05702 0.33423
  -2   4  -5 6893.44  519.01   1-0.21245-0.10819-0.44735 0.80042-0.86875 0.58958
   2  -4   6 4662.04  463.67   1-0.43774 0.74663-0.89697 0.53566-0.06181 0.39447
  -2   4  -6 3869.25  469.50   1-0.21596-0.09720-0.49112 0.85532-0.84389 0.50888
   2  -4   712446.44  584.41   1-0.40610 0.70765-0.91122 0.53887-0.06889 0.45699
  -2   4  -711004.70  693.97   1-0.21811-0.08759-0.52118 0.89651-0.82510 0.43426
   2  -4   8 3565.08  363.03   1-0.36109 0.65529-0.92920 0.54581-0.07863 0.52218
  -2   4  -8 2923.35  435.44   1-0.21940-0.07882-0.54114 0.92761-0.81179 0.36512
  -2   4  -9  921.61  312.35   1-0.22015-0.07060-0.55349 0.95109-0.80322 0.30071
  -2   4 -10  213.56  314.99   1-0.22416-0.05961-0.56125 0.96933-0.79670 0.23840
  -2   4 -11 4205.61  577.65   1-0.22424-0.05220-0.56280 0.98201-0.79559 0.18145
  -2   4 -12   21.82  267.94   1-0.22412-0.04499-0.56050 0.99084-0.79724 0.12728
  -2   4 -13 1440.90  629.36   1-0.22018-0.04067-0.55408 0.99620-0.80281 0.07696
   2  -3 -13  158.54  162.22   1-0.22589 0.66034-0.80693 0.72905-0.54573-0.18006
   2  -3 -12  439.12  255.77   1-0.23053 0.65832-0.82524 0.73672-0.51558-0.15442
   2  -3 -11 3776.87  487.88   1 0.19698 0.22282-0.96644 0.86710-0.16483-0.44550
   2  -3 -11 2116.75  651.24   1-0.22839 0.64887-0.84827 0.74856-0.47776-0.13641
   2  -3 -10  363.78  263.81   1 0.12284 0.28955-0.98018 0.86983-0.15542-0.39942
   2  -3 -10   21.07   92.87   1-0.22568 0.63884-0.87062 0.75972-0.43711-0.12122
   2  -3  -9 1877.96  365.84   1 0.04781 0.35384-0.98831 0.86527-0.14475-0.35509
   2  -3  -9 1370.47  367.83   1-0.22223 0.62808-0.89244 0.77034-0.39263-0.10987
   2  -3  -8  509.32  330.55   1-0.01809 0.41254-0.99069 0.85677-0.13490-0.30941
   2  -3  -8  186.82  108.59   1-0.21782 0.61636-0.91385 0.78056-0.34267-0.10399
   2  -3  -7 1900.60  379.16   1-0.07957 0.46681-0.98894 0.84414-0.12515-0.26362
   2  -3  -7  959.00  339.27   1-0.21201 0.60323-0.93492 0.79044-0.28454-0.10629
   2  -3  -6 1096.62  290.70   1-0.13644 0.51646-0.98387 0.82820-0.11565-0.21757
   2  -3  -6  336.83  114.02   1-0.20396 0.58787-0.95543 0.79976-0.21342-0.12158
   2  -3  -5  942.18  319.14   1-0.18847 0.56128-0.97627 0.80973-0.10656-0.17113
   2  -3  -5  325.12  120.31   1-0.19125 0.56818-0.97443 0.80683-0.11792-0.16181
   2  -3  -411227.38  659.00   1-0.23545 0.60104-0.96693 0.78950-0.09800-0.12415
   2  -3  -4 6413.57  497.47   1-0.16911 0.53868-0.98540 0.80671 0.01917-0.24296
   2  -3  -3116522.118866.17   1-0.28105 0.63792-0.95497 0.76679-0.09505-0.07127
   2  -3  -370579.4111398.79   1-0.12808 0.49028-0.96426 0.77446 0.23193-0.39977
   2  -3  -226315.18  863.65   1-0.31698 0.66651-0.94435 0.74513-0.08782-0.02306
   2  -3  -1  150.22  172.94   1-0.34711 0.68929-0.93426 0.72400-0.08158 0.02614
   2  -3   013503.27  595.46   1-0.37108 0.70592-0.92544 0.70414-0.07650 0.07650
   2  -3   1 1070.24  264.85   1-0.38850 0.71599-0.91857 0.68623-0.07275 0.12819
   2  -3   2 7116.42  437.89   1-0.39884 0.71900-0.91430 0.67092-0.07049 0.18137
  -2   3  -2 5233.99  308.93   1-0.20021-0.12445-0.32307 0.56840-0.92495 0.81328
   2  -3   3  -35.78  130.82   1-0.40147 0.71428-0.91319 0.65877-0.06991 0.23624
  -2   3  -3  177.34  135.73   1-0.21270-0.10448-0.45036 0.70682-0.86713 0.69963
   2  -3   4 2452.26  327.57   1-0.39548 0.70095-0.91570 0.65024-0.07123 0.29300
  -2   3  -4 1966.22  300.74   1-0.21872-0.09099-0.53048 0.79807-0.81898 0.59565
   2  -3   5 6162.22  445.28   1-0.37963 0.67775-0.92211 0.64561-0.07467 0.35188
  -2   3  -5 4629.07  419.22   1-0.22534-0.07717-0.58389 0.86213-0.77992 0.50077
  -2   3  -6  132.44  180.43   1-0.22673-0.06845-0.61574 0.90510-0.75462 0.41963
   2  -3   768402.11 1120.90   1-0.31021 0.59365-0.94647 0.64788-0.08920 0.47730
  -2   3  -759069.14 1382.12   1-0.22741-0.06044-0.63536 0.93585-0.73796 0.34715
   2  -3   8 1825.08  248.71   1-0.24840 0.52744-0.96392 0.65598-0.09558 0.53989
  -2   3  -8 2300.80  456.94   1-0.22773-0.05279-0.64648 0.95810-0.72814 0.28150
  -2   3  -9 1163.13  362.78   1-0.22786-0.04533-0.65141 0.97416-0.72369 0.22122
  -2   3 -10  402.00  233.87   1-0.22787-0.03799-0.65164 0.98553-0.72348 0.16518
  -2   3 -11  391.66  303.78   1-0.22778-0.03075-0.64815 0.99317-0.72664 0.11250
  -2   3 -12  358.98  365.33   1-0.22760-0.02361-0.64161 0.99776-0.73247 0.06251
  -2   3 -13  881.46  419.35   1-0.22732-0.01656-0.63247 0.99975-0.74047 0.01467
  -2   3 -14   12.11  279.08   1-0.22692-0.00962-0.62105 0.99945-0.75019-0.03142
   2  -2 -14  263.22  278.20   1-0.22845 0.65232-0.73650 0.74395-0.63668-0.14494
   2  -2 -13   53.51  148.84   1-0.22798 0.64452-0.75936 0.75567-0.60941-0.11637
   2  -2 -12   83.91  224.38   1-0.22723 0.63644-0.78106 0.76624-0.58163-0.08833
   2  -2 -11 2548.89  422.49   1 0.33232 0.06875-0.92585 0.89997-0.17985-0.43048
   2  -2 -11 1608.32  334.39   1-0.22621 0.62808-0.80170 0.77575-0.55326-0.06087
   2  -2 -10  181.13  231.38   1 0.25810 0.13555-0.95068 0.91380-0.17197-0.38287
   2  -2 -10  166.20  105.01   1-0.23123 0.62598-0.81594 0.77931-0.52986-0.02847
   2  -2  -9 5811.14  592.14   1 0.18723 0.19900-0.96858 0.92069-0.16364-0.33572
   2  -2  -9 3522.43  920.39   1-0.22973 0.61716-0.83465 0.78682-0.50058-0.00192
   2  -2  -8 7718.70  581.24   1 0.11994 0.25888-0.98060 0.92170-0.15503-0.28884
   2  -2  -8 5177.21 1167.11   1-0.22793 0.60805-0.85255 0.79354-0.47031 0.02363
   2  -2  -7 3352.31  480.43   1 0.05220 0.31647-0.98799 0.91684-0.14539-0.24338
   2  -2  -7 1846.28  424.39   1-0.22579 0.59859-0.86982 0.79962-0.43866 0.04782
   2  -2  -626957.95  915.91   1-0.00706 0.36853-0.99060 0.90857-0.13659-0.19664
   2  -2  -619513.89  731.65   1-0.22323 0.58872-0.88670 0.80530-0.40487 0.06987
   2  -2  -5 3707.49  508.52   1-0.06179 0.41604-0.98984 0.89694-0.12802-0.14966
   2  -2  -5 2593.25  459.70   1-0.22007 0.57825-0.90366 0.81107-0.36737 0.08820
   2  -2  -4304200.5 3594.81   1-0.11158 0.45863-0.98649 0.88271-0.11986-0.10229
   2  -2  -3199196.8 2551.90   1-0.15604 0.49587-0.98134 0.86669-0.11227-0.05434
   2  -2  -2  719.50  237.96   1-0.19471 0.52732-0.97517 0.84964-0.10544-0.00563
   2  -2  -2  276.27   52.85   1-0.18887 0.52511-0.97708 0.85092-0.09812-0.01354
   2  -2  -1 7219.37  475.97   1-0.22707 0.55247-0.96877 0.83236-0.09955 0.04401
   2  -2   0 8602.77  547.24   1-0.25254 0.57073-0.96292 0.81564-0.09480 0.09480
   2  -2   151974.94 1171.10   1-0.27295 0.58234-0.95715 0.79858-0.09665 0.15209
  -2   2  -132988.78  600.82   1-0.19965-0.11408-0.31805 0.47789-0.92681 0.87097
   2  -2   2 1736.29  302.99   1-0.28226 0.58431-0.95463 0.78502-0.09481 0.20569
  -2   2  -2 2171.15  225.75   1-0.21872-0.08753-0.53047 0.70144-0.81899 0.70732
   2  -2   3133631.9 1811.17   1-0.28203 0.57674-0.95470 0.77404-0.09485 0.26118
  -2   2  -3110063.2 1478.09   1-0.22749-0.07177-0.63798 0.81976-0.73567 0.56818
   2  -2   4 5966.30  383.64   1-0.27077 0.55813-0.95773 0.76603-0.09708 0.31885
  -2   2  -4 5042.00  352.64   1-0.22855-0.06337-0.69199 0.88490-0.68476 0.46144
   2  -2   5  -18.31  103.40   1-0.24510 0.52723-0.96471 0.76303-0.09620 0.37389
  -2   2  -5  173.77  129.39   1-0.22860-0.05600-0.72153 0.92557-0.65355 0.37439
   2  -2   611972.90  474.33   1-0.20535 0.48026-0.97319 0.76064-0.10352 0.43676
  -2   2  -610086.42  560.99   1-0.22844-0.04883-0.73725 0.95242-0.63582 0.30084
   2  -2   715156.81  514.98   1-0.14505 0.41275-0.98281 0.75938-0.11418 0.50295
  -2   2  -713472.37  680.62   1-0.22832-0.04162-0.74439 0.97069-0.62748 0.23667
   2  -2   843253.64  751.51   1-0.05604 0.31652-0.99006 0.75576-0.12894 0.57326
  -2   2  -838832.41 1171.33   1-0.22830-0.03432-0.74578 0.98321-0.62585 0.17920
  -2   2  -9 1082.89  380.57   1-0.22835-0.02694-0.74302 0.99158-0.62910 0.12663
  -2   2 -1011147.72 1018.14   1-0.22844-0.01951-0.73709 0.99678-0.63600 0.07770
  -2   2 -11  203.68  377.05   1-0.22854-0.01208-0.72860 0.99942-0.64567 0.03154
  -2   2 -12  654.30  315.20   1-0.22861-0.00468-0.71795 0.99991-0.65747-0.01249
  -2   2 -13 2190.44  571.21   1-0.22863 0.00265-0.70540 0.99848-0.67091-0.05487
  -2   2 -14  442.50  379.11   1-0.22855 0.00990-0.69111 0.99533-0.68565-0.09597
  -2   2 -15  583.46  528.51   1-0.22835 0.01704-0.67520 0.99055-0.70139-0.13606
   2  -1 -14  942.23  427.45   1-0.22850 0.63445-0.68596 0.76760-0.69082-0.09080
   2  -1 -13    1.19  154.88   1-0.22863 0.62726-0.70629 0.77680-0.66997-0.05582
   2  -1 -12 1368.45  406.59   1-0.22857 0.61987-0.72506 0.78443-0.64964-0.02032
   2  -1 -11    6.42  127.15   1 0.48410-0.10158-0.85434 0.90053-0.18904-0.42275
   2  -1 -11    3.79  147.35   1-0.22836 0.61233-0.74219 0.79043-0.63007 0.01594
   2  -1 -10 1382.54  299.27   1 0.41341-0.03834-0.89186 0.92716-0.18350-0.37268
   2  -1 -10 1039.52  283.11   1-0.22803 0.60467-0.75757 0.79468-0.61162 0.05331
   2  -1  -9 2236.02  373.18   1 0.34232 0.02517-0.92201 0.94758-0.18084-0.31852
   2  -1  -9 1392.55  305.79   1-0.22762 0.59693-0.77097 0.79695-0.59479 0.09232
   2  -1  -8 1529.35  273.34   1 0.27750 0.08258-0.94481 0.95937-0.17412-0.26976
   2  -1  -8 1310.25  243.83   1-0.22719 0.58917-0.78200 0.79685-0.58038 0.13374
   2  -1  -7  201.65  224.99   1 0.21591 0.13676-0.96200 0.96557-0.16710-0.22128
   2  -1  -7  241.83  189.42   1-0.22683 0.58148-0.78991 0.79364-0.56971 0.17889
   2  -1  -614391.11  658.98   1 0.15795 0.18730-0.97439 0.96696-0.15998-0.17292
   2  -1  -610099.19  440.73   1-0.22666 0.57399-0.79326 0.78585-0.56510 0.23012
   2  -1  -5    7.84  164.33   1 0.10411 0.23373-0.98273 0.96429-0.15291-0.12450
   2  -1  -5   24.18   51.84   1-0.22688 0.56688-0.78883 0.77029-0.57118 0.29203
   2  -1  -476330.85 1405.32   1 0.05181 0.27667-0.98802 0.95788-0.14533-0.07682
   2  -1  -453852.08  800.91   1-0.22772 0.56038-0.76800 0.73833-0.59859 0.37526
   2  -1  -312486.60  282.77   1-0.22860 0.55393-0.69793 0.65713-0.67869 0.51120
   2  -1  -2 5787.36  447.88   1-0.02978 0.34384-0.99065 0.93876-0.13308 0.02200
   2  -1  -1  135.87  175.31   1-0.06081 0.36766-0.98988 0.92711-0.12818 0.07264
   2  -1   0 1596.93  274.56   1-0.08412 0.38375-0.98865 0.91501-0.12441 0.12441
   2  -1   1 7757.61  427.48   1-0.09858 0.39100-0.98761 0.90309-0.12203 0.17757
  -2   1  -1 6333.27  197.91   1-0.22837-0.06764-0.67619 0.76152-0.70042 0.64459
   2  -1   2 1932.71  257.07   1-0.10278 0.38799-0.98727 0.89187-0.12133 0.23241
  -2   1  -2 1610.57  145.87   1-0.22677-0.06191-0.79125 0.88770-0.56788 0.45622
   2  -1   3 3663.18  391.79   1-0.09491 0.37291-0.98790 0.88162-0.12263 0.28925
  -2   1  -3 1882.01  357.44   1-0.22994-0.05131-0.83230 0.94014-0.50438 0.33688
   2  -1   4151252.4 1824.24   1-0.07254 0.34332-0.98933 0.87218-0.12629 0.34845
  -2   1  -4130269.0 1781.01   1-0.22864-0.04529-0.84591 0.96495-0.48181 0.25848
   2  -1   583504.40 1185.33   1-0.03220 0.29577-0.99063 0.86260-0.13271 0.41041
  -2   1  -571592.75 1263.93   1-0.22826-0.03836-0.84954 0.97977-0.47557 0.19640
   2  -1   6 5380.59  913.15   1 0.03139 0.22496-0.98931 0.85041-0.14235 0.47559
  -2   1  -6 5591.75 1001.38   1-0.22845-0.03085-0.84771 0.98913-0.47873 0.14373
   2  -1   7 4087.11  352.32   1 0.12291 0.12596-0.98016 0.82968-0.15543 0.54382
  -2   1  -7 4040.19  695.25   1-0.22899-0.02299-0.84241 0.99502-0.48774 0.09690
  -2   1  -818549.42 1488.81   1-0.22973-0.01494-0.83462 0.99843-0.50061 0.05394
  -2   1  -9   83.99  115.79   1-0.23055-0.00680-0.82488 0.99988-0.51614 0.01363
  -2   1 -10 4201.91 1286.28   1-0.23140 0.00134-0.81350 0.99969-0.53353-0.02480
  -2   1 -1115592.68 1282.23   1-0.22622 0.00349-0.80152 0.99815-0.55351-0.06061
  -2   1 -12 2762.62  490.59   1-0.22695 0.01155-0.78746 0.99522-0.57305-0.09691
  -2   1 -13 3653.51  683.80   1-0.22758 0.01951-0.77210 0.99099-0.59334-0.13245
  -2   1 -14  416.61  315.68   1-0.22808 0.02735-0.75547 0.98550-0.61418-0.16744
  -2   1 -15  480.66  392.46   1-0.22843 0.03503-0.73759 0.97875-0.63542-0.20203
   2   0 -14  291.37  339.36   1-0.22728 0.61533-0.63140 0.78723-0.74139-0.04023
   2   0 -13  187.29  257.21   1-0.22780 0.60852-0.64883 0.79353-0.72602 0.00022
   2   0 -12 3340.08  531.82   1-0.22815 0.60154-0.66416 0.79773-0.71191 0.04195
   2   0 -11  591.45  212.59   1 0.63120-0.26705-0.75017 0.86985-0.19703-0.41476
   2   0 -11  107.71  166.91   1-0.22838 0.59444-0.67715 0.79958-0.69950 0.08536
   2   0 -10 1133.10  258.83   1 0.56923-0.21252-0.79887 0.90768-0.19432-0.36185
   2   0 -10 1122.50  302.95   1-0.22851 0.58724-0.68741 0.79872-0.68937 0.13106
   2   0  -9 8614.11  557.78   1 0.50900-0.15973-0.83936 0.93728-0.19075-0.30980
   2   0  -9 6417.70  511.44   1-0.22857 0.57998-0.69434 0.79451-0.68238 0.17990
   2   0  -8  517.07  190.68   1 0.45098-0.10916-0.87281 0.95985-0.18656-0.25837
   2   0  -8  381.75  216.04   1-0.22859 0.57266-0.69689 0.78594-0.67976 0.23311
   2   0  -7  333.77  163.47   1 0.39347-0.05952-0.90039 0.97741-0.18564-0.20275
   2   0  -7  182.17  178.35   1-0.22857 0.56531-0.69331 0.77123-0.68342 0.29260
   2   0  -6   53.25  130.64   1 0.34178-0.01525-0.92222 0.98824-0.18079-0.15211
   2   0  -6    3.55  100.55   1-0.22843 0.55784-0.68033 0.74712-0.69638 0.36140
   2   0  -5 1006.64  261.31   1 0.29394 0.02516-0.93949 0.99451-0.17589-0.10153
   2   0  -5  655.27  173.52   1-0.22786 0.54995-0.65139 0.70705-0.72371 0.44455
   2   0  -4 2083.76  279.43   1 0.25065 0.06104-0.95282 0.99684-0.17113-0.05080
   2   0  -4 1411.75  168.15   1-0.22571 0.54046-0.59161 0.63613-0.77397 0.55065
   2   0  -3 9817.74  321.85   1-0.21449 0.52131-0.47204 0.50543-0.85508 0.68758
   2   0  -2189824.1 2269.24   1 0.18100 0.11586-0.96990 0.99190-0.16287 0.05190
   2   0  -121702.81 1512.99   1 0.15666 0.13278-0.97463 0.98563-0.15981 0.10433
   2   0   0150760.1 1862.82   1 0.14102 0.14102-0.97734 0.97734-0.15780 0.15780
  -2   0   0130537.5 1169.30   1-0.14217-0.14217-0.97623 0.97623 0.16357-0.16357
   2   0   1 2165.43  225.29   1 0.13568 0.13893-0.97821 0.96721-0.15711 0.21259
  -2   0  -1 2168.95  274.05   1-0.17756-0.09941-0.98362 0.99472-0.03075-0.02519
   2   0   2 2702.83  255.63   1 0.14271 0.12449-0.97706 0.95506-0.15802 0.26899
  -2   0  -2 2307.70  273.43   1-0.19098-0.07863-0.97469 0.99689-0.11614 0.00425
   2   0   320392.62 1401.37   1 0.16472 0.09507-0.97313 0.94012-0.16083 0.32729
  -2   0  -317963.09 1225.39   1-0.19910-0.06314-0.96469 0.99799-0.17238 0.00454
   2   0   4227687.8 2359.42   1 0.20523 0.04714-0.96456 0.92054-0.16583 0.38777
  -2   0  -4197640.9 2332.24   1-0.20514-0.04974-0.95434 0.99873-0.21712-0.00666
   2   0   5 4150.74  256.39   1 0.26913-0.02416-0.94739 0.89238-0.17320 0.45062
  -2   0  -5 4168.79  705.34   1-0.20919-0.03902-0.94306 0.99902-0.25857-0.02059
   2   0   635155.33  636.01   1 0.36371-0.12615-0.91337 0.84735-0.18290 0.51581
  -2   0  -630028.04  860.85   1-0.21304-0.02785-0.93163 0.99878-0.29438-0.04061
   2   0   712934.99  361.90   1 0.49856-0.26838-0.84576 0.76959-0.19005 0.57938
  -2   0  -710611.77  972.83   1-0.21642-0.01715-0.91953 0.99787-0.32803-0.06280
  -2   0  -8 4158.62  709.57   1-0.21943-0.00683-0.90669 0.99623-0.36020-0.08647
  -2   0  -9 4825.03  756.20   1-0.22212 0.00316-0.89306 0.99378-0.39127-0.11123
  -2   0 -10  810.13  290.55   1-0.22452 0.01288-0.87859 0.99050-0.42149-0.13684
  -2   0 -11  871.95  307.82   1-0.22665 0.02233-0.86324 0.98635-0.45103-0.16313
  -2   0 -12 2235.89  568.40   1-0.22853 0.03152-0.84697 0.98127-0.47999-0.19000
  -2   0 -13 3166.76  837.40   1-0.23015 0.04046-0.82975 0.97524-0.50845-0.21738
  -2   0 -14 1614.67  460.85   1-0.23153 0.04914-0.81154 0.96822-0.53646-0.24521
  -2   0 -15  349.52  380.69   1-0.22664 0.05115-0.79370 0.96066-0.56450-0.27295
   2   1 -14 1463.35  531.53   1-0.22483 0.59497-0.57370 0.80372-0.78760 0.00597
   2   1 -13 4265.38  599.61   1-0.22554 0.58835-0.58810 0.80699-0.77669 0.05090
   2   1 -12 6089.47  715.52   1-0.22608 0.58156-0.59987 0.80763-0.76748 0.09752
   2   1 -11  553.00  252.51   1-0.22644 0.57460-0.60861 0.80524-0.76046 0.14632
   2   1 -10 1907.82  361.05   1 0.71257-0.37290-0.67296 0.85612-0.19836-0.35775
   2   1 -10 1654.07  377.18   1-0.22665 0.56747-0.61373 0.79923-0.75627 0.19797
   2   1  -9 9206.92  556.96   1 0.66298-0.33208-0.72197 0.89340-0.19799-0.30257
   2   1  -9 6729.26  539.74   1-0.22667 0.56016-0.61432 0.78869-0.75579 0.25331
   2   1  -8 5984.50  552.28   1 0.61598-0.29252-0.76286 0.92341-0.19647-0.24847
   2   1  -8 3983.21  449.21   1-0.22646 0.55262-0.60896 0.77220-0.76018 0.31353
   2   1  -7  114.64  137.02   1 0.57134-0.25533-0.79734 0.94700-0.19443-0.19489
   2   1  -7  -41.82  144.92   1-0.22588 0.54471-0.59535 0.74746-0.77105 0.38024
   2   1  -643120.60 1063.25   1 0.52976-0.22118-0.82610 0.96489-0.19208-0.14162
   2   1  -629467.07  864.58   1-0.22461 0.53612-0.56964 0.71062-0.79060 0.45561
   2   1  -5 7667.08  465.19   1 0.49195-0.19082-0.84972 0.97762-0.18960-0.08849
   2   1  -5 5413.69  356.40   1-0.21870 0.52206-0.53013 0.66014-0.81922 0.54005
   2   1  -410128.04  488.55   1 0.45875-0.16506-0.86862 0.98565-0.18716-0.03530
   2   1  -4 6259.90  337.19   1-0.21315 0.50904-0.45566 0.57454-0.86425 0.64091
   2   1  -2  -58.74  161.21   1 0.40944-0.13131-0.89295 0.98841-0.18704 0.07607
   2   1  -1119084.3 1604.24   1 0.39658-0.12586-0.89897 0.98343-0.18592 0.13043
   2   1   0 2590.97  246.68   1 0.39313-0.12983-0.90054 0.97400-0.18561 0.18561
   2   1   144729.85  857.34   1 0.40090-0.14501-0.89697 0.95943-0.18630 0.24178
   2   1   210627.63  403.25   1 0.42148-0.17245-0.88793 0.93967-0.18418 0.29541
  -2  -1  -2 9284.13  315.98   1-0.10683-0.14420-0.93875 0.88658 0.32761-0.43950
   2   1   3147589.2 1711.24   1 0.45807-0.21648-0.86899 0.90985-0.18711 0.35397
  -2  -1  -3133241.6 1627.62   1-0.13977-0.10389-0.97450 0.93343 0.17553-0.34337
   2   1   413885.77  456.15   1 0.51332-0.27918-0.83665 0.86663-0.19104 0.41351
  -2  -1  -410370.66  688.32   1-0.16124-0.07505-0.98486 0.95490 0.06348-0.28727
   2   1   547250.27  777.21   1 0.59035-0.36365-0.78314 0.80224-0.19536 0.47346
  -2  -1  -540529.40  948.82   1-0.17636-0.05257-0.98404 0.96517-0.02347-0.25625
   2   1   613461.41  368.06   1 0.69034-0.47158-0.69580 0.70335-0.19820 0.53188
  -2  -1  -610994.66 1030.88   1-0.18771-0.03386-0.97766 0.96989-0.09452-0.24115
  -2  -1  -722600.34  489.77   1-0.82767 0.61312 0.52149-0.51695 0.20733-0.59735
   2   1   727513.10  547.34   1 0.81674-0.60554-0.54271 0.53929-0.19592 0.58521
  -2  -1  -725505.98 1600.08   1-0.19666-0.01754-0.96812 0.97145-0.15507-0.23655
  -2  -1  -8  127.69  166.93   1-0.20399-0.00285-0.95653 0.97096-0.20838-0.23919
  -2  -1  -9 1658.09  371.98   1-0.20914 0.00860-0.94319 0.96964-0.25814-0.24435
  -2  -1 -1017140.93 1035.59   1-0.21388 0.02065-0.92884 0.96649-0.30247-0.25586
  -2  -1 -1120165.19 2465.08   1-0.21793 0.03202-0.91339 0.96222-0.34382-0.27035
  -2  -1 -12  398.32  248.95   1-0.22141 0.04281-0.89689 0.95691-0.38282-0.28718
  -2  -1 -13  395.98  333.99   1-0.22440 0.05312-0.87936 0.95058-0.41994-0.30589
  -2  -1 -14  140.97  181.77   1-0.22696 0.06299-0.86080 0.94321-0.45552-0.32615
  -2  -1 -15   61.99  187.96   1-0.22911 0.07246-0.84119 0.93479-0.48979-0.34771
  -2  -1 -16  123.89  212.66   1-0.23089 0.08155-0.82049 0.92528-0.52294-0.37039
   2   2 -14  -49.25  267.75   1-0.21774 0.56996-0.51578 0.82032-0.82858 0.04690
   2   2 -13 5545.90  701.95   1-0.21852 0.56327-0.52735 0.82076-0.82106 0.09521
   2   2 -12  -70.14  237.29   1-0.21907 0.55634-0.53584 0.81813-0.81539 0.14538
   2   2 -11 1526.12  427.06   1-0.21938 0.54918-0.54078 0.81193-0.81204 0.19786
  -2  -2  10 1435.63  455.20   1-0.82151 0.50111 0.53100-0.79169 0.20770 0.34944
   2   2 -10 1746.41  348.58   1 0.82700-0.50555-0.52717 0.78373-0.19531-0.36080
   2   2 -10 1249.90  369.36   1-0.21942 0.54175-0.54146 0.80148-0.81158 0.25324
  -2  -2   9   62.16  112.28   1-0.78588 0.47279 0.58188-0.83132 0.20926 0.29217
   2   2  -9  194.52  150.50   1 0.79094-0.47704-0.57926 0.82485-0.19712-0.30338
   2   2  -9    2.36  175.13   1-0.21913 0.53398-0.53684 0.78573-0.81472 0.31221
   2   2  -8  116.24  133.22   1 0.75611-0.44977-0.62374 0.85835-0.19806-0.24683
   2   2  -8  501.43  252.97   1-0.21839 0.52577-0.52541 0.76317-0.82233 0.37566
   2   2  -7  918.71  232.12   1 0.72329-0.42450-0.66143 0.88506-0.19837-0.19091
   2   2  -7  548.24  225.35   1-0.21697 0.51688-0.50491 0.73153-0.83545 0.44461
   2   2  -6 1251.96  294.62   1 0.69312-0.40291-0.69292 0.90520-0.19858-0.13512
   2   2  -6  529.03  207.73   1-0.21447 0.50690-0.47185 0.68735-0.85519 0.52018
   2   2  -523484.59  788.30   1 0.66677-0.38400-0.71845 0.91985-0.19808-0.08000
   2   2  -516494.57  639.57   1-0.21011 0.49507-0.42092 0.62528-0.88242 0.60325
   2   2  -4136297.4 1901.49   1 0.64483-0.36951-0.73836 0.92888-0.19748-0.02498
   2   2  -484683.64 1339.24   1-0.20249 0.47997-0.34401 0.53724-0.91687 0.69353
   2   2  -3 5892.27  396.36   1 0.62823-0.36035-0.75268 0.93233-0.19693 0.03007
   2   2  -3 4876.61  445.80   1-0.18781 0.45723-0.23250 0.41441-0.95428 0.78689
   2   2  -2  532.24  191.01   1 0.61797-0.35753-0.76122 0.92999-0.19654 0.08531
   2   2  -136330.64  825.81   1 0.61517-0.36217-0.76352 0.92141-0.19643 0.14082
   2   2   031832.00  760.75   1 0.62100-0.37544-0.75873 0.90573-0.19666 0.19666
   2   2   110412.38  432.55   1 0.63669-0.39858-0.74546 0.88159-0.19722 0.25284
   2   2   268491.85 1082.28   1 0.66341-0.43275-0.72157 0.84681-0.19800 0.30923
   2   2   3114870.8 1489.39   1 0.70081-0.47760-0.68522 0.79910-0.19830 0.36514
  -2  -2  -5 2396.12  498.40   1-0.81839 0.60761 0.53574-0.62782 0.20788-0.48646
   2   2   5 3090.04  245.89   1 0.81380-0.60570-0.54705 0.63898-0.19608 0.47415
  -2  -2  -5 2513.51  901.61   1-0.13642-0.07393-0.97186 0.87863 0.19199-0.47173
  -2  -2  -6 1787.67  370.50   1-0.88828 0.68551 0.41159-0.49121 0.20383-0.53737
  -2  -2  -6 2463.09  775.46   1-0.15538-0.04760-0.98324 0.90111 0.09527-0.43095
  -2  -2  -718277.95  462.85   1-0.95388 0.75844 0.23360-0.30187 0.18848-0.57761
  -2  -2  -718864.20 1662.57   1-0.17024-0.02537-0.98531 0.91428 0.01264-0.40427
  -2  -2  -8 2302.19  424.31   1-0.98741 0.79920-0.02888-0.02831 0.15545-0.60039
  -2  -2  -8 3511.64  654.15   1-0.18220-0.00605-0.98146 0.92153-0.05932-0.38824
  -2  -2  -9 5513.35 1738.10   1-0.19203 0.01114-0.97362 0.92478-0.12320-0.38031
  -2  -2 -10 1583.98  321.44   1-0.20027 0.02674-0.96290 0.92516-0.18085-0.37861
  -2  -2 -1110014.15  856.00   1-0.20727 0.04111-0.94997 0.92333-0.23363-0.38178
  -2  -2 -12 8606.25 2763.94   1-0.21192 0.05174-0.93518 0.92093-0.28375-0.38625
  -2  -2 -13 2988.93  889.99   1-0.21657 0.06370-0.91896 0.91590-0.32954-0.39629
  -2  -2 -14 1209.78  412.76   1-0.22054 0.07499-0.90134 0.90947-0.37274-0.40892
  -2  -2 -15  587.50  266.32   1-0.22393 0.08569-0.88240 0.90172-0.41378-0.42372
  -2  -2 -16  245.25  280.42   1-0.22679 0.09586-0.86217 0.89269-0.45300-0.44034
   2   3 -13 -131.50  242.67   1-0.21376 0.54010-0.46303 0.83080-0.86017 0.13432
   2   3 -12 1514.87  518.25   1-0.21420 0.53307-0.46848 0.82512-0.85711 0.18709
   2   3 -11 6790.61  733.37   1-0.21432 0.52572-0.46997 0.81548-0.85626 0.24208
  -2  -3  10 2066.23  734.73   1-0.90167 0.59988 0.38246-0.71744 0.20175 0.35414
   2   3 -10 2410.16  444.67   1-0.21406 0.51799-0.46677 0.80115-0.85807 0.29973
  -2  -3   9  632.13  128.15   1-0.87951 0.58480 0.43056-0.75414 0.20265 0.29878
   2   3  -9  535.88  273.59   1-0.21333 0.50978-0.45786 0.78110-0.86304 0.36053
  -2  -3   8   63.52  116.12   1-0.85620 0.56879 0.47416-0.78650 0.20515 0.24057
   2   3  -8  642.03  316.52   1-0.21197 0.50095-0.44180 0.75392-0.87170 0.42503
  -2  -3   7 1878.56  381.68   1-0.83443 0.55434 0.51079-0.81189 0.20689 0.18311
   2   3  -7 2325.34  372.25   1 0.83775-0.55717-0.51020 0.80724-0.19457-0.19470
   2   3  -7 1220.71  288.65   1-0.20972 0.49122-0.41660 0.71758-0.88456 0.49372
  -2  -3   6 5095.50 1152.45   1-0.81496 0.54218 0.54086-0.83072 0.20806 0.12622
   2   3  -6 6448.33  476.54   1 0.81783-0.54482-0.54108 0.82715-0.19586-0.13780
   2   3  -6 3899.95  379.96   1-0.20615 0.48018-0.37948 0.66933-0.90193 0.56692
  -2  -3   512645.47  609.32   1-0.79852 0.53304 0.56458-0.84320 0.20881 0.06976
   2   3  -515612.64  673.40   1 0.80090-0.53544-0.56555 0.84064-0.19671-0.08134
   2   3  -510187.47  582.17   1-0.20060 0.46715-0.32663 0.60535-0.92361 0.64444
  -2  -3   414634.45  636.63   1-0.78582 0.52765 0.58196-0.84935 0.20926 0.01359
   2   3  -416849.12  692.74   1 0.78769-0.52978-0.58364 0.84775-0.19724-0.02520
   2   3  -410095.39  508.81   1-0.19199 0.45107-0.25308 0.52067-0.94819 0.72486
  -2  -3   344612.93 1019.38   1-0.77760 0.52673 0.59282-0.84897 0.20949-0.04235
   2   3  -349732.67 1099.35   1 0.77893-0.52858-0.59518 0.84832-0.19752 0.03069
   2   3  -328333.90  776.27   1-0.17754 0.42837-0.15542 0.41168-0.97176 0.80436
  -2  -3   212992.90  524.55   1-0.77457 0.53101 0.59675-0.84165 0.20957-0.09814
   2   3  -216380.55  621.40   1 0.77535-0.53256-0.59980 0.84196-0.19763 0.08640
  -2  -3   134560.72  843.33   1-0.77741 0.54117 0.59306-0.82672 0.20950-0.15378
   2   3  -142681.76  955.61   1 0.77766-0.54242-0.59683 0.82802-0.19756 0.14195
  -2  -3   022406.35  679.89   1-0.78673 0.55779 0.58074-0.80316 0.20923-0.20923
   2   3   027960.84  747.30   1 0.78644-0.55877-0.58530 0.80551-0.19728 0.19728
  -2  -3  -117562.80  568.38   1-0.80293 0.58129 0.55836-0.76955 0.20863-0.26435
   2   3   121193.93  624.02   1 0.80215-0.58203-0.56380 0.77304-0.19666 0.25227
  -2  -3  -232553.85  769.18   1-0.82608 0.61175 0.52398-0.72393 0.20743-0.31887
   2   3   237449.08  855.29   1 0.82487-0.61231-0.53045 0.72871-0.19545 0.30667
  -2  -3  -357067.06 1030.82   1-0.85570 0.64868 0.47504-0.66375 0.20519-0.37234
   2   3   369476.77 1233.18   1 0.85419-0.64918-0.48271 0.67000-0.19324 0.36007
  -2  -3  -433737.83  760.31   1-0.89040 0.69070 0.40826-0.58573 0.20122-0.42408
  -2  -3  -5 2685.00  499.62   1-0.92685 0.73478 0.31977-0.48458 0.19668-0.47463
  -2  -3  -5 2619.96  326.62   1-0.09782-0.09394-0.92554 0.75795 0.36577-0.64550
  -2  -3  -6 2693.24  514.87   1-0.96125 0.77650 0.20401-0.35747 0.18535-0.51889
  -2  -3  -6 2265.95 1056.90   1-0.12228-0.06212-0.95813 0.80163 0.25888-0.59457
  -2  -3  -741767.96  922.83   1-0.98434 0.80686 0.05543-0.19781 0.16731-0.55663
  -2  -3  -740213.25 1139.08   1-0.14212-0.03492-0.97619 0.83079 0.16384-0.55547
  -2  -3  -837505.52  781.93   1-0.98155 0.81136-0.13060-0.00045 0.13960-0.58453
  -2  -3  -836577.13 1194.20   1-0.15836-0.01131-0.98419 0.84989 0.07924-0.52682
  -2  -3  -9 6415.45 1358.18   1-0.17183 0.00952-0.98512 0.86192 0.00342-0.50695
  -2  -3 -10 9716.93  965.61   1-0.18313 0.02818-0.98092 0.86882-0.06515-0.49431
  -2  -3 -1112974.37 1500.38   1-0.19271 0.04513-0.97289 0.87189-0.12780-0.48760
  -2  -3 -12  386.30  316.32   1-0.20092 0.06070-0.96186 0.87196-0.18557-0.48578
  -2  -3 -13  707.69  194.23   1-0.20710 0.07264-0.94840 0.87107-0.24009-0.48575
  -2  -3 -14  120.51  296.18   1-0.21263 0.08549-0.93296 0.86682-0.29045-0.49122
  -2  -3 -15  669.47  234.25   1-0.21737 0.09755-0.91571 0.86077-0.33795-0.49955
  -2  -3 -16 2064.02  693.18   1-0.22143 0.10891-0.89680 0.85305-0.38301-0.51032
   2   4 -13   35.81  268.22   1-0.20796 0.51590-0.39795 0.84007-0.89352 0.16767
   2   4 -12  128.66  278.71   1-0.20824 0.50870-0.40078 0.83177-0.89219 0.22217
   2   4 -11 2229.47  592.02   1-0.20811 0.50110-0.39943 0.81929-0.89282 0.27864
  -2  -4  10  675.19  202.49   1-0.95286 0.66908 0.23741-0.64623 0.18887 0.36703
   2   4 -10  588.60  376.04   1-0.20751 0.49302-0.39320 0.80193-0.89572 0.33738
  -2  -4   9  138.15  121.62   1-0.93824 0.66177 0.28666-0.68413 0.19369 0.30662
   2   4  -9  297.41  222.10   1-0.20632 0.48436-0.38114 0.77873-0.90120 0.39869
  -2  -4   8  709.42  201.35   1-0.92371 0.65455 0.32829-0.71441 0.19741 0.24730
   2   4  -8  -10.80  199.83   1-0.20438 0.47495-0.36201 0.74847-0.90949 0.46281
  -2  -4   7 6438.20 1445.49   1-0.91006 0.64822 0.36286-0.73765 0.20025 0.18887
   2   4  -7 6192.43  630.12   1-0.20143 0.46452-0.33419 0.70953-0.92072 0.52988
  -2  -4   6 8694.45  783.52   1-0.89799 0.64346 0.39071-0.75415 0.20236 0.13118
   2   4  -6 6747.79  519.61   1-0.19709 0.45271-0.29560 0.65980-0.93475 0.59975
  -2  -4   553821.83 1318.86   1-0.88988 0.64279 0.40936-0.76213 0.20129 0.07728
   2   4  -539913.85 1155.83   1-0.18947 0.43672-0.24571 0.59846-0.95064 0.67165
  -2  -4   412733.83 1354.39   1-0.88273 0.64295 0.42410-0.76562 0.20225 0.02061
   2   4  -4 8628.29  528.28   1-0.18057 0.42032-0.17738 0.51907-0.96743 0.74423
  -2  -4   3 4412.72  739.65   1-0.87882 0.64634 0.43192-0.76221 0.20274-0.03559
  -2  -4   2  128.23  125.88   1-0.87856 0.65339 0.43244-0.75148 0.20277-0.09134
  -2  -4   1  783.92  128.52   1-0.88227 0.66441 0.42504-0.73284 0.20231-0.14659
  -2  -4   018013.60 1797.25   1-0.89009 0.67954 0.40892-0.70548 0.20126-0.20126
  -2  -4  -1 1675.49  340.78   1-0.90057 0.69724 0.38494-0.66897 0.20193-0.25752
  -2  -4  -2153675.9 2026.43   1-0.91614 0.72012 0.34793-0.62061 0.19905-0.31023
  -2  -4  -321441.95  676.18   1-0.93436 0.74567 0.29836-0.55969 0.19477-0.36154
  -2  -4  -4 4447.23  777.98   1-0.95364 0.77226 0.23450-0.48449 0.18857-0.41093
  -2  -4  -525968.15  808.62   1-0.97149 0.79742 0.15453-0.39318 0.17978-0.45774
  -2  -4  -6 7145.46 1185.48   1-0.98428 0.81754 0.05618-0.28374 0.16741-0.50111
  -2  -4  -7  653.49  155.32   1-0.98670 0.82725-0.06098-0.15524 0.15063-0.53995
  -2  -4  -7 1086.59  289.73   1-0.11535-0.04309-0.94998 0.73022 0.29021-0.68184
  -2  -4  -811822.32 1517.98   1-0.97169 0.81953-0.19849-0.00642 0.12806-0.57299
  -2  -4  -811309.01 1282.00   1-0.13477-0.01631-0.97048 0.76181 0.20000-0.64758
  -2  -4  -9 2246.13  266.78   1-0.93150 0.78825-0.35076 0.15622 0.09618-0.59519
  -2  -4  -9 2105.43  827.22   1-0.15123 0.00750-0.98152 0.78395 0.11724-0.62076
  -2  -4 -1089623.89 1840.94   1-0.16523 0.02887-0.98538 0.79892 0.04126-0.60073
  -2  -4 -11  -33.71  277.35   1-0.17723 0.04824-0.98374 0.80838-0.02874-0.58667
  -2  -4 -12  297.49  231.43   1-0.18756 0.06593-0.97778 0.81351-0.09357-0.57778
  -2  -4 -13  373.22  178.33   1-0.19651 0.08224-0.96833 0.81517-0.15396-0.57334
  -2  -4 -14  202.60  137.98   1-0.20427 0.09737-0.95600 0.81393-0.21053-0.57273
  -2  -4 -15  263.53  303.25   1-0.20981 0.10840-0.94136 0.81214-0.26421-0.57329
  -2  -4 -16  118.02  217.41   1-0.21510 0.12100-0.92452 0.80649-0.31462-0.57872
   2   5 -12  321.89  404.29   1-0.20133 0.48339-0.33328 0.83862-0.92107 0.25106
   2   5 -11 -127.83  277.52   1-0.20094 0.47552-0.32970 0.82391-0.92245 0.30827
  -2  -5  10 1436.64  341.05   1-0.97920 0.71341 0.10471-0.58737 0.17376 0.38213
   2   5 -10 1476.84  498.89   1-0.20000 0.46711-0.32121 0.80429-0.92564 0.36730
  -2  -5   9   31.20  152.95   1-0.97204 0.71357 0.15146-0.62277 0.17943 0.32088
   2   5  -9   30.43  256.24   1-0.19840 0.45804-0.30699 0.77895-0.93079 0.42828
  -2  -5   8 1453.89  354.42   1-0.96425 0.71309 0.19077-0.65074 0.18390 0.26081
   2   5  -8  848.44  318.33   1-0.19597 0.44814-0.28604 0.74686-0.93796 0.49128
  -2  -5   7 2756.37  584.76   1-0.95660 0.71276 0.22313-0.67176 0.18739 0.20173
   2   5  -7 1508.91  382.17   1-0.19248 0.43718-0.25708 0.70677-0.94702 0.55618
  -2  -5   6 1773.38  323.09   1-0.94972 0.71319 0.24883-0.68611 0.19002 0.14351
   2   5  -6  859.25  344.57   1-0.18628 0.42245-0.22050 0.65867-0.95743 0.62264
  -2  -5   5 6466.49  872.95   1-0.94411 0.71490 0.26796-0.69390 0.19191 0.08603
   2   5  -5 4328.24  493.68   1-0.17966 0.40833-0.17075 0.59786-0.96879 0.68980
  -2  -5   412682.28 1168.97   1-0.94022 0.71833 0.28049-0.69508 0.19311 0.02924
  -2  -5   3 1745.08  393.01   1-0.93838 0.72380 0.28623-0.68948 0.19365-0.02688
  -2  -5   217325.08 2153.40   1-0.93882 0.73155 0.28488-0.67679 0.19352-0.08234
  -2  -5   128444.93  922.27   1-0.94163 0.74168 0.27603-0.65659 0.19268-0.13709
  -2  -5   0 2314.52  415.72   1-0.94676 0.75412 0.25911-0.62832 0.19104-0.19104
  -2  -5  -1  273.04  129.80   1-0.95392 0.76859 0.23347-0.59134 0.18846-0.24405
  -2  -5  -2 1069.46  251.62   1-0.96255 0.78454 0.19837-0.54489 0.18474-0.29592
  -2  -5  -363379.01 1279.54   1-0.97177 0.80107 0.15297-0.48815 0.17960-0.34637
  -2  -5  -419009.28  710.45   1-0.98023 0.81685 0.09646-0.42030 0.17273-0.39509
  -2  -5  -527312.48  828.42   1-0.98615 0.83014 0.02761-0.34034 0.16353-0.44161
  -2  -5  -6 7104.17 1123.94   1-0.98697 0.83825-0.05322-0.24818 0.15182-0.48551
  -2  -5  -7 9337.09 1334.69   1-0.97963 0.83820-0.14689-0.14319 0.13690-0.52622
  -2  -5  -8   89.21   71.36   1-0.96014 0.82600-0.25331-0.02546 0.11815-0.56309
  -2  -5  -8  -29.59  200.58   1-0.11323-0.01927-0.94730 0.66427 0.29965-0.74723
  -2  -5  -932770.75  830.23   1-0.92516 0.80000-0.36808 0.09987 0.09261-0.59162
  -2  -5  -924168.62 2793.74   1-0.13173 0.00659-0.96776 0.69584 0.21463-0.71816
  -2  -5 -1014205.92  562.35   1-0.86628 0.74847-0.49537 0.23828 0.06442-0.61887
  -2  -5 -1011375.19 1527.14   1-0.14781 0.03003-0.97976 0.71893 0.13495-0.69442
  -2  -5 -11  626.30  281.18   1-0.16180 0.05139-0.98497 0.73524 0.06043-0.67585
  -2  -5 -1215555.09 2119.14   1-0.17399 0.07094-0.98470 0.74607-0.00929-0.66207
  -2  -5 -13  291.39  205.12   1-0.18463 0.08895-0.97996 0.75243-0.07468-0.65263
  -2  -5 -14 2521.78  791.70   1-0.19394 0.10563-0.97151 0.75508-0.13619-0.64706
  -2  -5 -15  283.60  373.15   1-0.20210 0.12115-0.95990 0.75457-0.19427-0.64493
  -2  -5 -16  -95.12  251.65   1-0.20815 0.13246-0.94577 0.75347-0.24935-0.64398
   2   6 -11 1440.18  568.96   1-0.19297 0.44915-0.26104 0.82961-0.94584 0.33166
   2   6 -10  324.99  276.69   1-0.19173 0.44044-0.25098 0.80842-0.94881 0.39046
  -2  -6   9  132.76  161.34   1-0.98605 0.74601 0.02949-0.57450 0.16379 0.33675
   2   6  -9  566.31  452.48   1-0.18842 0.42851-0.23732 0.78304-0.95298 0.45079
  -2  -6   8 2495.84  649.99   1-0.98340 0.75065 0.06652-0.60021 0.16879 0.27614
   2   6  -8 1399.32  414.38   1-0.18562 0.41821-0.21542 0.75007-0.95871 0.51232
  -2  -6   7  475.71  189.90   1-0.98011 0.75427 0.09744-0.61991 0.17285 0.21627
   2   6  -7  126.13  236.95   1-0.18177 0.40685-0.18626 0.70986-0.96553 0.57494
  -2  -6   6  750.19  182.80   1-0.97692 0.75839 0.12129-0.63242 0.17581 0.15772
  -2  -6   5   38.72   99.17   1-0.97419 0.76298 0.13884-0.63862 0.17793 0.10001
  -2  -6   413326.40 1731.02   1-0.97228 0.76838 0.15009-0.63853 0.17927 0.04309
  -2  -6   3 1164.34  391.32   1-0.97141 0.77484 0.15493-0.63202 0.17983-0.01306
  -2  -6   2 2625.24  382.88   1-0.97173 0.78247 0.15316-0.61891 0.17963-0.06844
  -2  -6   115587.68 2053.29   1-0.97324 0.79129 0.14452-0.59892 0.17861-0.12302
  -2  -6   0 9166.65 1111.86   1-0.97581 0.80117 0.12868-0.57173 0.17671-0.17671
  -2  -6  -1  486.66  124.85   1-0.97913 0.81181 0.10524-0.53695 0.17383-0.22942
  -2  -6  -247699.77 1257.20   1-0.98270 0.82270 0.07379-0.49416 0.16982-0.28100
  -2  -6  -3  582.10  206.59   1-0.98583 0.83327 0.03345-0.44267 0.16433-0.33118
  -2  -6  -4 1419.10  292.88   1-0.98740 0.84213-0.01520-0.38270 0.15746-0.37992
  -2  -6  -5 5136.94  782.23   1-0.98617 0.84819-0.07298-0.31360 0.14879-0.42687
  -2  -6  -614965.23 1840.32   1-0.98047 0.84978-0.14005-0.23522 0.13804-0.47174
  -2  -6  -710628.35 1491.74   1-0.96828 0.84488-0.21640-0.14755 0.12488-0.51420
  -2  -6  -828350.72  870.08   1-0.94797 0.83357-0.30005-0.05295 0.10630-0.54986
  -2  -6  -9  201.40  154.03   1-0.91546 0.80840-0.39278 0.05090 0.08741-0.58642
  -2  -6  -9  101.48  203.42   1-0.11437 0.00782-0.94875 0.60246 0.29458-0.79810
  -2  -6 -10 1966.63  365.70   1-0.86782 0.76810-0.49258 0.16183 0.06508-0.61953
  -2  -6 -10 1613.69  630.08   1-0.13180 0.03261-0.96783 0.63264 0.21428-0.77375
  -2  -6 -11 1387.58  280.61   1-0.80211 0.70984-0.59591 0.27545 0.03859-0.64826
  -2  -6 -11 1465.62  402.86   1-0.14724 0.05542-0.97944 0.65535 0.13786-0.75328
  -2  -6 -12  419.07  191.46   1-0.16090 0.07643-0.98480 0.67180 0.06540-0.73676
  -2  -6 -13   71.44  222.54   1-0.17296 0.09587-0.98492 0.68302-0.00324-0.72407
  -2  -6 -14  220.38  212.13   1-0.18362 0.11389-0.98061 0.68982-0.06830-0.71495
  -2  -6 -15  609.39  253.77   1-0.19304 0.13068-0.97253 0.69283-0.13005-0.70915
   2   7 -11  120.76  296.86   1-0.18300 0.41951-0.19548 0.83768-0.96348 0.34969
   2   7 -10  391.55  490.90   1-0.18151 0.41052-0.18435 0.81549-0.96595 0.40796
  -2  -7   9  656.84  179.39   1-0.98588 0.76387-0.07832-0.54053 0.14796 0.35258
   2   7  -9  -90.08  244.11   1-0.17929 0.40079-0.16804 0.78811-0.96933 0.46714
  -2  -7   8 1298.89  258.74   1-0.98722 0.77250-0.04347-0.56407 0.15328 0.29164
  -2  -7   7 8388.53 1733.65   1-0.98740 0.77997-0.01494-0.58129 0.15749 0.23181
  -2  -7   6 5167.83 1017.32   1-0.98697 0.78683 0.00751-0.59243 0.16072 0.17297
  -2  -7   5 5739.00  904.91   1-0.98632 0.79347 0.02402-0.59762 0.16303 0.11504
  -2  -7   4  106.77  164.22   1-0.98576 0.80020 0.03462-0.59691 0.16449 0.05796
  -2  -7   3  662.41  220.90   1-0.98548 0.80721 0.03928-0.59025 0.16513 0.00171
  -2  -7   232128.60 3425.39   1-0.98557 0.81459 0.03788-0.57754 0.16494-0.05371
  -2  -7   126751.44 2719.00   1-0.98601 0.82231 0.03028-0.55862 0.16390-0.10828
  -2  -7   0  179.99  174.82   1-0.98666 0.83025 0.01630-0.53332 0.16195-0.16195
  -2  -7  -183407.4113550.88   1-0.98726 0.83814-0.00428-0.50142 0.15903-0.21465
  -2  -7  -2 2626.12  517.91   1-0.98739 0.84557-0.03168-0.46270 0.15504-0.26627
  -2  -7  -3 2598.42  514.62   1-0.98649 0.85196-0.06611-0.41696 0.14985-0.31670
  -2  -7  -412563.90 1640.66   1-0.98379 0.85655-0.10772-0.36403 0.14331-0.36578
  -2  -7  -5 3366.80  670.23   1-0.97834 0.85839-0.15664-0.30381 0.13527-0.41335
  -2  -7  -6 1452.91  294.74   1-0.96898 0.85632-0.21285-0.23628 0.12551-0.45921
  -2  -7  -7  302.54  284.18   1-0.95485 0.85119-0.27556-0.16224 0.11102-0.49913
  -2  -7  -8  412.15  316.13   1-0.93345 0.83715-0.34523-0.08144 0.09731-0.54087
  -2  -7  -9 4229.32  487.04   1-0.90334 0.81438-0.42113 0.00558 0.08129-0.58030
  -2  -7  -9 3589.14  562.68   1-0.09971 0.01174-0.92842 0.50777 0.35788-0.86141
  -2  -7 -10  219.35  244.19   1-0.86230 0.78068-0.50249 0.09806 0.06273-0.61718
  -2  -7 -10  420.47  189.15   1-0.11782 0.03722-0.95299 0.54343 0.27915-0.83862
  -2  -7 -1112670.19  919.67   1-0.80888 0.73454-0.58652 0.19236 0.04105-0.65072
  -2  -7 -11 8780.81 1388.69   1-0.13417 0.06093-0.96996 0.57150 0.20291-0.81833
  -2  -7 -12  326.67  242.76   1-0.14886 0.08298-0.98033 0.59297 0.12956-0.80093
  -2  -7 -13 1251.96  304.96   1-0.16201 0.10350-0.98500 0.60875 0.05926-0.78658
  -2  -7 -14  295.80  189.86   1-0.17376 0.12262-0.98475 0.61959-0.00797-0.77528
  -2  -7 -15  411.78  158.49   1-0.18425 0.14047-0.98021 0.62615-0.07227-0.76693
  -2  -8   8  113.49   67.05   1-0.98031 0.78361-0.14138-0.54002 0.13782 0.30710
  -2  -8   7  414.83  194.19   1-0.98320 0.79379-0.11435-0.55573 0.14225 0.24706
  -2  -8   6  303.73  254.33   1-0.98495 0.80283-0.09301-0.56576 0.14566 0.18803
  -2  -8   5 3262.06  443.20   1-0.98594 0.81112-0.07720-0.57025 0.14814 0.12994
  -2  -8   4 1541.62  286.19   1-0.98646 0.81892-0.06687-0.56927 0.14973 0.07272
  -2  -8   3  274.54   91.04   1-0.98666 0.82641-0.06201-0.56281 0.15048 0.01636
  -2  -8   217306.95 1928.46   1-0.98663 0.83368-0.06266-0.55085 0.15038-0.03915
  -2  -8   1 6610.57  847.61   1-0.98636 0.84070-0.06889-0.53330 0.14942-0.09380
  -2  -8   020635.65 2571.56   1-0.98574 0.84736-0.08079-0.51008 0.14758-0.14758
  -2  -8  -128561.86 3297.78   1-0.98454 0.85345-0.09848-0.48108 0.14479-0.20041
  -2  -8  -2 1903.45  359.53   1-0.98245 0.85865-0.12206-0.44619 0.14100-0.25223
  -2  -8  -345368.76 4356.46   1-0.97902 0.86251-0.15162-0.40532 0.13611-0.30296
  -2  -8  -4 3791.77  670.38   1-0.97367 0.86445-0.18721-0.35841 0.13003-0.35250
  -2  -8  -5 5384.34  711.06   1-0.96570 0.86377-0.22884-0.30546 0.12264-0.40072
  -2  -8  -6  -12.85  162.33   1-0.95464 0.86174-0.27632-0.24628 0.11087-0.44354
  -2  -8  -7 3042.62  419.88   1-0.93883 0.85327-0.32938-0.18209 0.10051-0.48862
  -2  -8  -8  201.95  182.44   1-0.91744 0.83923-0.38790-0.11244 0.08845-0.53201
  -2  -8  -9 1070.17  309.87   1-0.88916 0.81829-0.45148-0.03774 0.07455-0.57355
  -2  -8 -1013293.78 1038.64   1-0.85244 0.78891-0.51952 0.04142 0.05865-0.61309
  -2  -8 -10 8277.41 1265.89   1-0.10616 0.04414-0.93782 0.45390 0.33048-0.88995
  -2  -8 -11 3847.28  555.59   1-0.80660 0.75019-0.58972 0.12186 0.04022-0.64988
  -2  -8 -11 1822.30  536.84   1-0.12294 0.06829-0.95886 0.48605 0.25583-0.87125
  -2  -8 -12 1967.14 1038.42   1-0.13825 0.09096-0.97333 0.51162 0.18301-0.85438
  -2  -8 -13   93.67  141.60   1-0.15215 0.11223-0.98194 0.53132 0.11238-0.83970
  -2  -8 -14  310.38  155.66   1-0.16472 0.13216-0.98535 0.54583 0.04414-0.82740
  -2  -9   8  371.83  184.22   1-0.96563 0.78696-0.22917-0.52609 0.12258 0.32234
  -2  -9   7  205.09  201.32   1-0.97080 0.79942-0.20338-0.54057 0.12720 0.26211
  -2  -9   6  572.69  177.19   1-0.97439 0.81030-0.18288-0.54975 0.13078 0.20291
  -2  -9   5 5719.65  946.47   1-0.97679 0.81999-0.16753-0.55378 0.13342 0.14465
  -2  -9   4 1843.38  419.67   1-0.97826 0.82875-0.15724-0.55276 0.13516 0.08729
  -2  -9   3  171.76  119.06   1-0.97897 0.83675-0.15198-0.54671 0.13605 0.03079
  -2  -9   2 3356.23  563.02   1-0.97900 0.84407-0.15173-0.53564 0.13609-0.02486
  -2  -9   113440.44 1728.48   1-0.97836 0.85072-0.15652-0.51954 0.13529-0.07967
  -2  -9   0  230.84  147.33   1-0.97696 0.85661-0.16639-0.49835 0.13361-0.13361
  -2  -9  -1 4544.47  559.39   1-0.97464 0.86158-0.18137-0.47205 0.13104-0.18666
  -2  -9  -223112.00 2406.17   1-0.97114 0.86537-0.20152-0.44059 0.12752-0.23876
  -2  -9  -314785.21 1962.86   1-0.96612 0.86764-0.22685-0.40394 0.12300-0.28985
  -2  -9  -4 2612.19  519.41   1-0.95915 0.86796-0.25736-0.36212 0.11740-0.33987
  -2  -9  -5 2370.83  408.99   1-0.94997 0.86783-0.29317-0.31423 0.10764-0.38486
  -2  -9  -6  310.20  266.92   1-0.93741 0.86261-0.33363-0.26264 0.09966-0.43233
  -2  -9  -7 1768.98  398.73   1-0.92100 0.85354-0.37892-0.20622 0.09035-0.47846
  -2  -9  -8 5105.57  618.22   1-0.89987 0.83976-0.42881-0.14520 0.07961-0.52317
  -2  -9  -9 5756.48  645.64   1-0.87305 0.82028-0.48295-0.07994 0.06733-0.56634
  -2  -9 -10  191.12  167.01   1-0.83939 0.79396-0.54089-0.01087 0.05341-0.60786
  -2  -9 -10  298.94  279.57   1-0.09688 0.05344-0.92409 0.36581 0.36968-0.92915
  -2  -9 -11  191.56  135.21   1-0.11372 0.07765-0.94793 0.40075 0.29747-0.91288
  -2  -9 -12  311.51  211.61   1-0.12931 0.10060-0.96547 0.42939 0.22613-0.89749
  -2  -9 -13  219.28  226.96   1-0.14365 0.12231-0.97723 0.45224 0.15615-0.88346
  -2 -10   7  275.60  269.14   1-0.95259 0.80041-0.28388-0.53072 0.10943 0.27868
  -2 -10   6   34.41  156.86   1-0.95749 0.81142-0.26404-0.54245 0.11615 0.21753
  -2 -10   5 4419.44  561.00   1-0.96117 0.82239-0.24898-0.54620 0.11896 0.15912
  -2 -10   4  186.61  202.37   1-0.96356 0.83208-0.23860-0.54526 0.12086 0.10159
  -2 -10   3  199.66  216.28   1-0.96484 0.84064-0.23283-0.53971 0.12192 0.04492
  -2 -10   2  371.01  242.33   1-0.96509 0.84819-0.23166-0.52957 0.12213-0.01090
  -2 -10   1 1137.79  236.24   1-0.96435 0.85473-0.23506-0.51485 0.12151-0.06589
  -2 -10   0  911.83  266.48   1-0.96255 0.86023-0.24304-0.49556 0.12005-0.12005
  -2 -10  -1 1036.07  448.56   1-0.95958 0.86455-0.25559-0.47169 0.11773-0.17335
  -2 -10  -214995.00 1904.25   1-0.95525 0.86750-0.27272-0.44325 0.11452-0.22575
  -2 -10  -3   -0.56  240.21   1-0.94950 0.87076-0.29483-0.40850 0.10732-0.27365
  -2 -10  -4 3165.96  545.25   1-0.94156 0.87017-0.32094-0.37125 0.10219-0.32397
  -2 -10  -5  758.33  365.35   1-0.93125 0.86720-0.35148-0.32958 0.09603-0.37326
  -2 -10  -6  183.24  307.09   1-0.91806 0.86136-0.38635-0.28359 0.08878-0.42145
  -2 -10  -7 2222.42  455.83   1-0.90143 0.85207-0.42538-0.23343 0.08036-0.46848
  -2 -10  -8 1774.77  503.11   1-0.88069 0.83867-0.46838-0.17931 0.07070-0.51426
  -2 -10  -9  257.92  309.08   1-0.85506 0.82039-0.51506-0.12150 0.05972-0.55873
  -2 -10 -10 1374.59  439.18   1-0.82369 0.79636-0.56505-0.06038 0.04734-0.60179
  -2 -10 -11 3013.64  514.82   1-0.78659 0.76605-0.61658 0.00132 0.03310-0.64277
  -2 -10 -11 1053.92  360.40   1-0.10653 0.08905-0.93834 0.31679 0.32888-0.94430
  -2 -10 -12  -46.25  261.66   1-0.12212 0.11200-0.95796 0.34751 0.25959-0.93095
  -2 -11   5 1577.17  507.37   1-0.94079 0.82140-0.32335-0.54267 0.10171 0.17550
  -2 -11   4  237.48  304.33   1-0.94409 0.83205-0.31289-0.54200 0.10379 0.11798
  -2 -11   3   79.37  211.25   1-0.94600 0.84129-0.30668-0.53708 0.10501 0.06132
  -2 -11   2  795.75  415.88   1-0.94660 0.84924-0.30467-0.52796 0.10540 0.00548
  -2 -11   1  386.34  324.73   1-0.94595 0.85594-0.30682-0.51469 0.10498-0.04953
  -2 -11   0  266.33  289.89   1-0.94403 0.86136-0.31310-0.49728 0.10374-0.10374
  -2 -11  -1 5276.14  631.20   1-0.94074 0.86542-0.32349-0.47576 0.10169-0.15713
  -2 -11  -2  631.42  423.33   1-0.93595 0.86797-0.33796-0.45016 0.09878-0.20967
  -2 -11  -3  455.30  434.84   1-0.92945 0.86882-0.35647-0.42052 0.09501-0.26135
  -2 -11  -4 1293.29  490.65   1-0.92098 0.86769-0.37897-0.38689 0.09034-0.31211
  -2 -11  -5 1050.89  406.79   1-0.91020 0.86426-0.40539-0.34935 0.08471-0.36194
  -2 -11  -6   57.12  205.90   1-0.89673 0.85813-0.43561-0.30800 0.07810-0.41077
  -2 -11  -7 2742.83  632.55   1-0.88011 0.84885-0.46950-0.26299 0.07044-0.45856
  -2 -11  -8  467.69  418.86   1-0.85980 0.83589-0.50687-0.21448 0.06169-0.50525
  -2 -11  -9  754.30  392.31   1-0.83520 0.81863-0.54749-0.16274 0.05177-0.55077
  -2 -11 -10 -181.47  196.55   1-0.80649 0.79657-0.58987-0.11014 0.04018-0.59442
  -2 -12   2  215.95  339.93   1-0.92392 0.84466-0.37135-0.53495 0.09193 0.01895
  -2 -12   1  118.59  250.82   1-0.92355 0.85164-0.37232-0.52286 0.09173-0.03628
  -2 -12   0 2673.10  638.37   1-0.92173 0.85715-0.37706-0.50699 0.09074-0.09074
  -2 -12  -1  706.37  442.02   1-0.91839 0.86116-0.38554-0.48738 0.08895-0.14440
  -2 -12  -2  600.66  417.45   1-0.91343 0.86354-0.39772-0.46408 0.08636-0.19725
  -2 -12  -3 1771.06  514.55   1-0.90669 0.86415-0.41354-0.43713 0.08295-0.24928
  -2 -12  -4  144.81  250.71   1-0.89797 0.86278-0.43295-0.40659 0.07869-0.30047
  -2 -12  -5 1362.97  488.47   1-0.88700 0.85915-0.45586-0.37256 0.07356-0.35078
  -2 -12  -6 -151.55  251.77   1-0.87346 0.85296-0.48217-0.33511 0.06751-0.40018
  -2 -12  -7  720.31  336.98   1-0.85699 0.84383-0.51176-0.29440 0.06052-0.44863
  -2 -12  -8  672.70  457.36   1-0.83714 0.83132-0.54445-0.25058 0.05253-0.49608
   3  -9  -5 1336.09  540.85   1-0.30117 0.92161-0.94921 0.34052-0.09103-0.18618
   3  -9  -4  919.91  487.58   1-0.32375 0.93686-0.94218 0.32244-0.08643-0.13533
   3  -9  -3  -66.14  229.72   1-0.34290 0.94866-0.93574 0.30496-0.08246-0.08385
   3  -9  -2  326.04  277.54   1-0.35859 0.95701-0.93013 0.28831-0.07916-0.03171
   3  -9  -1  172.06  273.81   1-0.37079 0.96186-0.92555 0.27269-0.07657 0.02112
   3  -9   0  381.94  381.21   1-0.37944 0.96317-0.92219 0.25829-0.07471 0.07471
   3  -9   1  146.09  256.41   1-0.38443 0.96082-0.92021 0.24527-0.07363 0.12907
   3  -9   2 1026.51  450.02   1-0.38563 0.95467-0.91972 0.23375-0.07337 0.18426
   3  -9   3  873.45  483.16   1-0.38283 0.94453-0.92084 0.22382-0.07398 0.24030
   3  -8  -8   50.26  228.95   1-0.18523 0.81300-0.97683 0.47470-0.10713-0.33717
   3  -8  -7   64.11  265.58   1-0.22093 0.84148-0.97007 0.45706-0.10068-0.28809
   3  -8  -6   -9.16  235.09   1-0.25907 0.86875-0.96073 0.43684-0.09936-0.23328
   3  -8  -5 1775.34  597.34   1-0.28725 0.88959-0.95324 0.41832-0.09382-0.18339
   3  -8  -4  -30.68  230.02   1-0.31182 0.90682-0.94597 0.40000-0.08887-0.13289
   3  -8  -3 -102.06  241.02   1-0.33280 0.92046-0.93919 0.38218-0.08456-0.08175
   3  -8  -2  -94.09  208.72   1-0.35016 0.93047-0.93318 0.36513-0.08094-0.02993
   3  -8  -1  100.59  213.37   1-0.36384 0.93681-0.92818 0.34909-0.07805 0.02261
   3  -8   0   24.36  211.62   1-0.37378 0.93941-0.92440 0.33426-0.07593 0.07593
   3  -8   1  500.01  446.34   1-0.37987 0.93815-0.92202 0.32085-0.07462 0.13006
   3  -8   2 4273.04  735.41   1-0.38194 0.93288-0.92120 0.30899-0.07417 0.18505
   3  -8   3 2879.61  597.61   1-0.37979 0.92339-0.92205 0.29880-0.07463 0.24096
   3  -8   4 1474.96  414.65   1-0.37313 0.90938-0.92465 0.29036-0.07607 0.29784
   3  -8   5   43.63  181.66   1-0.36157 0.89048-0.92903 0.28369-0.07853 0.35575
   3  -8   6  354.38  260.64   1-0.34460 0.86616-0.93515 0.27877-0.08211 0.41477
   3  -7  -9  519.44  393.19   1-0.11292 0.72934-0.98637 0.56876-0.11964-0.38021
   3  -7  -8  340.92  338.96   1-0.15503 0.76423-0.98148 0.55299-0.11245-0.33186
   3  -7  -7  203.49  255.39   1-0.19330 0.79530-0.97542 0.53606-0.10569-0.28308
   3  -7  -6  788.93  367.13   1-0.22778 0.82256-0.96862 0.51837-0.09942-0.23381
   3  -7  -5  122.85  275.89   1-0.26412 0.84836-0.95945 0.49829-0.09838-0.17882
   3  -7  -4 1582.62  583.31   1-0.29087 0.86777-0.95222 0.48001-0.09309-0.12867
   3  -7  -3 2115.98  533.74   1-0.31385 0.88340-0.94534 0.46209-0.08846-0.07786
   3  -7  -2  221.21  221.46   1-0.33301 0.89522-0.93912 0.44484-0.08452-0.02635
   3  -7  -1  -69.40  214.31   1-0.34829 0.90315-0.93384 0.42852-0.08134 0.02589
   3  -7   0  667.19  365.04   1-0.35960 0.90712-0.92975 0.41339-0.07895 0.07895
   3  -7   1 2108.16  558.66   1-0.36680 0.90698-0.92707 0.39966-0.07742 0.13286
   3  -7   2  248.36  269.97   1-0.36971 0.90255-0.92596 0.38751-0.07680 0.18768
   3  -7   3 3040.14  619.00   1-0.36811 0.89360-0.92657 0.37708-0.07714 0.24347
   3  -7   4 2585.10  550.30   1-0.36165 0.87980-0.92899 0.36847-0.07851 0.30029
   3  -7   5  525.94  314.86   1-0.34992 0.86073-0.93326 0.36170-0.08099 0.35821
   3  -7   6  302.47  233.26   1-0.33234 0.83581-0.93934 0.35673-0.08466 0.41732
   3  -7   7  116.50  144.84   1-0.30815 0.80426-0.94710 0.35345-0.08962 0.47772
   3  -6 -10  324.43  350.56   1-0.01983 0.62491-0.99069 0.65760-0.13463-0.42076
   3  -6  -9 1068.55  449.38   1-0.06859 0.66646-0.98953 0.64556-0.12693-0.37292
   3  -6  -8  230.85  250.42   1-0.11345 0.70410-0.98632 0.63147-0.11955-0.32476
   3  -6  -7  712.67  345.59   1-0.15441 0.73785-0.98157 0.61584-0.11256-0.27621
   3  -6  -6  219.01  234.84   1-0.19149 0.76771-0.97575 0.59915-0.10602-0.22721
   3  -6  -5  524.69  419.34   1-0.22465 0.79367-0.96929 0.58181-0.09999-0.17769
   3  -6  -4   53.13  234.45   1-0.25903 0.81782-0.96074 0.56230-0.09937-0.12239
   3  -6  -3 1143.17  459.61   1-0.28413 0.83557-0.95412 0.54464-0.09444-0.07188
   3  -6  -2   -2.83  231.56   1-0.30521 0.84931-0.94800 0.52748-0.09021-0.02066
   3  -6  -1  622.31  434.41   1-0.32216 0.85892-0.94269 0.51114-0.08676 0.03131
   3  -6   0  635.73  365.35   1-0.33487 0.86429-0.93849 0.49589-0.08413 0.08413
   3  -6   1  131.11  238.98   1-0.34318 0.86525-0.93564 0.48200-0.08241 0.13785
   3  -6   2 2646.56  566.31   1-0.34685 0.86158-0.93435 0.46967-0.08164 0.19252
   3  -6   324480.67 1179.64   1-0.34563 0.85301-0.93478 0.45906-0.08189 0.24822
   3  -6   415295.85 1187.46   1-0.33912 0.83916-0.93705 0.45029-0.08325 0.30502
   3  -6   5   24.57  180.26   1-0.32683 0.81953-0.94117 0.44337-0.08580 0.36301
   3  -6   6  -22.04  146.91   1-0.30810 0.79346-0.94711 0.43827-0.08963 0.42228
  -3   6  -6  240.83  263.02   1-0.18396-0.30865-0.20272 0.71525-0.96179 0.62700
   3  -6   7   52.65  139.70   1-0.28204 0.76005-0.95470 0.43481-0.09485 0.48295
  -3   6  -7  288.90  272.27   1-0.19196-0.29274-0.25285 0.77690-0.94826 0.55742
  -3   6  -8  164.37  289.92   1-0.19645-0.28078-0.29013 0.82530-0.93660 0.48992
  -3   6  -9  105.98  244.85   1-0.19964-0.27012-0.31797 0.86427-0.92684 0.42433
  -3   6 -10   88.92  265.87   1-0.20185-0.26043-0.33807 0.89551-0.91921 0.36087
   3  -5 -11   91.52  159.24   1 0.10093 0.49737-0.98313 0.73688-0.15248-0.45784
   3  -5 -10  479.81  259.57   1 0.04018 0.54634-0.98881 0.72936-0.14364-0.41174
   3  -5  -9  304.41  275.91   1-0.01120 0.59051-0.99065 0.72032-0.13596-0.36389
   3  -5  -8  382.52  264.55   1-0.05871 0.63081-0.98996 0.70876-0.12852-0.31579
   3  -5  -7 5532.63  665.75   1-0.10232 0.66720-0.98731 0.69523-0.12141-0.26736
   3  -5  -6 4753.94  644.35   1-0.14198 0.69965-0.98320 0.68024-0.11471-0.21852
   3  -5  -5  534.94  391.44   1-0.17763 0.72809-0.97809 0.66426-0.10849-0.16920
   3  -5  -4   -8.07  233.47   1-0.20921 0.75245-0.97244 0.64773-0.10282-0.11933
   3  -5  -3 1173.07  346.02   1-0.23662 0.77265-0.96666 0.63107-0.09778-0.06883
   3  -5  -2  157.26  239.25   1-0.26423 0.79023-0.95942 0.61267-0.09836-0.01252
   3  -5  -1  783.99  366.58   1-0.28286 0.80151-0.95447 0.59668-0.09469 0.03925
   3  -5   0  -41.61  231.38   1-0.29693 0.80824-0.95046 0.58163-0.09188 0.09188
   3  -5   1  207.83  241.53   1-0.30623 0.81020-0.94769 0.56781-0.09001 0.14545
   3  -5   2  835.40  332.55   1-0.31049 0.80711-0.94638 0.55547-0.08914 0.20003
   3  -5   3  336.84  264.92   1-0.30935 0.79864-0.94673 0.54478-0.08937 0.25570
   3  -5   4  121.82  191.11   1-0.30238 0.78432-0.94885 0.53585-0.09078 0.31256
  -3   5  -4  -68.82  164.15   1-0.18036-0.30867-0.17586 0.59190-0.96775 0.74455
   3  -5   5   70.99  176.64   1-0.28897 0.76356-0.95276 0.52872-0.09348 0.37069
  -3   5  -5  242.42  252.00   1-0.19276-0.28848-0.25933 0.68676-0.94635 0.66718
   3  -5   6 5752.06  606.06   1-0.26831 0.73557-0.95837 0.52330-0.09756 0.43022
  -3   5  -6 3691.86  500.64   1-0.19988-0.27389-0.32017 0.75873-0.92603 0.59102
   3  -5   7  311.90  285.42   1-0.23633 0.70023-0.96673 0.52237-0.09783 0.48661
  -3   5  -7  239.25  256.19   1-0.20470-0.26160-0.36513 0.81482-0.90817 0.51732
   3  -5   8  730.45  313.33   1-0.19808 0.65477-0.97456 0.51932-0.10483 0.54915
  -3   5  -8  -63.76  194.82   1-0.20796-0.25087-0.39787 0.85869-0.89355 0.44688
  -3   5  -9  383.25  394.58   1-0.21013-0.24122-0.42110 0.89305-0.88233 0.37982
  -3   5 -10  398.88  271.44   1-0.21153-0.23234-0.43678 0.91987-0.87433 0.31599
  -3   5 -11    3.16  256.57   1-0.21237-0.22404-0.44638 0.94060-0.86927 0.25509
   3  -4 -11  359.69  235.84   1 0.17652 0.40304-0.97081 0.79802-0.16231-0.44801
   3  -4 -10   26.21  168.54   1 0.11932 0.45283-0.98068 0.79688-0.15495-0.39989
   3  -4  -9 -106.29  157.94   1 0.06066 0.50008-0.98733 0.79065-0.14660-0.35324
   3  -4  -8  283.50  283.27   1 0.01089 0.54264-0.99018 0.78262-0.13931-0.30500
   3  -4  -6 1886.58  415.82   1-0.07700 0.61612-0.98909 0.75977-0.12557-0.20766
   3  -4  -520042.62 1420.81   1-0.11493 0.64684-0.98618 0.74599-0.11930-0.15839
   3  -4  -4  -63.73  247.03   1-0.14868 0.67338-0.98234 0.73127-0.11355-0.10860
   3  -4  -3 5703.40  670.97   1-0.17811 0.69559-0.97802 0.71607-0.10840-0.05821
   3  -4  -2  379.88  310.99   1-0.20304 0.71330-0.97363 0.70081-0.10394-0.00713
   3  -4  -1 6710.16  707.42   1-0.22328 0.72633-0.96958 0.68588-0.10025 0.04471
   3  -4   0 6875.81  697.07   1-0.23860 0.73444-0.96621 0.67164-0.09741 0.09741
   3  -4   1    3.32  221.65   1-0.24872 0.73735-0.96385 0.65839-0.09552 0.15106
   3  -4   2 1381.86  379.51   1-0.25331 0.73472-0.96274 0.64641-0.09465 0.20573
   3  -4   3  951.36  384.21   1-0.25192 0.72612-0.96307 0.63587-0.09491 0.26153
  -3   4  -3   53.78  113.01   1-0.18354-0.29441-0.19951 0.53013-0.96255 0.79515
   3  -4   4  929.27  312.72   1-0.24402 0.71101-0.96496 0.62688-0.09640 0.31856
  -3   4  -4  630.35  225.65   1-0.19908-0.27123-0.31301 0.65495-0.92864 0.70530
   3  -4   5 6935.13  646.45   1-0.22888 0.68865-0.96838 0.61942-0.09921 0.37691
  -3   4  -5 4096.22  456.38   1-0.20725-0.25559-0.39060 0.74367-0.89692 0.61775
   3  -4   6 5090.68  570.23   1-0.20554 0.65810-0.97316 0.61332-0.10348 0.43672
  -3   4  -6 3931.82  504.83   1-0.21223-0.24313-0.44484 0.80905-0.87009 0.53508
   3  -4   7  623.48  255.02   1-0.17270 0.61805-0.97888 0.60816-0.10936 0.49813
  -3   4  -7  201.68  176.72   1-0.21531-0.23258-0.48258 0.85791-0.84897 0.45813
   3  -4   8 2360.37  369.48   1-0.12849 0.56662-0.98478 0.60319-0.11701 0.56133
  -3   4  -8 1259.05  365.30   1-0.21722-0.22320-0.50835 0.89481-0.83330 0.38662
  -3   4  -9 1760.74  450.31   1-0.21838-0.21457-0.52521 0.92281-0.82247 0.31996
  -3   4 -10  157.44  238.33   1-0.21903-0.20644-0.53525 0.94397-0.81580 0.25745
  -3   4 -11  517.11  295.70   1-0.21932-0.19868-0.53989 0.95975-0.81265 0.19847
  -3   4 -12  345.19  304.04   1-0.21934-0.19118-0.54016 0.97116-0.81246 0.14245
   3  -3 -11  195.05  227.31   1 0.26527 0.29556-0.94856 0.84922-0.17277-0.43756
   3  -3 -10   57.37  155.40   1 0.20713 0.34628-0.96411 0.85377-0.16606-0.38879
   3  -3  -9   99.81  174.77   1 0.15239 0.39360-0.97540 0.85405-0.15927-0.34009
   3  -3  -8  249.06  298.23   1 0.10118 0.43740-0.98310 0.85075-0.15252-0.29135
   3  -3  -7 1075.27  328.37   1 0.04906 0.47871-0.98822 0.84343-0.14493-0.24383
   3  -3  -665002.10 1651.23   1 0.00541 0.51515-0.99034 0.83468-0.13848-0.19475
   3  -3  -529886.67 1158.74   1-0.03420 0.54755-0.99060 0.82406-0.13239-0.14529
   3  -3  -4    5.55  243.76   1-0.06958 0.57571-0.98948 0.81206-0.12677-0.09538
   3  -3  -3 1117.68  368.24   1-0.10051 0.59943-0.98746 0.79916-0.12171-0.04490
   3  -3  -2    6.29  204.83   1-0.12674 0.61845-0.98497 0.78579-0.11731 0.00623
   3  -3  -1   44.49  210.25   1-0.14799 0.63249-0.98243 0.77237-0.11367 0.05813
   3  -3   0 6609.37  568.53   1-0.16395 0.64124-0.98021 0.75928-0.11089 0.11089
   3  -3   1 5035.99  572.09   1-0.17423 0.64431-0.97864 0.74683-0.10909 0.16463
   3  -3   236765.68 1153.07   1-0.17838 0.64124-0.97797 0.73529-0.10835 0.21943
  -3   3  -222398.48  614.46   1-0.18284-0.28402-0.19430 0.43950-0.96374 0.85215
   3  -3   3 2330.71  391.89   1-0.17583 0.63148-0.97838 0.72482-0.10880 0.27542
  -3   3  -3 1309.81  216.66   1-0.20473-0.25465-0.36544 0.62189-0.90803 0.74053
   3  -3   4 1063.33  343.66   1-0.16587 0.61430-0.97992 0.71548-0.11056 0.33272
  -3   3  -4  679.09  226.08   1-0.21420-0.23771-0.46851 0.73610-0.85709 0.63375
   3  -3   510433.23  609.87   1-0.14757 0.58879-0.98248 0.70717-0.11374 0.39144
  -3   3  -5 6973.70  477.62   1-0.21893-0.22550-0.53373 0.81245-0.81681 0.53764
   3  -3   6 4353.70  469.58   1-0.11971 0.55372-0.98571 0.69951-0.11850 0.45173
  -3   3  -6 3841.40  457.66   1-0.22507-0.21283-0.57839 0.86775-0.78409 0.44911
   3  -3   7 8359.56  656.60   1-0.08059 0.50739-0.98887 0.69180-0.12498 0.51376
  -3   3  -7 6963.34  633.78   1-0.22628-0.20429-0.60461 0.90510-0.76370 0.37288
   3  -3   8  244.45  191.25   1-0.02777 0.44735-0.99067 0.68272-0.13340 0.57771
  -3   3  -8  -21.99  184.70   1-0.22691-0.19633-0.62062 0.93224-0.75055 0.30391
  -3   3  -9 9529.58  870.72   1-0.22721-0.18870-0.62932 0.95207-0.74318 0.24071
  -3   3 -10  410.80  285.17   1-0.22732-0.18126-0.63253 0.96642-0.74041 0.18211
  -3   3 -11  128.00  245.49   1-0.22728-0.17397-0.63148 0.97650-0.74132 0.12719
  -3   3 -12 1910.04  640.55   1-0.22713-0.16679-0.62696 0.98311-0.74519 0.07522
  -3   3 -13  102.08  274.40   1-0.22687-0.15972-0.61954 0.98682-0.75145 0.02565
   3  -2 -11  -58.74  135.64   1 0.36554 0.17654-0.91260 0.88672-0.18308-0.42725
   3  -2 -10  796.15  292.76   1 0.30796 0.22671-0.93471 0.89783-0.17736-0.37748
   3  -2  -9  159.06  229.82   1 0.25343 0.27383-0.95203 0.90414-0.17145-0.32791
   3  -2  -8  929.40  317.31   1 0.20213 0.31771-0.96527 0.90638-0.16545-0.27842
   3  -2  -7 2475.39  467.04   1 0.15427 0.35815-0.97506 0.90517-0.15951-0.22888
   3  -2  -6 2275.09  466.87   1 0.11008 0.39493-0.98196 0.90106-0.15372-0.17918
   3  -2  -5 2275.89  428.44   1 0.06603 0.42875-0.98687 0.89397-0.14737-0.13032
   3  -2  -420057.23  921.69   1 0.03008 0.45749-0.98938 0.88560-0.14216-0.07999
   3  -2  -3 2117.67  378.28   1-0.00133 0.48170-0.99050 0.87584-0.13746-0.02915
   3  -2  -2 1100.03  290.98   1-0.02788 0.50103-0.99067 0.86513-0.13338 0.02230
   3  -2  -1 1373.87  382.61   1-0.04916 0.51511-0.99028 0.85387-0.13004 0.07450
   3  -2   0 3374.34  454.29   1-0.06476 0.52349-0.98971 0.84242-0.12755 0.12755
   3  -2   1 3266.39  435.41   1-0.07415 0.52566-0.98925 0.83108-0.12603 0.18157
   3  -2   2 7870.85  549.81   1-0.07671 0.52102-0.98910 0.82006-0.12561 0.23669
  -3   2  -2 4628.89  259.06   1-0.20982-0.23864-0.41765 0.58862-0.88404 0.77237
   3  -2   3  681.26  215.71   1-0.07172 0.50882-0.98937 0.80946-0.12642 0.29304
  -3   2  -3  246.75  104.93   1-0.22077-0.22021-0.56430 0.74640-0.79549 0.62799
   3  -2   4 8816.14  547.81   1-0.05824 0.48812-0.98998 0.79918-0.12859 0.35075
  -3   2  -4 7570.77  415.09   1-0.22765-0.20700-0.64353 0.83644-0.73077 0.50745
   3  -2   510607.38  598.36   1-0.03508 0.45775-0.99059 0.78892-0.13226 0.40995
  -3   2  -5 8283.80  494.08   1-0.22848-0.19884-0.68479 0.88883-0.69198 0.41283
   3  -2   628432.66  847.26   1-0.00065 0.41611-0.99049 0.77794-0.13756 0.47080
  -3   2  -624183.72  836.33   1-0.22863-0.19136-0.70810 0.92327-0.66806 0.33308
   3  -2   7   89.14  120.33   1 0.04723 0.36100-0.98835 0.76492-0.14467 0.53345
  -3   2  -7   98.52  258.85   1-0.22860-0.18406-0.72054 0.94684-0.65464 0.26382
   3  -2   8 2887.75  360.48   1 0.10997 0.29124-0.98197 0.74703-0.15370 0.59758
  -3   2  -8 2539.31  406.30   1-0.22857-0.17676-0.72584 0.96327-0.64877 0.20213
  -3   2  -9 3391.15  501.81   1-0.22856-0.16944-0.72610 0.97466-0.64848 0.14600
  -3   2 -10  299.06  292.40   1-0.22859-0.16208-0.72258 0.98228-0.65238 0.09408
  -3   2 -11  438.80  286.82   1-0.22862-0.15472-0.71609 0.98691-0.65950 0.04536
  -3   2 -12 3313.75  627.72   1-0.22863-0.14738-0.70712 0.98907-0.66910-0.00086
  -3   2 -13  174.62  304.17   1-0.22858-0.14010-0.69602 0.98910-0.68066-0.04513
  -3   2 -14  392.62  428.77   1-0.22846-0.13289-0.68301 0.98722-0.69375-0.08787
   3  -1 -11  377.26  238.98   1 0.47673 0.04691-0.85859 0.90477-0.18851-0.42328
   3  -1 -10 2277.59  456.76   1 0.42125 0.09496-0.88804 0.92335-0.18416-0.37202
   3  -1 -10  517.62  251.29   1-0.22585 0.74521-0.59468 0.63180-0.77158 0.21327
   3  -1  -9  672.62  244.31   1 0.36612 0.14240-0.91236 0.93793-0.18313-0.31622
   3  -1  -9  152.02  178.56   1-0.22574 0.73777-0.59229 0.61827-0.77345 0.27097
   3  -1  -8  477.14  227.74   1 0.31654 0.18456-0.93167 0.94624-0.17825-0.26562
   3  -1  -8  184.65  133.87   1-0.22517 0.72987-0.58054 0.59539-0.78247 0.33582
   3  -1  -7  210.66  186.44   1 0.27012 0.22357-0.94709 0.95066-0.17331-0.21508
   3  -1  -7    5.04   77.12   1-0.22060 0.71792-0.56130 0.56487-0.79766 0.40682
   3  -1  -6  253.30  195.78   1 0.22717 0.25911-0.95917 0.95173-0.16843-0.16447
   3  -1  -6   -6.99   74.23   1-0.21736 0.70721-0.51038 0.50281-0.83202 0.49701
   3  -1  -5 6597.55  673.90   1 0.18799 0.29087-0.96842 0.94998-0.16373-0.11368
   3  -1  -411748.94  706.11   1 0.15296 0.31849-0.97530 0.94585-0.15934-0.06259
   3  -1  -3 2748.69  448.22   1 0.12246 0.34158-0.98023 0.93978-0.15537-0.01108
   3  -1  -2 -116.30  193.62   1 0.09693 0.35969-0.98362 0.93217-0.15194 0.04097
   3  -1  -118280.01  793.79   1 0.07475 0.37263-0.98606 0.92329-0.14861 0.09307
   3  -1   0 4745.54  534.10   1 0.06106 0.37910-0.98729 0.91365-0.14666 0.14666
   3  -1   1 1301.69  307.98   1 0.05413 0.37882-0.98785 0.90332-0.14567 0.20121
  -3   1  -249400.94  843.55   1-0.22863-0.20277-0.71269 0.80914-0.66317 0.55150
   3  -1   316838.50  696.36   1 0.06383 0.35470-0.98706 0.88079-0.14706 0.31367
  -3   1  -313942.93  472.45   1-0.22723-0.19684-0.78112 0.88870-0.58156 0.41407
   3  -1   4 3675.21  421.43   1 0.08251 0.32963-0.98524 0.86777-0.14996 0.37190
  -3   1  -4 2303.99  379.22   1-0.23140-0.18492-0.81344 0.93248-0.53363 0.31029
   3  -1   5 5418.35  415.43   1 0.11172 0.29300-0.98174 0.85326-0.15394 0.43136
  -3   1  -5 4953.68  625.77   1-0.23057-0.17843-0.82467 0.95490-0.51647 0.23730
   3  -1   6 8758.37  480.94   1 0.15391 0.24340-0.97513 0.83565-0.15946 0.49237
  -3   1  -6 7131.86 1490.37   1-0.23031-0.17138-0.82784 0.96926-0.51149 0.17648
   3  -1   7 3775.46  385.71   1 0.21173 0.17816-0.96302 0.81254-0.16661 0.55500
  -3   1  -7 3609.69  764.95   1-0.23046-0.16392-0.82611 0.97872-0.51422 0.12338
   3  -1   8 8577.26  427.76   1 0.28909 0.09339-0.94109 0.77961-0.17537 0.61925
  -3   1  -8 7155.28 1746.42   1-0.23085-0.15621-0.82103 0.98483-0.52212 0.07544
  -3   1  -9  556.95  236.16   1-0.23140-0.14835-0.81344 0.98844-0.53362 0.03111
  -3   1 -10  388.86  189.79   1-0.23202-0.14042-0.80384 0.99003-0.54771-0.01062
  -3   1 -11 2692.04  482.81   1-0.22670-0.13873-0.79253 0.98916-0.56612-0.04801
  -3   1 -12  228.70  247.85   1-0.22728-0.13082-0.77984 0.98760-0.58325-0.08671
  -3   1 -13  321.55  298.12   1-0.22779-0.12298-0.76570 0.98459-0.60150-0.12429
  -3   1 -14  362.93  442.84   1-0.22821-0.11524-0.75017 0.98019-0.62060-0.16101
   3   0 -11  308.52  232.38   1 0.58695-0.08166-0.78573 0.90541-0.19520-0.41659
   3   0 -11   18.97  162.86   1-0.21886 0.72767-0.53263 0.65507-0.81755 0.20337
   3   0 -10   12.46  138.11   1 0.53610-0.03825-0.82191 0.93072-0.19246-0.36371
   3   0 -10   25.70  121.40   1-0.21883 0.72017-0.53210 0.64341-0.81791 0.25956
   3   0  -9 3156.29  445.34   1 0.48744 0.00295-0.85238 0.95031-0.18928-0.31128
   3   0  -9 1849.82  339.17   1-0.21832 0.71218-0.52436 0.62454-0.82302 0.32051
   3   0  -8   87.09  177.36   1 0.44132 0.04163-0.87789 0.96494-0.18580-0.25914
   3   0  -8   69.66  100.82   1-0.21709 0.70348-0.50656 0.59561-0.83442 0.38774
   3   0  -714943.85  782.00   1 0.39631 0.07864-0.89909 0.97611-0.18589-0.20249
   3   0  -7 8373.77  485.28   1-0.21463 0.69354-0.47381 0.55173-0.85406 0.46322
   3   0  -6  309.69  266.09   1 0.35658 0.11096-0.91631 0.98233-0.18222-0.15068
   3   0  -6  -34.40   71.59   1-0.20977 0.68122-0.41720 0.48399-0.88427 0.54926
   3   0  -5  134.34  173.68   1 0.32049 0.13963-0.93024 0.98526-0.17865-0.09876
   3   0  -5   61.43   92.32   1-0.19978 0.66375-0.31926 0.37492-0.92636 0.64719
   3   0  -4  203.10  189.63   1 0.28847 0.16424-0.94130 0.98531-0.17530-0.04663
   3   0  -323305.67  892.47   1 0.26099 0.18431-0.94984 0.98284-0.17229 0.00584
   3   0  -2 4333.15  498.07   1 0.23859 0.19930-0.95616 0.97817-0.16975 0.05878
   3   0  -1  561.51  191.62   1 0.22187 0.20860-0.96052 0.97152-0.16781 0.11232
   3   0   0 6475.64  469.70   1 0.21153 0.21153-0.96306 0.96306-0.16658 0.16658
   3   0   1  214.42  229.30   1 0.20834 0.20730-0.96382 0.95282-0.16620 0.22169
  -3   0  -1   65.08   49.91   1-0.20711-0.21273-0.94835 0.95954-0.24025 0.18442
   3   0   215355.47  632.27   1 0.21323 0.19499-0.96265 0.94065-0.16678 0.27776
  -3   0  -212053.69  767.32   1-0.20748-0.20505-0.94745 0.96983-0.24348 0.13181
   3   0   361028.89 1355.17   1 0.22729 0.17352-0.95914 0.92613-0.16844 0.33490
  -3   0  -350166.14 1003.17   1-0.20932-0.19589-0.94269 0.97626-0.25982 0.09232
   3   0   4  205.32  222.28   1 0.25183 0.14157-0.95249 0.90848-0.17126 0.39320
  -3   0  -4   56.71   46.48   1-0.21165-0.18626-0.93603 0.98079-0.28115 0.05782
   3   0   517154.62  665.70   1 0.28844 0.09754-0.94131 0.88629-0.17530 0.45272
  -3   0  -513534.82 1387.96   1-0.21412-0.17647-0.92801 0.98396-0.30486 0.02569
   3   0   6 5283.58  924.50   1 0.33918 0.03939-0.92323 0.85721-0.18053 0.51344
  -3   0  -6 4542.41 1076.95   1-0.21660-0.16668-0.91884 0.98599-0.32985-0.00515
   3   0   7 1716.22  264.55   1 0.40557-0.03425-0.89559 0.81942-0.18282 0.57215
  -3   0  -7 1582.71  379.87   1-0.21901-0.15695-0.90863 0.98697-0.35555-0.03528
   3   0   8  397.66  190.22   1 0.49326-0.12939-0.84894 0.76189-0.18969 0.63464
  -3   0  -8  332.63  190.49   1-0.22131-0.14734-0.89741 0.98694-0.38166-0.06500
  -3   0  -9   42.01  142.03   1-0.22347-0.13786-0.88520 0.98593-0.40799-0.09450
  -3   0 -1011398.75 1924.34   1-0.22548-0.12854-0.87201 0.98393-0.43444-0.12389
  -3   0 -11 2985.92  769.06   1-0.22732-0.11939-0.85783 0.98094-0.46090-0.15326
  -3   0 -12 1510.83  439.44   1-0.22897-0.11042-0.84265 0.97695-0.48734-0.18266
  -3   0 -13   50.47  141.76   1-0.23043-0.10165-0.82644 0.97193-0.51369-0.21214
  -3   0 -14  199.08  301.16   1-0.23168-0.09308-0.80918 0.96586-0.53994-0.24173
  -3   0 -15  -84.15  278.25   1-0.22675-0.09145-0.79155 0.95851-0.56747-0.26998
   3   1 -12  217.90  256.77   1-0.21423 0.71211-0.46879 0.67672-0.85693 0.18691
   3   1 -11  -29.00  125.69   1 0.69308-0.20470-0.69306 0.88719-0.19823-0.41350
   3   1 -11  -57.36  156.72   1-0.21433 0.70474-0.47011 0.66691-0.85618 0.24200
   3   1 -10  250.90  205.30   1 0.64760-0.16812-0.73591 0.91822-0.19757-0.35861
   3   1 -10   52.59  151.05   1-0.21396 0.69690-0.46554 0.65120-0.85877 0.30042
   3   1  -9  135.39  195.84   1 0.60495-0.13291-0.77175 0.94317-0.19601-0.30454
   3   1  -9  127.72  147.87   1-0.21296 0.68842-0.45341 0.62795-0.86548 0.36297
   3   1  -8 1829.32  342.50   1 0.56447-0.09987-0.80230 0.96285-0.19407-0.25087
   3   1  -8 1448.58  304.19   1-0.21104 0.67902-0.43118 0.59459-0.87723 0.43055
   3   1  -7 1616.04  359.70   1 0.52657-0.06941-0.82818 0.97785-0.19188-0.19744
   3   1  -7  682.03  275.60   1-0.20767 0.66818-0.39491 0.54718-0.89493 0.50409
   3   1  -6 6461.46  650.75   1 0.49168-0.04197-0.84988 0.98866-0.18958-0.14412
   3   1  -6 3385.18  354.62   1-0.20188 0.65491-0.33833 0.47947-0.91911 0.58410
   3   1  -513865.03  765.42   1 0.46026-0.01799-0.86780 0.99570-0.18728-0.09080
   3   1  -5 7305.23  390.91   1-0.19071 0.63576-0.25580 0.38547-0.94772 0.66873
   3   1  -4 7422.26  562.54   1 0.43280 0.00202-0.88227 0.99929-0.18511-0.03735
   3   1  -3 1226.54  284.25   1 0.40899 0.01756-0.89316 0.99963-0.18700 0.02055
   3   1  -236778.57 1070.65   1 0.39133 0.02782-0.90136 0.99683-0.18545 0.07448
   3   1  -1 4090.57  418.96   1 0.37941 0.03232-0.90667 0.99113-0.18437 0.12888
   3   1   025046.13  816.76   1 0.37398 0.03033-0.90902 0.98248-0.18387 0.18387
   3   1   1 8505.29  511.85   1 0.37588 0.02102-0.90820 0.97066-0.18404 0.23953
  -3  -1  -1 6350.57  394.85   1-0.10675-0.29382-0.93864 0.87537 0.32795-0.38390
   3   1   215306.62  631.44   1 0.38604 0.00345-0.90374 0.95519-0.18497 0.29594
  -3  -1  -212358.35  386.13   1-0.13852-0.25468-0.97355 0.92138 0.18167-0.29357
   3   1   354191.57 1159.74   1 0.40550-0.02342-0.89481 0.93526-0.18670 0.35316
  -3  -1  -343930.28  913.20   1-0.15924-0.22660-0.98442 0.94335 0.07448-0.24232
   3   1   424370.56  786.49   1 0.43501-0.05973-0.88114 0.91112-0.18529 0.40777
  -3  -1  -419649.80  910.45   1-0.17379-0.20468-0.98474 0.95478-0.00815-0.21563
   3   1   5 1517.78  274.07   1 0.47663-0.10879-0.85865 0.87775-0.18850 0.46659
  -3  -1  -5 1145.79  372.48   1-0.18475-0.18635-0.97988 0.96101-0.07547-0.20426
   3   1   6 1701.47  268.22   1 0.53156-0.17116-0.82492 0.83314-0.19219 0.52590
  -3  -1  -6 1107.39  307.74   1-0.19346-0.17028-0.97206 0.96429-0.13287-0.20280
   3   1   7   17.10   88.83   1 0.60142-0.24846-0.77454 0.77188-0.19586 0.58519
  -3  -1  -7   10.14  141.14   1-0.20065-0.15573-0.96230 0.96563-0.18357-0.20805
   3   1   8 2127.94  255.25   1 0.68618-0.34138-0.69991 0.68551-0.19815 0.64305
  -3  -1  -8 1798.26  757.10   1-0.20675-0.14226-0.95108 0.96551-0.22954-0.21803
  -3  -1  -9 2537.96  652.90   1-0.21092-0.13200-0.93819 0.96464-0.27440-0.22810
  -3  -1 -10 1235.61  269.83   1-0.21508-0.12053-0.92461 0.96226-0.31435-0.24398
  -3  -1 -11 1083.25  205.60   1-0.21871-0.10959-0.91000 0.95883-0.35222-0.26195
  -3  -1 -12 1938.27  387.32   1-0.22188-0.09910-0.89437 0.95440-0.38840-0.28160
  -3  -1 -13 1422.70  445.16   1-0.22465-0.08901-0.87772 0.94894-0.42322-0.30261
  -3  -1 -14 1944.81  491.62   1-0.22705-0.07930-0.86005 0.94246-0.45689-0.32477
  -3  -1 -15 2968.10  637.67   1-0.22910-0.06993-0.84131 0.93491-0.48959-0.34791
   3   2 -12   13.49  187.35   1-0.20905 0.68852-0.40936 0.69164-0.88810 0.21808
  -3  -2  11  833.49  314.44   1-0.78085 0.31109 0.58856-0.86048 0.20941 0.40346
   3   2 -11  722.95  306.49   1-0.20890 0.68090-0.40775 0.67890-0.88887 0.27469
   3   2 -10 1163.83  333.99   1 0.74907-0.28645-0.63215 0.88871-0.19817-0.35794
   3   2 -10  173.55  191.10   1-0.20817 0.67270-0.40013 0.66015-0.89249 0.33415
   3   2  -9  793.61  259.37   1 0.71351-0.25846-0.67197 0.91755-0.19837-0.30214
   3   2  -9   43.34  148.78   1-0.20670 0.66376-0.38502 0.63391-0.89945 0.39694
   3   2  -8  179.28  173.67   1 0.67918-0.23294-0.70665 0.94070-0.19834-0.24659
   3   2  -8   65.89  125.63   1-0.20420 0.65378-0.36032 0.59808-0.91019 0.46352
   3   2  -7 6852.37  671.89   1 0.64776-0.20897-0.73577 0.95893-0.19757-0.19175
   3   2  -7 3409.32  413.41   1-0.20020 0.64231-0.32305 0.54967-0.92496 0.53412
   3   2  -6 3185.64  443.98   1 0.61908-0.18773-0.76031 0.97260-0.19659-0.13711
   3   2  -6 1492.54  269.04   1-0.19394 0.62857-0.26900 0.48449-0.94341 0.60840
   3   2  -5 4044.01  521.42   1 0.59363-0.16972-0.78062 0.98202-0.19551-0.08257
   3   2  -5 1857.16  293.58   1-0.18309 0.60955-0.19611 0.40014-0.96333 0.68434
   3   2  -4   83.77  162.85   1 0.57192-0.15546-0.79692 0.98744-0.19446-0.02800
   3   2  -3  693.11  263.67   1 0.55451-0.14549-0.80935 0.98899-0.19353 0.02667
   3   2  -215774.70  700.14   1 0.54199-0.14041-0.81796 0.98672-0.19281 0.08158
   3   2  -143631.34 1113.67   1 0.53500-0.14086-0.82265 0.98053-0.19240 0.13678
   3   2   0  340.55  254.47   1 0.53421-0.14752-0.82317 0.97017-0.19235 0.19235
   3   2   1  767.42  254.68   1 0.54037-0.16112-0.81905 0.95517-0.19272 0.24834
   3   2   233121.17  900.82   1 0.55422-0.18242-0.80955 0.93479-0.19351 0.30475
   3   2   3   41.75  134.92   1 0.57655-0.21218-0.79352 0.90788-0.19470 0.36155
  -3  -2  -3  107.89   73.16   1-0.10329-0.26396-0.93372 0.81829 0.34275-0.51059
   3   2   4 5783.19  436.56   1 0.60808-0.25116-0.76925 0.87273-0.19615 0.41862
  -3  -2  -4 3705.25  654.82   1-0.12838-0.23151-0.96455 0.86022 0.23053-0.45432
   3   2   5   88.77  175.87   1 0.64946-0.29998-0.73426 0.82686-0.19762 0.47571
  -3  -2  -5   69.96  130.60   1-0.14776-0.20476-0.97973 0.88650 0.13520-0.41494
   3   2   6  125.08  149.96   1 0.69963-0.35793-0.68643 0.76739-0.19829 0.53197
  -3  -2  -6  124.62   82.96   1-0.16307-0.18209-0.98516 0.90303 0.05337-0.38906
  -3  -2  -711818.15  500.74   1-0.76762 0.42941 0.60561-0.67521 0.20972-0.59973
   3   2   713775.30  537.08   1 0.76115-0.42701-0.61761 0.68759-0.19797 0.58726
  -3  -2  -711319.72  808.20   1-0.17546-0.16233-0.98432 0.91328-0.01806-0.37356
  -3  -2  -862840.50 1924.77   1-0.18570-0.14472-0.97921 0.91928-0.08154-0.36602
  -3  -2  -9 5527.73 1739.13   1-0.19434-0.12872-0.97104 0.92221-0.13890-0.36462
  -3  -2 -10 5438.08  960.07   1-0.20172-0.11397-0.96054 0.92281-0.19146-0.36800
  -3  -2 -11 1911.56  353.77   1-0.20731-0.10257-0.94788 0.92244-0.24193-0.37224
  -3  -2 -12  176.59  155.53   1-0.21234-0.09022-0.93387 0.91962-0.28772-0.38228
  -3  -2 -13   58.61  154.08   1-0.21671-0.07855-0.91842 0.91536-0.33096-0.39488
  -3  -2 -14  153.45  356.76   1-0.22048-0.06745-0.90163 0.90976-0.37207-0.40959
  -3  -2 -15  139.03  143.32   1-0.22374-0.05688-0.88355 0.90288-0.41141-0.42609
   3   3 -12 -125.67  227.88   1-0.20310 0.66417-0.34981 0.70645-0.91453 0.24452
   3   3 -11    6.25  154.28   1-0.20269 0.65629-0.34595 0.69146-0.91609 0.30191
  -3  -3  10  153.09  143.52   1-0.82918 0.38512 0.51913-0.85395 0.20724 0.34991
   3   3 -10  356.91  233.36   1 0.83310-0.38870-0.51764 0.84760-0.19491-0.36121
   3   3 -10  302.96  276.98   1-0.20164 0.64776-0.33616 0.67054-0.91996 0.36161
  -3  -3   9    1.71  152.78   1-0.80158 0.36483 0.56027-0.88385 0.20869 0.29274
   3   3  -9   39.34  138.36   1 0.80510-0.36825-0.55963 0.87862-0.19652-0.30398
   3   3  -9   33.62  155.67   1-0.19978 0.63842-0.31920 0.64244-0.92639 0.42388
  -3  -3   8  253.42  218.78   1-0.77538 0.34593 0.59570-0.90804 0.20955 0.23617
   3   3  -8   84.43  156.92   1 0.77845-0.34916-0.59580 0.90382-0.19754-0.24735
   3   3  -8  -55.02  143.25   1-0.19683 0.62801-0.29339 0.60551-0.93550 0.48883
   3   3  -7 2552.00  459.66   1 0.75367-0.33194-0.62668 0.92372-0.19810-0.19117
   3   3  -7 1439.33  299.89   1-0.19242 0.61612-0.25658 0.55756-0.94717 0.55633
   3   3  -641187.85 1219.06   1 0.73125-0.31708-0.65262 0.93869-0.19834-0.13532
   3   3  -623936.54  887.33   1-0.18480 0.60018-0.20909 0.49855-0.96027 0.62548
   3   3  -5 5651.79  601.81   1 0.71169-0.30508-0.67389 0.94898-0.19836-0.07969
   3   3  -4    2.80  149.91   1 0.69564-0.29754-0.69038 0.95441-0.19861-0.02385
   3   3  -3 1825.51  379.47   1 0.68345-0.29279-0.70250 0.95565-0.19842 0.03157
   3   3  -2  388.67  247.31   1 0.67566-0.29244-0.71004 0.95231-0.19827 0.08704
   3   3  -1 7767.38  535.21   1 0.67279-0.29702-0.71277 0.94416-0.19821 0.14260
   3   3   016486.25  679.24   1 0.67539-0.30706-0.71030 0.93080-0.19827 0.19827
   3   3   1160963.3 2256.45   1 0.68395-0.32307-0.70201 0.91163-0.19843 0.25405
   3   3   2 7262.52  500.26   1 0.69894-0.34549-0.68703 0.88577-0.19865 0.30989
   3   3   3  552.94  185.10   1 0.71959-0.37343-0.66545 0.85273-0.19837 0.36521
   3   3   4  530.73  192.73   1 0.74818-0.40958-0.63319 0.80951-0.19818 0.42063
  -3  -3  -5   68.63  112.38   1-0.78717 0.45273 0.58015-0.74637 0.20922-0.48780
   3   3   5  166.58  165.73   1 0.78359-0.45254-0.58908 0.75442-0.19738 0.47544
  -3  -3  -5  280.70  235.74   1-0.11108-0.22285-0.94452 0.77692 0.30909-0.58883
  -3  -3  -612768.81 1057.34   1-0.82897 0.50184 0.51945-0.67444 0.20725-0.54155
   3   3   617340.08  652.70   1 0.82515-0.50166-0.53001 0.68437-0.19543 0.52910
  -3  -3  -614468.70  771.16   1-0.13148-0.19509-0.96754 0.81104 0.21580-0.55149
  -3  -3  -7  298.21  170.18   1-0.87514 0.55532 0.43912-0.58287 0.20318-0.59319
  -3  -3  -7  216.72  126.04   1-0.14840-0.17081-0.98008 0.83469 0.13192-0.52355
  -3  -3  -830338.41 1311.25   1-0.92236 0.61090 0.33189-0.46266 0.19772-0.64244
  -3  -3  -828088.42 1014.65   1-0.16255-0.14929-0.98509 0.85079 0.05626-0.50384
  -3  -3  -928215.60  969.48   1-0.96431 0.66016 0.19050-0.30993 0.18387-0.68419
  -3  -3  -924958.78 1880.52   1-0.17452-0.12996-0.98457 0.86137-0.01246-0.49106
  -3  -3 -1025517.29 1114.29   1-0.18474-0.11237-0.97988 0.86778-0.07541-0.48406
  -3  -3 -11 4170.93 1207.40   1-0.19356-0.09619-0.97195 0.87095-0.13356-0.48185
  -3  -3 -12  673.97  347.41   1-0.20121-0.08117-0.96139 0.87149-0.18771-0.48364
  -3  -3 -13  848.93  404.94   1-0.20706-0.06977-0.94847 0.87115-0.23981-0.48603
  -3  -3 -14   -4.27  230.58   1-0.21236-0.05716-0.93382 0.86769-0.28787-0.49380
  -3  -3 -15  770.68  293.03   1-0.21695-0.04526-0.91745 0.86250-0.33349-0.50401
   3   4 -12 -136.60  252.62   1-0.19649 0.63915-0.29043 0.72143-0.93650 0.26648
   3   4 -11   75.84  216.23   1-0.19584 0.63103-0.28492 0.70478-0.93833 0.32415
  -3  -4  10   99.26   90.30   1-0.89305 0.46793 0.40148-0.81030 0.20313 0.35276
   3   4 -10   90.16  189.08   1-0.19450 0.62222-0.27368 0.68241-0.94194 0.38360
  -3  -4   9  963.07  353.28   1-0.87422 0.45585 0.44090-0.83862 0.20328 0.29815
   3   4  -9  446.08  292.96   1-0.19232 0.61256-0.25570 0.65330-0.94743 0.44492
  -3  -4   8  127.42  131.05   1-0.85465 0.44358 0.47689-0.86337 0.20529 0.24043
   3   4  -8  141.92  214.90   1 0.85728-0.44621-0.47731 0.85873-0.19295-0.25194
   3   4  -8  176.02  185.41   1-0.18781 0.59961-0.23253 0.61846-0.95428 0.50789
  -3  -4   7  592.14  195.94   1-0.83651 0.43275 0.50744-0.88268 0.20674 0.18326
   3   4  -7  718.05  296.69   1 0.83878-0.43526-0.50853 0.87897-0.19450-0.19478
   3   4  -7  431.60  213.01   1-0.18320 0.58750-0.19699 0.57186-0.96313 0.57254
  -3  -4   6  421.43  186.63   1-0.82030 0.42385 0.53284-0.89684 0.20777 0.12651
   3   4  -6  498.15  225.76   1 0.82218-0.42622-0.53455 0.89402-0.19561-0.13806
  -3  -4   518579.58  874.29   1-0.80648 0.41734 0.55327-0.90603 0.20848 0.07009
   3   4  -520552.70  976.51   1 0.80795-0.41954-0.55555 0.90405-0.19638-0.08167
  -3  -4   4  354.11  271.03   1-0.79549 0.41366 0.56879-0.91032 0.20893 0.01392
   3   4  -4   23.27  186.79   1 0.79653-0.41568-0.57163 0.90914-0.19690-0.02554
  -3  -4   3 1974.68  367.43   1-0.78776 0.41323 0.57936-0.90965 0.20920-0.04205
   3   4  -3 1274.93  316.27   1 0.78836-0.41507-0.58273 0.90927-0.19721 0.03038
  -3  -4   212999.94  685.64   1-0.78368 0.41647 0.58481-0.90386 0.20933-0.09789
   3   4  -216014.53  798.36   1 0.78386-0.41813-0.58872 0.90429-0.19737 0.08614
  -3  -4   1   78.71  153.51   1-0.78366 0.42375 0.58484-0.89265 0.20933-0.15361
   3   4  -1  101.04  194.39   1 0.78342-0.42524-0.58931 0.89390-0.19738 0.14177
  -3  -4   0  445.59  302.60   1-0.78801 0.43541 0.57901-0.87558 0.20919-0.20919
   3   4   0  237.23  273.00   1 0.78736-0.43674-0.58407 0.87769-0.19725 0.19725
  -3  -4  -1 6444.51  481.10   1-0.79701 0.45171 0.56669-0.85202 0.20887-0.26459
   3   4   1 9060.84  603.24   1 0.79597-0.45291-0.57239 0.85504-0.19692 0.25253
  -3  -4  -2 1289.68  305.88   1-0.81078 0.47279 0.54704-0.82112 0.20827-0.31971
  -3  -4  -3  134.34   92.38   1-0.82930 0.49862 0.51895-0.78179 0.20723-0.37438
   3   4   3  263.01  161.72   1 0.82764-0.49969-0.52618 0.78688-0.19527 0.36211
  -3  -4  -419181.50 1766.54   1-0.85227 0.52891 0.48103-0.73263 0.20550-0.42836
   3   4   422494.40  809.46   1 0.85041-0.53002-0.48920 0.73891-0.19357 0.41602
  -3  -4  -5 2027.57  453.76   1-0.87904 0.56298 0.43150-0.67186 0.20271-0.48129
  -3  -4  -614898.71  912.87   1-0.90767 0.59958 0.36858-0.59588 0.20069-0.53424
  -3  -4  -617416.44  813.97   1-0.10237-0.20561-0.93239 0.70153 0.34664-0.68232
  -3  -4  -821437.97  888.11   1-0.96475 0.67130 0.18844-0.39306 0.18364-0.62837
  -3  -4  -818851.03  839.04   1-0.13946-0.15380-0.97426 0.76560 0.17707-0.62465
  -3  -4  -9 1541.51  326.10   1-0.98368 0.69752 0.06332-0.25693 0.16836-0.66891
  -3  -4  -9 1472.57  481.17   1-0.15421-0.13168-0.98281 0.78524 0.10149-0.60501
  -3  -4 -1012144.65 1222.89   1-0.16697-0.11155-0.98545 0.79899 0.03142-0.59089
  -3  -4 -11 2690.73  567.48   1-0.17806-0.09311-0.98344 0.80807-0.03374-0.58167
  -3  -4 -12  -89.25  265.64   1-0.18773-0.07607-0.97765 0.81338-0.09463-0.57672
  -3  -4 -13 2394.06  907.49   1-0.19620-0.06023-0.96874 0.81557-0.15180-0.57550
  -3  -4 -14 1674.16  482.23   1-0.20364-0.04543-0.95718 0.81511-0.20574-0.57751
  -3  -4 -15 2014.83  730.58   1-0.20910-0.03470-0.94329 0.81408-0.25779-0.57971
   3   5 -11  332.13  354.76   1-0.18716 0.60288-0.22739 0.72087-0.95564 0.34186
  -3  -5  10  279.30  176.89   1-0.93972 0.53261 0.28207-0.76473 0.19326 0.36264
   3   5 -10  237.94  187.51   1-0.18560 0.59382-0.21525 0.69768-0.95875 0.40077
  -3  -5   9 1107.22  326.16   1-0.92551 0.52571 0.32342-0.79474 0.19699 0.30331
   3   5  -9  974.99  458.14   1-0.18319 0.58390-0.19688 0.66824-0.96315 0.46097
  -3  -5   8  -13.74  125.31   1-0.91173 0.51924 0.35884-0.81881 0.19993 0.24478
   3   5  -8  -47.50  194.31   1-0.17974 0.57295-0.17131 0.63160-0.96868 0.52229
  -3  -5   7 3098.99  660.20   1-0.89888 0.51371 0.38872-0.83734 0.20221 0.18691
  -3  -5   6 6046.29 1003.34   1-0.88906 0.51099 0.41110-0.84924 0.20140 0.13288
  -3  -5   5 8377.94 1503.79   1-0.87945 0.50869 0.43068-0.85759 0.20266 0.07591
  -3  -5   4  243.63  165.78   1-0.87202 0.50857 0.44513-0.86080 0.20354 0.01932
  -3  -5   3  252.62  202.95   1-0.86712 0.51098 0.45437-0.85879 0.20407-0.03692
  -3  -5   2 6669.11 1006.31   1-0.86503 0.51620 0.45822-0.85141 0.20429-0.09285
   3   5  -2 6662.32  549.19   1 0.86550-0.51797-0.46258 0.85155-0.19215 0.08092
  -3  -5   116411.80 1827.87   1-0.86601 0.52449 0.45642-0.83836 0.20418-0.14847
  -3  -5   0 2573.84  561.14   1-0.87022 0.53600 0.44855-0.81925 0.20373-0.20373
  -3  -5  -110036.01 1289.73   1-0.87773 0.55082 0.43408-0.79355 0.20287-0.25859
  -3  -5  -2  135.91   90.03   1-0.88846 0.56886 0.41234-0.76057 0.20149-0.31292
  -3  -5  -311718.90 1789.66   1-0.90099 0.58897 0.38399-0.71917 0.20186-0.36863
  -3  -5  -4 1632.08  386.99   1-0.91730 0.61259 0.34499-0.66883 0.19881-0.42117
  -3  -5  -5  130.08  110.93   1-0.93527 0.63787 0.29568-0.60817 0.19452-0.47247
  -3  -5  -6  609.28  194.91   1-0.95360 0.66352 0.23468-0.53583 0.18859-0.52213
  -3  -5  -748945.69 1135.46   1-0.97041 0.68764 0.16041-0.45021 0.18047-0.56960
  -3  -5  -747766.26 1522.37   1-0.09915-0.18289-0.92758 0.63345 0.36022-0.75185
  -3  -5  -8 4159.64  929.95   1-0.98303 0.70760 0.07049-0.34927 0.16931-0.61424
  -3  -5  -8 3574.96  922.19   1-0.11812-0.15655-0.95335 0.67032 0.27778-0.72536
  -3  -5  -914620.47 2117.27   1-0.98735 0.71921-0.03571-0.23175 0.15444-0.65499
  -3  -5  -914578.46 1474.62   1-0.13486-0.13245-0.97055 0.69862 0.19959-0.70311
  -3  -5 -10   -6.45   53.51   1-0.97773 0.71688-0.16108-0.09506 0.13451-0.69068
  -3  -5 -10  311.66  186.21   1-0.14958-0.11036-0.98071 0.71988 0.12578-0.68526
  -3  -5 -11  206.31  137.24   1-0.16255-0.09002-0.98509 0.73536 0.05624-0.67166
  -3  -5 -12  740.00  371.61   1-0.17399-0.07122-0.98470 0.74607-0.00932-0.66204
  -3  -5 -13   -9.43  291.15   1-0.18409-0.05376-0.98032 0.75279-0.07125-0.65605
  -3  -5 -14  -64.38  274.36   1-0.19302-0.03746-0.97255 0.75612-0.12990-0.65335
  -3  -5 -15  190.46  249.00   1-0.20093-0.02219-0.96185 0.75652-0.18562-0.65358
   3   6 -10  122.90  257.87   1-0.17753 0.56716-0.15532 0.71210-0.97177 0.41379
  -3  -6   9  357.94  155.79   1-0.96049 0.57870 0.20725-0.75241 0.18570 0.31460
  -3  -6   8 7220.94 1702.08   1-0.95166 0.57718 0.24183-0.77564 0.18932 0.25540
  -3  -6   7   90.78  140.08   1-0.94324 0.57607 0.27084-0.79331 0.19219 0.19693
  -3  -6   6 3615.09  618.15   1-0.93565 0.57580 0.29454-0.80566 0.19442 0.13912
  -3  -6   5  535.04  272.66   1-0.92927 0.57674 0.31303-0.81281 0.19608 0.08186
  -3  -6   4 5732.36  895.51   1-0.92443 0.57921 0.32635-0.81478 0.19724 0.02511
  -3  -6   328637.82 3624.74   1-0.92140 0.58349 0.33442-0.81152 0.19793-0.03116
  -3  -6   2 6114.32 1046.66   1-0.92036 0.58977 0.33712-0.80286 0.19816-0.08698
  -3  -6   135943.05 3429.87   1-0.92148 0.59821 0.33419-0.78859 0.19791-0.14232
  -3  -6   014041.93 1814.12   1-0.92481 0.60885 0.32533-0.76839 0.19716-0.19716
  -3  -6  -142122.48 2897.35   1-0.93030 0.62165 0.31012-0.74184 0.19583-0.25142
  -3  -6  -2  922.54  326.81   1-0.93778 0.63645 0.28808-0.70845 0.19382-0.30500
  -3  -6  -3 7625.36  914.07   1-0.94691 0.65289 0.25860-0.66763 0.19099-0.35777
  -3  -6  -418080.40 2557.58   1-0.95713 0.67043 0.22103-0.61871 0.18717-0.40953
  -3  -6  -5  129.63   82.74   1-0.96765 0.68826 0.17459-0.56093 0.18209-0.46004
  -3  -6  -6 1546.93  314.89   1-0.97732 0.70525 0.11848-0.49348 0.17547-0.50901
  -3  -6  -7  384.29  222.43   1-0.98466 0.71996 0.05127-0.41523 0.16676-0.55607
  -3  -6  -8 7393.20 1279.00   1-0.98743 0.73002-0.02674-0.32590 0.15577-0.60070
  -3  -6  -8 6990.94  662.51   1-0.09958-0.15651-0.92823 0.57084 0.35842-0.80600
  -3  -6  -9 1254.41  320.93   1-0.98295 0.73283-0.11702-0.22430 0.14182-0.64236
  -3  -6  -9 1191.22  288.65   1-0.11745-0.13127-0.95254 0.60625 0.28083-0.78436
  -3  -6 -10 3644.80  896.80   1-0.96747 0.72465-0.22038-0.10963 0.12417-0.68033
  -3  -6 -10 3781.85 1226.72   1-0.13350-0.10786-0.96936 0.63418 0.20615-0.76562
  -3  -6 -11  559.37  299.55   1-0.14787-0.08613-0.97979 0.65570 0.13467-0.75008
  -3  -6 -12 3981.34 1156.71   1-0.16070-0.06592-0.98476 0.67177 0.06645-0.73781
  -3  -6 -13  257.40  314.66   1-0.17217-0.04709-0.98506 0.68317 0.00142-0.72873
  -3  -6 -14 -142.42  246.54   1-0.18240-0.02950-0.98135 0.69056-0.06058-0.72267
  -3  -6 -15  555.83  381.63   1-0.19153-0.01300-0.97414 0.69445-0.11978-0.71941
  -3  -7   9  141.66  192.29   1-0.98015 0.61636 0.09712-0.71613 0.17281 0.32749
  -3  -7   8  182.07  165.68   1-0.97550 0.61903 0.13065-0.73830 0.17695 0.26776
  -3  -7   7  970.18  289.60   1-0.97073 0.62156 0.15869-0.75500 0.18027 0.20885
  -3  -7   6 1879.87  358.75   1-0.96624 0.62439 0.18147-0.76643 0.18287 0.15067
  -3  -7   5 3786.45  766.18   1-0.96238 0.62785 0.19911-0.77273 0.18482 0.09312
  -3  -7   4 2278.93  456.18   1-0.95944 0.63222 0.21165-0.77393 0.18617 0.03618
  -3  -7   3 1386.94  282.81   1-0.95763 0.63772 0.21906-0.76999 0.18696-0.02019
  -3  -7   226682.25 3380.54   1-0.95708 0.64449 0.22122-0.76081 0.18719-0.07601
  -3  -7   115587.34 1765.60   1-0.95789 0.65262 0.21798-0.74622 0.18684-0.13125
  -3  -7   0  310.44  158.40   1-0.96006 0.66210 0.20908-0.72598 0.18590-0.18590
  -3  -7  -133733.60 3299.94   1-0.96348 0.67283 0.19426-0.69981 0.18429-0.23988
  -3  -7  -2  132.02  162.48   1-0.96794 0.68461 0.17316-0.66737 0.18193-0.29311
  -3  -7  -3 2467.60  494.74   1-0.97309 0.69708 0.14539-0.62826 0.17871-0.34548
  -3  -7  -420288.10 2788.87   1-0.97843 0.70973 0.11053-0.58205 0.17449-0.39685
  -3  -7  -5 2106.76  502.16   1-0.98330 0.72206 0.06757-0.52802 0.16892-0.44701
  -3  -7  -6 8674.36 1042.84   1-0.98663 0.73267 0.01712-0.46626 0.16207-0.49577
  -3  -7  -7 7960.63 1125.90   1-0.98725 0.74059-0.04179-0.39602 0.15354-0.54285
  -3  -7  -815951.55 2357.94   1-0.98363 0.74425-0.10963-0.31687 0.14301-0.58794
  -3  -7  -9 7958.18 1420.44   1-0.97375 0.74166-0.18673-0.22845 0.13011-0.63066
  -3  -7  -9 7676.44  875.57   1-0.10254-0.12760-0.93263 0.51198 0.34594-0.84946
  -3  -7 -10 1459.95  333.46   1-0.95607 0.73358-0.27091-0.13351 0.11190-0.66635
  -3  -7 -11 1383.44  346.72   1-0.13458-0.08083-0.97031 0.57186 0.20094-0.81635
  -3  -7 -12  289.39  160.74   1-0.14842-0.05962-0.98009 0.59274 0.13181-0.80318
  -3  -7 -13 1685.61  597.90   1-0.16093-0.03974-0.98480 0.60855 0.06520-0.79251
  -3  -7 -14  284.46  192.74   1-0.17222-0.02109-0.98505 0.61990 0.00113-0.78439
  -3  -8   8   68.21  119.37   1-0.98623 0.64824 0.02602-0.70743 0.16331 0.28161
  -3  -8   7  961.71  355.49   1-0.98452 0.65382 0.05315-0.72325 0.16701 0.22230
  -3  -8   6 2080.58  425.28   1-0.98252 0.65868 0.07563-0.73444 0.17006 0.16347
  -3  -8   5   57.83  213.64   1-0.98069 0.66416 0.09261-0.74007 0.17224 0.10570
  -3  -8   4 1167.13  322.84   1-0.97921 0.66999 0.10464-0.74077 0.17375 0.04860
  -3  -8   3  926.75  335.57   1-0.97827 0.67637 0.11174-0.73651 0.17464-0.00787
  -3  -8   2 6776.63  888.92   1-0.97798 0.68339 0.11382-0.72725 0.17490-0.06371
  -3  -8   1  -28.80  225.57   1-0.97840 0.69112 0.11079-0.71287 0.17452-0.11893
  -3  -8   060479.39 3399.79   1-0.97948 0.69953 0.10247-0.69322 0.17348-0.17348
  -3  -8  -110898.83 1532.57   1-0.98114 0.70849 0.08869-0.66809 0.17174-0.22733
  -3  -8  -3 8850.04  976.59   1-0.98522 0.72742 0.04328-0.60022 0.16568-0.33252
  -3  -8  -4 2279.16  561.60   1-0.98683 0.73632 0.01163-0.55726 0.16130-0.38376
  -3  -8  -5  -33.05  178.06   1-0.98743 0.74421-0.02648-0.50782 0.15581-0.43389
  -3  -8  -6  142.30  133.91   1-0.98625 0.75032-0.07135-0.45163 0.14904-0.48274
  -3  -8  -7   44.54   89.48   1-0.98233 0.75369-0.12321-0.38846 0.14081-0.53012
  -3  -8  -8 8695.17 1620.27   1-0.97449 0.75314-0.18225-0.31810 0.13089-0.57582
  -3  -8  -9  271.31  203.18   1-0.96126 0.74720-0.24860-0.24044 0.11903-0.61957
  -3  -8 -10 3351.16  665.33   1-0.94178 0.73738-0.32027-0.15781 0.10233-0.65677
  -3  -8 -10 2138.38  882.29   1-0.10732-0.09686-0.93944 0.45552 0.32546-0.88493
  -3  -8 -11  339.94  240.64   1-0.91231 0.71525-0.40041-0.06655 0.08578-0.69568
  -3  -8 -11  318.15  291.94   1-0.12305-0.07377-0.95899 0.48617 0.25532-0.87074
  -3  -8 -12 -162.53  259.47   1-0.13752-0.05194-0.97275 0.51104 0.18662-0.85798
  -3  -8 -13  232.32  163.49   1-0.15076-0.03133-0.98129 0.53067 0.11968-0.84699
  -3  -8 -14 -118.89  260.81   1-0.16283-0.01189-0.98513 0.54561 0.05469-0.83795
  -3  -9   7  797.87  253.79   1-0.98720 0.67453-0.04450-0.69944 0.15313 0.23618
  -3  -9   6  346.44  148.37   1-0.98743 0.68205-0.02318-0.70945 0.15629 0.17740
  -3  -9   5   38.14  128.74   1-0.98730 0.68921-0.00667-0.71465 0.15869 0.11938
  -3  -9   4 1605.32  345.48   1-0.98704 0.69624 0.00510-0.71511 0.16037 0.06208
  -3  -9   3 1676.45  441.21   1-0.98681 0.70330 0.01217-0.71086 0.16137 0.00547
  -3  -9   2 -170.00  202.51   1-0.98673 0.71051 0.01449-0.70187 0.16170-0.05047
  -3  -9   1 1412.82  396.61   1-0.98682 0.71789 0.01201-0.68807 0.16135-0.10573
  -3  -9   0 3572.37  895.50   1-0.98705 0.72541 0.00463-0.66938 0.16031-0.16031
  -3  -9  -1 6304.49  908.29   1-0.98732 0.73296-0.00776-0.64567 0.15853-0.21415
  -3  -9  -2  184.34  112.07   1-0.98743 0.74037-0.02531-0.61680 0.15598-0.26721
  -3  -9  -313493.76 1688.87   1-0.98711 0.74734-0.04818-0.58261 0.15258-0.31943
  -3  -9  -4 1408.03  459.61   1-0.98598 0.75350-0.07652-0.54296 0.14824-0.37071
  -3  -9  -5 1825.85  376.82   1-0.98355 0.75835-0.11049-0.49768 0.14287-0.42095
  -3  -9  -6 3149.99  627.41   1-0.97920 0.76129-0.15022-0.44663 0.13634-0.47004
  -3  -9  -7 1319.97  388.08   1-0.97217 0.76155-0.19584-0.38969 0.12852-0.51784
  -3  -9  -8  985.78  337.07   1-0.96154 0.75821-0.24741-0.32681 0.11925-0.56418
  -3  -9  -9 1235.03  381.05   1-0.94686 0.75322-0.30379-0.25909 0.10557-0.60458
  -3  -9 -10 2192.11  493.50   1-0.92568 0.73938-0.36671-0.18505 0.09290-0.64735
  -3  -9 -10 2232.39  565.37   1-0.09762-0.08798-0.92524 0.36696 0.36659-0.92606
  -3  -9 -11 2321.59  425.14   1-0.89689 0.71794-0.43526-0.10537 0.07818-0.68807
  -3  -9 -11  878.17  366.79   1-0.11346-0.06477-0.94760 0.40042 0.29861-0.91403
  -3  -9 -12  508.93  324.72   1-0.12822-0.04265-0.96440 0.42832 0.23125-0.90261
  -3  -9 -13  213.47  220.11   1-0.14190-0.02160-0.97604 0.45106 0.16491-0.89223
  -3 -10   6  252.98  242.34   1-0.98320 0.69585-0.11430-0.69220 0.14226 0.19143
  -3 -10   5  534.81  279.19   1-0.98457 0.70451-0.09811-0.69707 0.14485 0.13322
  -3 -10   4  -19.78  222.53   1-0.98539 0.71262-0.08642-0.69744 0.14670 0.07576
  -3 -10   3 2366.58  538.94   1-0.98583 0.72034-0.07920-0.69335 0.14782 0.01902
  -3 -10   2 1130.34  293.88   1-0.98598 0.72779-0.07644-0.68479 0.14825-0.03702
  -3 -10   1 2002.33  430.37   1-0.98589 0.73498-0.07816-0.67175 0.14799-0.09237
  -3 -10   0 1272.05  384.50   1-0.98552 0.74190-0.08442-0.65418 0.14701-0.14701
  -3 -10  -1   61.42  184.60   1-0.98478 0.74846-0.09528-0.63201 0.14530-0.20092
  -3 -10  -2   15.88  270.60   1-0.98352 0.75448-0.11082-0.60515 0.14282-0.25405
  -3 -10  -3  276.04  241.03   1-0.98149 0.75974-0.13114-0.57351 0.13951-0.30636
  -3 -10  -4 1087.11  317.03   1-0.97839 0.76393-0.15632-0.53702 0.13532-0.35778
  -3 -10  -5  917.17  308.21   1-0.97380 0.76663-0.18644-0.49558 0.13016-0.40825
  -3 -10  -6 1900.11  578.72   1-0.96723 0.76735-0.22158-0.44913 0.12395-0.45765
  -3 -10  -7 4763.04  811.56   1-0.95806 0.76547-0.26176-0.39763 0.11658-0.50590
  -3 -10  -8 1107.50  417.04   1-0.94609 0.76320-0.30635-0.34133 0.10507-0.54863
  -3 -10  -9  525.71  358.96   1-0.92954 0.75399-0.35625-0.28031 0.09506-0.59406
  -3 -10 -10  575.90  339.95   1-0.90780 0.73960-0.41098-0.21445 0.08350-0.63795
  -3 -10 -11 -197.93  267.49   1-0.10584-0.05381-0.93736 0.31582 0.33187-0.94729
  -3 -10 -12  180.07  123.53   1-0.12064-0.03165-0.95628 0.34583 0.26639-0.93776
  -3 -11   4  108.83  148.71   1-0.97625 0.72150-0.17115-0.68658 0.13280 0.08965
  -3 -11   3  550.73  406.91   1-0.97736 0.72990-0.16365-0.68276 0.13408 0.03276
  -3 -11   2 1310.81  426.40   1-0.97783 0.73766-0.16033-0.67476 0.13464-0.02341
  -3 -11   1 4329.72  746.88   1-0.97771 0.74483-0.16121-0.66257 0.13449-0.07888
  -3 -11   0  239.11  217.21   1-0.97698 0.75138-0.16628-0.64618 0.13363-0.13363
  -3 -11  -2  956.90  307.36   1-0.97334 0.76232-0.18916-0.60067 0.12969-0.24092
  -3 -11  -3 1506.11  360.60   1-0.97010 0.76638-0.20706-0.57146 0.12654-0.29339
  -3 -11  -4  257.19  244.98   1-0.96560 0.76917-0.22931-0.53789 0.12256-0.34502
  -3 -11  -5  393.23  137.55   1-0.95949 0.77035-0.25596-0.49993 0.11766-0.39575
  -3 -11  -6  259.57  326.55   1-0.95176 0.77228-0.28686-0.45675 0.10886-0.44153
  -3 -11  -7  255.60  345.26   1-0.94118 0.76904-0.32214-0.41035 0.10195-0.49007
  -3 -11  -8  335.58  383.92   1-0.92753 0.76274-0.36174-0.35962 0.09393-0.53749
  -3 -11  -9  827.77  381.21   1-0.91011 0.75267-0.40560-0.30463 0.08467-0.58367
  -3 -11 -10   25.21  186.80   1-0.88812 0.73802-0.45359-0.24551 0.07407-0.62852
  -3 -12   0  370.19  223.57   1-0.96279 0.75523-0.24199-0.64433 0.12024-0.12024
  -3 -12  -1  934.24  460.91   1-0.96098 0.76070-0.24979-0.62522 0.11881-0.17442
  -3 -12  -2  572.37  265.00   1-0.95812 0.76514-0.26150-0.60219 0.11663-0.22786
  -3 -12  -3  125.38  227.18   1-0.95440 0.77098-0.27724-0.57343 0.11070-0.27703
  -3 -12  -4  972.95  460.50   1-0.94894 0.77287-0.29677-0.54277 0.10694-0.32872
  -3 -12  -5  785.19  405.28   1-0.94180 0.77307-0.32020-0.50821 0.10234-0.37956
  -3 -12  -6 5628.43  802.96   1-0.93264 0.77126-0.34754-0.46974 0.09684-0.42951
  -3 -12  -7  473.62  449.06   1-0.92107 0.76703-0.37874-0.42741 0.09038-0.47850
  -3 -12  -8 1052.95  442.98   1-0.90660 0.75990-0.41376-0.38127 0.08290-0.52646
   4  -8  -1  540.69  388.78   1-0.19823 0.91604-0.97453 0.39783-0.10481 0.05092
   4  -8   0  430.97  306.52   1-0.20611 0.91668-0.97305 0.38557-0.10338 0.10502
   4  -7  -5   28.96  249.29   1-0.10790 0.83600-0.98683 0.52571-0.12048-0.15721
   4  -7  -4  131.31  241.27   1-0.13128 0.85218-0.98447 0.51247-0.11653-0.10561
   4  -7  -3   28.78  226.82   1-0.15118 0.86487-0.98201 0.49913-0.11312-0.05349
   4  -7  -2   63.62  234.32   1-0.16752 0.87399-0.97968 0.48592-0.11027-0.00080
   4  -7  -1  -21.23  219.79   1-0.18021 0.87947-0.97767 0.47304-0.10803 0.05249
   4  -7   0  526.08  442.95   1-0.18912 0.88117-0.97616 0.46065-0.10644 0.10644
   4  -7   1 2167.18  636.91   1-0.19411 0.87894-0.97528 0.44890-0.10555 0.16109
   4  -7   2 7481.67  857.66   1-0.19496 0.87258-0.97512 0.43786-0.10539 0.21647
   4  -7   3  206.89  306.65   1-0.19145 0.86186-0.97575 0.42761-0.10602 0.27264
   4  -7   4   28.49  202.06   1-0.18325 0.84644-0.97717 0.41815-0.10749 0.32965
   4  -7   5  230.85  253.82   1-0.16996 0.82594-0.97930 0.40941-0.10984 0.38754
   4  -6  -7  -49.57  246.54   1-0.01444 0.73842-0.99067 0.62495-0.13546-0.25331
   4  -6  -6  -42.84  228.50   1-0.04624 0.76301-0.99036 0.61376-0.13050-0.20273
   4  -6  -5  940.67  478.00   1-0.07458 0.78413-0.98922 0.60174-0.12596-0.15173
   4  -6  -4  195.22  241.27   1-0.09940 0.80174-0.98755 0.58919-0.12189-0.10026
   4  -6  -3  -23.85  221.49   1-0.12062 0.81575-0.98561 0.57638-0.11834-0.04827
   4  -6  -2  -64.29  194.75   1-0.13814 0.82606-0.98366 0.56356-0.11536 0.00428
   4  -6  -1 -111.37  218.02   1-0.15186 0.83256-0.98191 0.55093-0.11300 0.05746
   4  -6   0  792.06  426.07   1-0.16162 0.83511-0.98055 0.53869-0.11130 0.11130
   4  -6   1  -51.96  228.75   1-0.16725 0.83353-0.97972 0.52698-0.11031 0.16585
   4  -6   2  181.81  267.92   1-0.16853 0.82759-0.97952 0.51591-0.11009 0.22117
   4  -6   3  -32.50  216.63   1-0.16517 0.81702-0.98003 0.50553-0.11068 0.27730
   4  -6   4  -33.97  168.24   1-0.15683 0.80147-0.98123 0.49586-0.11214 0.33429
   4  -6   5   47.69  165.76   1-0.14307 0.78049-0.98306 0.48681-0.11452 0.39222
   4  -6   6   29.79  153.18   1-0.12330 0.75351-0.98534 0.47821-0.11789 0.45113
   4  -5  -9   91.11  225.31   1 0.11428 0.61021-0.98139 0.71313-0.15428-0.34508
   4  -5  -8 1326.36  522.82   1 0.06886 0.64377-0.98662 0.70541-0.14777-0.29654
   4  -5  -7 2741.46  668.98   1 0.03218 0.67324-0.98927 0.69719-0.14247-0.24630
   4  -5  -6  537.54  292.20   1-0.00105 0.69926-0.99050 0.68754-0.13750-0.19572
   4  -5  -5  193.69  260.10   1-0.03078 0.72178-0.99064 0.67681-0.13293-0.14476
   4  -5  -4   67.22  258.80   1-0.05690 0.74069-0.99003 0.66532-0.12881-0.09334
   4  -5  -3  497.26  422.00   1-0.07933 0.75590-0.98895 0.65336-0.12519-0.04142
   4  -5  -2   12.89  215.82   1-0.09792 0.76729-0.98766 0.64120-0.12214 0.01106
   4  -5  -1  409.12  244.89   1-0.11255 0.77469-0.98640 0.62906-0.11970 0.06416
   4  -5   0 2902.27  557.95   1-0.12302 0.77795-0.98537 0.61715-0.11794 0.11794
   4  -5   1  404.03  269.10   1-0.12912 0.77684-0.98471 0.60561-0.11690 0.17244
   4  -5   2  349.43  340.72   1-0.13060 0.77111-0.98454 0.59457-0.11665 0.22773
   4  -5   3 2065.43  474.53   1-0.12714 0.76044-0.98493 0.58407-0.11724 0.28386
   4  -5   4  728.90  358.04   1-0.11834 0.74443-0.98584 0.57412-0.11873 0.34088
   4  -5   5  386.62  291.75   1-0.10371 0.72258-0.98719 0.56459-0.12118 0.39887
   4  -5   6   -7.30  118.73   1-0.08260 0.69426-0.98875 0.55527-0.12466 0.45789
   4  -5   7  140.84  134.82   1-0.05417 0.65862-0.99013 0.54577-0.12924 0.51802
   4  -4 -10   77.10  180.41   1 0.21810 0.49507-0.96146 0.77766-0.16736-0.38748
   4  -4  -9  -43.71  205.58   1 0.17370 0.53205-0.97138 0.77658-0.16196-0.33739
   4  -4  -8 4535.61  707.27   1 0.13253 0.56581-0.97871 0.77290-0.15669-0.28718
   4  -4  -710693.35 1021.72   1 0.09467 0.59626-0.98389 0.76708-0.15163-0.23676
   4  -4  -6  -34.17  210.44   1 0.05543 0.62422-0.98775 0.75843-0.14585-0.18738
   4  -4  -5  458.40  343.77   1 0.02459 0.64785-0.98965 0.74946-0.14135-0.13634
   4  -4  -4   27.15  248.26   1-0.00259 0.66782-0.99052 0.73946-0.13727-0.08488
   4  -4  -3  638.74  418.35   1-0.02597 0.68399-0.99068 0.72873-0.13368-0.03293
   4  -4  -2   15.84  239.89   1-0.04540 0.69621-0.99038 0.71756-0.13063 0.01955
   4  -4  -1 2311.81  464.67   1-0.06068 0.70428-0.98988 0.70619-0.12820 0.07266
   4  -4   0 3891.51  650.21   1-0.07161 0.70799-0.98938 0.69480-0.12644 0.12644
   4  -4   1 1217.84  407.79   1-0.07791 0.70707-0.98903 0.68358-0.12542 0.18096
   4  -4   2 3336.25  592.67   1-0.07928 0.70124-0.98895 0.67262-0.12520 0.23628
   4  -4   3  523.69  353.22   1-0.07537 0.69011-0.98918 0.66197-0.12583 0.29245
   4  -4   4   -7.22  169.20   1-0.06570 0.67323-0.98967 0.65158-0.12740 0.34955
   4  -4   5 2766.47  510.49   1-0.04971 0.65002-0.99027 0.64131-0.12995 0.40765
   4  -4   6  473.15  294.23   1-0.02667 0.61977-0.99067 0.63084-0.13357 0.46681
   4  -4   7 2066.94  389.58   1 0.00435 0.58153-0.99037 0.61966-0.13832 0.52710
  -4   4 -10  118.48  316.31   1-0.21514-0.35253-0.48037 0.88910-0.85026 0.29192
   4  -3 -10  138.56  175.91   1 0.28802 0.40641-0.94144 0.83110-0.17525-0.37959
   4  -3  -9  584.88  315.64   1 0.24327 0.44375-0.95489 0.83354-0.17029-0.32907
   4  -3  -8  360.37  237.00   1 0.20161 0.47799-0.96539 0.83304-0.16539-0.27848
   4  -3  -7  706.47  436.82   1 0.16317 0.50901-0.97343 0.83007-0.16064-0.22775
   4  -3  -6 1113.27  335.73   1 0.12808 0.53670-0.97939 0.82504-0.15611-0.17679
   4  -3  -5  474.00  336.96   1 0.09648 0.56088-0.98367 0.81831-0.15188-0.12554
   4  -3  -4  531.06  327.78   1 0.06448 0.58218-0.98700 0.80958-0.14715-0.07500
   4  -3  -3 1801.07  456.12   1 0.04055 0.59890-0.98878 0.80048-0.14370-0.02291
   4  -3  -2 3270.21  542.10   1 0.02070 0.61155-0.98982 0.79064-0.14077 0.02969
   4  -3  -1  909.48  333.27   1 0.00515 0.61988-0.99035 0.78030-0.13844 0.08290
   4  -3   0 1286.80  392.87   1-0.00581 0.62363-0.99058 0.76965-0.13678 0.13678
   4  -3   1  991.05  341.94   1-0.01189 0.62250-0.99065 0.75884-0.13585 0.19139
   4  -3   2  692.92  296.11   1-0.01272 0.61612-0.99066 0.74797-0.13572 0.24680
   4  -3   3  -44.88  163.37   1-0.00787 0.60406-0.99061 0.73705-0.13646 0.30308
   4  -3   4  290.43  249.06   1 0.00318 0.58579-0.99040 0.72596-0.13815 0.36030
   4  -3   5 2251.01  367.83   1 0.02110 0.56065-0.98980 0.71449-0.14083 0.41853
   4  -3   6 5113.70  578.58   1 0.04672 0.52782-0.98838 0.70219-0.14459 0.47783
  -4   3  -6 4147.63  496.10   1-0.21590-0.36327-0.49022 0.78007-0.84443 0.50942
   4  -3   7  406.76  232.22   1 0.08153 0.48686-0.98534 0.68794-0.14983 0.53822
  -4   3  -7  181.05  228.34   1-0.21877-0.35292-0.53121 0.83219-0.81850 0.42766
   4  -3   8  463.66  255.77   1 0.12549 0.43549-0.97978 0.67138-0.15577 0.59965
  -4   3  -8  521.03  270.24   1-0.22040-0.34381-0.55786 0.86997-0.80013 0.35345
  -4   3  -9  298.58  287.36   1-0.22497-0.33366-0.57642 0.89917-0.78557 0.28309
  -4   3 -10  211.73  230.98   1-0.22541-0.32588-0.58546 0.91935-0.77872 0.22042
  -4   3 -11  607.26  374.15   1-0.22558-0.31839-0.58902 0.93403-0.77599 0.16185
   4  -2 -11  172.46  230.07   1 0.41351 0.26960-0.89100 0.86512-0.18739-0.42293
   4  -2 -10   35.42  161.76   1 0.36646 0.30924-0.91222 0.87534-0.18316-0.37168
   4  -2  -9  240.43  261.72   1 0.32218 0.34610-0.92963 0.88174-0.17883-0.32053
   4  -2  -8   17.58  194.52   1 0.28083 0.38003-0.94376 0.88487-0.17448-0.26939
   4  -2  -7 1728.43  439.53   1 0.24256 0.41089-0.95508 0.88519-0.17021-0.21818
   4  -2  -6 1241.70  403.06   1 0.20755 0.43849-0.96401 0.88311-0.16611-0.16680
   4  -2  -5  310.79  274.62   1 0.17598 0.46264-0.97092 0.87902-0.16225-0.11517
   4  -2  -4  311.63  344.11   1 0.14807 0.48314-0.97615 0.87325-0.15871-0.06322
   4  -2  -3  432.15  342.46   1 0.12404 0.49975-0.98000 0.86609-0.15558-0.01087
   4  -2  -2 1473.05  399.67   1 0.10415 0.51222-0.98273 0.85782-0.15292 0.04195
   4  -2  -1  469.49  266.18   1 0.08584 0.52064-0.98492 0.84851-0.15016 0.09462
   4  -2   0 1681.97  418.31   1 0.07539 0.52387-0.98600 0.83871-0.14870 0.14870
   4  -2   113356.01  822.86   1 0.07010 0.52195-0.98650 0.82834-0.14795 0.20349
   4  -2   2  212.27  340.37   1 0.07037 0.51446-0.98648 0.81743-0.14799 0.25907
   4  -2   3 2236.35  487.47   1 0.07673 0.50089-0.98587 0.80595-0.14888 0.31550
   4  -2   4  182.49  246.07   1 0.09091 0.48098-0.98432 0.79339-0.15112 0.37306
   4  -2   5  -59.94  143.50   1 0.11090 0.45358-0.98185 0.77992-0.15383 0.43125
  -4   2  -5  109.88  156.61   1-0.22591-0.34413-0.59604 0.80008-0.77051 0.49136
   4  -2   6  417.54  226.12   1 0.13917 0.41790-0.97765 0.76471-0.15756 0.49047
  -4   2  -6   69.73  217.47   1-0.22746-0.33524-0.63716 0.85233-0.73639 0.40141
   4  -2   7 3119.47  423.96   1 0.17690 0.37275-0.97074 0.74680-0.16236 0.55076
  -4   2  -7 1654.14  324.16   1-0.22810-0.32728-0.66147 0.88778-0.71443 0.32361
   4  -2   8 5413.28  508.76   1 0.22568 0.31656-0.95955 0.72461-0.16825 0.61214
  -4   2  -8 3744.99  478.99   1-0.22835-0.31970-0.67519 0.91262-0.70140 0.25475
  -4   2  -9  -22.70  183.98   1-0.22845-0.31227-0.68170 0.93026-0.69504 0.19257
  -4   2 -10 1437.72  401.86   1-0.22846-0.30493-0.68299 0.94268-0.69377 0.13546
  -4   2 -11  158.49  242.16   1-0.22843-0.29763-0.68030 0.95112-0.69642 0.08228
  -4   2 -12  846.78  347.91   1-0.22834-0.29039-0.67440 0.95636-0.70216 0.03219
   4  -1 -11  239.79  277.46   1 0.49929 0.16550-0.84532 0.89150-0.19010-0.42169
   4  -1 -10  -18.92  160.62   1 0.45368 0.20366-0.87137 0.90667-0.18677-0.36940
   4  -1  -9  712.29  319.65   1 0.40865 0.24090-0.89333 0.91890-0.18697-0.31238
   4  -1  -8  445.02  295.62   1 0.36857 0.27356-0.91133 0.92590-0.18336-0.26051
   4  -1  -7  895.48  284.51   1 0.33140 0.30331-0.92620 0.92976-0.17976-0.20863
   4  -1  -6  939.32  351.33   1 0.29736 0.32993-0.93835 0.93091-0.17625-0.15665
   4  -1  -5  409.01  351.86   1 0.26669 0.35319-0.94813 0.92969-0.17293-0.10449
   4  -1  -4 4082.16  592.39   1 0.23964 0.37283-0.95588 0.92643-0.16987-0.05206
   4  -1  -3   27.33  232.67   1 0.21648 0.38857-0.96186 0.92141-0.16717 0.00072
   4  -1  -2  186.24  228.97   1 0.19753 0.40011-0.96632 0.91487-0.16490 0.05393
   4  -1  -1 2316.03  442.67   1 0.18311 0.40712-0.96946 0.90700-0.16313 0.10765
   4  -1   0  210.18  223.68   1 0.17360 0.40921-0.97140 0.89794-0.16195 0.16195
   4  -1   1 1696.38  406.67   1 0.16943 0.40597-0.97223 0.88776-0.16143 0.21691
   4  -1   2 7083.29  718.43   1 0.17108 0.39690-0.97190 0.87644-0.16163 0.27260
   4  -1   3  479.31  278.63   1 0.17912 0.38145-0.97028 0.86382-0.16264 0.32909
   4  -1   4 9359.17  643.23   1 0.19421 0.35895-0.96706 0.84959-0.16449 0.38643
  -4   1  -4 7244.83  408.24   1-0.22860-0.33086-0.72073 0.83944-0.65443 0.43111
   4  -1   5 1625.19  328.50   1 0.21713 0.32861-0.96170 0.83323-0.16725 0.44467
  -4   1  -5  730.88  216.42   1-0.22811-0.32402-0.75438 0.88423-0.61552 0.33637
   4  -1   6   97.74  143.25   1 0.24888 0.28945-0.95332 0.81385-0.17093 0.50384
  -4   1  -6   95.51  146.51   1-0.22761-0.31719-0.77117 0.91215-0.59454 0.25956
   4  -1   7  711.59  240.78   1 0.29068 0.24024-0.94057 0.79009-0.17554 0.56393
  -4   1  -7  625.65  253.32   1-0.22734-0.31013-0.77854 0.93065-0.58496 0.19414
   4  -1   8 1962.70  328.43   1 0.34414 0.17936-0.92130 0.75981-0.18102 0.62490
  -4   1  -8 1104.20  322.83   1-0.22728-0.30286-0.77997 0.94321-0.58307 0.13643
  -4   1  -9  236.18  255.61   1-0.22739-0.29543-0.77728 0.95165-0.58662 0.08414
  -4   1 -10 1029.56  302.20   1-0.22760-0.28788-0.77149 0.95699-0.59413 0.03582
  -4   1 -11 1605.80  460.26   1-0.22787-0.28028-0.76323 0.95986-0.60459-0.00953
  -4   1 -12  172.66  256.95   1-0.22814-0.27268-0.75290 0.96066-0.61732-0.05264
  -4   1 -13  269.30  382.07   1-0.22839-0.26511-0.74073 0.95962-0.63178-0.09401
   4   0 -11   70.38  196.37   1 0.58491 0.06151-0.78727 0.90696-0.19511-0.41669
   4   0 -10  851.64  342.30   1 0.54222 0.09676-0.81780 0.92661-0.19283-0.36335
   4   0  -9  348.94  228.27   1 0.50176 0.12977-0.84381 0.94174-0.19027-0.31029
   4   0  -8  557.65  325.16   1 0.46378 0.16032-0.86586 0.95291-0.18755-0.25739
   4   0  -7 2617.07  530.27   1 0.42851 0.18814-0.88443 0.96060-0.18476-0.20456
   4   0  -6  251.28  197.62   1 0.39490 0.21366-0.89974 0.96576-0.18577-0.14713
   4   0  -5 1050.15  442.37   1 0.36609 0.23506-0.91238 0.96739-0.18313-0.09429
   4   0  -4   43.62  211.10   1 0.34082 0.25291-0.92259 0.96660-0.18069-0.04124
   4   0  -3 8943.83  728.07   1 0.31942 0.26690-0.93063 0.96364-0.17854 0.01209
   4   0  -2 2066.11  435.82   1 0.30223 0.27668-0.93670 0.95870-0.17676 0.06579
   4   0  -1 -139.47  214.08   1 0.28963 0.28186-0.94092 0.95192-0.17543 0.11994
   4   0   0 9153.65  673.26   1 0.28204 0.28204-0.94337 0.94337-0.17461 0.17461
   4   0   1 6382.81  653.90   1 0.27993 0.27673-0.94404 0.93304-0.17438 0.22986
   4   0   2  171.95  214.67   1 0.28382 0.26543-0.94280 0.92080-0.17480 0.28577
   4   0   3 5513.47  597.51   1 0.29431 0.24752-0.93937 0.90636-0.17593 0.34238
  -4   0  -3 3822.68  511.75   1-0.22468-0.32293-0.87753 0.91110-0.42361 0.25611
   4   0   4 4262.77  486.15   1 0.31208 0.22234-0.93326 0.88925-0.17779 0.39973
  -4   0  -4 1989.59  559.37   1-0.22338-0.31691-0.88576 0.93053-0.40683 0.18350
   4   0   5 8492.26  621.49   1 0.33794 0.18907-0.92371 0.86869-0.18041 0.45783
  -4   0  -5 4954.43  811.59   1-0.22327-0.30971-0.88645 0.94241-0.40539 0.12622
   4   0   6 1551.50  320.27   1 0.37281 0.14677-0.90952 0.84350-0.18376 0.51667
  -4   0  -6 1138.98  276.70   1-0.22382-0.30184-0.88305 0.95020-0.41244 0.07744
   4   0   7   40.42  114.53   1 0.41715 0.09530-0.89005 0.81389-0.18381 0.57314
  -4   0  -7  243.67  238.65   1-0.22476-0.29359-0.87698 0.95532-0.42470 0.03386
   4   0   8   36.75  109.96   1 0.47362 0.03139-0.86036 0.77332-0.18828 0.63323
  -4   0  -8   30.23   63.73   1-0.22591-0.28513-0.86893 0.95846-0.44036-0.00631
   4   0   9 1173.92  236.51   1 0.54350-0.04592-0.81694 0.71901-0.19290 0.69347
  -4   0  -9 1275.30  387.29   1-0.22715-0.27658-0.85925 0.95997-0.45835-0.04415
  -4   0 -10  -60.43  158.94   1-0.22841-0.26800-0.84814 0.96006-0.47799-0.08034
  -4   0 -11   97.31  120.80   1-0.22963-0.25947-0.83572 0.95883-0.49882-0.11535
  -4   0 -12  209.87  245.69   1-0.23077-0.25101-0.82207 0.95637-0.52051-0.14949
  -4   0 -13  324.59  287.37   1-0.23181-0.24266-0.80720 0.95269-0.54284-0.18299
   4   1 -10  964.90  321.80   1 0.63033-0.00970-0.75091 0.93321-0.19700-0.35917
   4   1  -9  235.57  255.94   1 0.59352 0.01965-0.78070 0.95213-0.19551-0.30505
   4   1  -8 2352.49  436.50   1 0.55891 0.04682-0.80626 0.96680-0.19377-0.25117
   4   1  -7  390.06  329.47   1 0.52680 0.07149-0.82804 0.97770-0.19190-0.19742
   4   1  -6   38.50  175.59   1 0.49747 0.09337-0.84641 0.98520-0.18998-0.14372
   4   1  -5   69.55  188.48   1 0.47125 0.11215-0.86170 0.98960-0.18811-0.08998
   4   1  -4  558.34  285.62   1 0.44845 0.12750-0.87415 0.99118-0.18637-0.03610
   4   1  -3  554.06  306.75   1 0.42944 0.13908-0.88397 0.99011-0.18484 0.01798
   4   1  -2 2197.02  398.28   1 0.41389 0.14627-0.89081 0.98628-0.18743 0.07646
   4   1  -1 9458.56  678.16   1 0.40374 0.14901-0.89564 0.98011-0.18655 0.13106
   4   1   0   33.75  213.88   1 0.39858 0.14675-0.89805 0.97150-0.18609 0.18609
   4   1   1 3325.73  526.38   1 0.39890 0.13903-0.89790 0.96036-0.18612 0.24161
   4   1   210888.68  657.57   1 0.40520 0.12531-0.89496 0.94641-0.18668 0.29765
  -4  -1  -2 6742.22  820.21   1-0.17850-0.35688-0.98326 0.93109-0.03645-0.07544
   4   1   3  371.52  155.36   1 0.41808 0.10502-0.88878 0.92923-0.18778 0.35424
  -4  -1  -3   56.05   86.17   1-0.18720-0.34080-0.97807 0.93700-0.09124-0.07659
   4   1   4  918.83  310.87   1 0.43799 0.07842-0.87962 0.90960-0.18553 0.40801
  -4  -1  -4  314.74  126.63   1-0.19417-0.32647-0.97124 0.94128-0.13774-0.08603
   4   1   5 2228.47  401.44   1 0.46582 0.04315-0.86473 0.88383-0.18770 0.46579
  -4  -1  -5  860.63  394.83   1-0.20007-0.31321-0.96322 0.94435-0.17934-0.10039
   4   1   6 5968.70  551.79   1 0.50230-0.00076-0.84348 0.85170-0.19031 0.52402
  -4  -1  -6 4082.19  680.46   1-0.20523-0.30069-0.95417 0.94640-0.21778-0.11789
   4   1   743767.00 1091.51   1 0.54828-0.05418-0.81367 0.81101-0.19318 0.58251
  -4  -1  -734068.93 2658.37   1-0.20907-0.29087-0.94336 0.94743-0.25757-0.13326
  -4  -1  -8  206.84   96.72   1-0.21283-0.27979-0.93231 0.94757-0.29237-0.15429
  -4  -1  -9  846.55  302.98   1-0.21622-0.26909-0.92033 0.94678-0.32592-0.17657
  -4  -1 -10 1092.31  404.80   1-0.21928-0.25872-0.90741 0.94505-0.35849-0.19984
  -4  -1 -11  192.69  155.61   1-0.22204-0.24865-0.89352 0.94235-0.39027-0.22390
  -4  -1 -12  180.72  175.73   1-0.22451-0.23886-0.87865 0.93868-0.42137-0.24863
  -4  -1 -13  428.68  255.40   1-0.22671-0.22934-0.86278 0.93399-0.45189-0.27394
  -4  -1 -14  803.00  392.52   1-0.22865-0.22010-0.84586 0.92827-0.48190-0.29977
   4   2 -10   51.90  155.79   1 0.71477-0.11100-0.67063 0.92719-0.19837-0.35775
   4   2  -9  985.80  339.33   1 0.68154-0.08672-0.70437 0.94929-0.19839-0.30217
   4   2  -8 5751.37  629.48   1 0.65109-0.06372-0.73280 0.96684-0.19767-0.24727
   4   2  -7 1163.42  383.20   1 0.62288-0.04295-0.75717 0.98033-0.19673-0.19259
   4   2  -6 1080.05  343.14   1 0.59722-0.02473-0.77783 0.99011-0.19568-0.13802
   4   2  -5  309.78  268.77   1 0.57446-0.00942-0.79505 0.99646-0.19459-0.08349
   4   2  -4 2517.56  445.12   1 0.55494 0.00265-0.80905 0.99957-0.19355-0.02891
   4   2  -3 1616.80  399.23   1 0.53902 0.01113-0.81996 0.99960-0.19264 0.02578
   4   2  -2 4102.99  532.97   1 0.52709 0.01562-0.82785 0.99661-0.19191 0.08068
   4   2  -136393.99 1195.86   1 0.51953 0.01573-0.83272 0.99060-0.19144 0.13582
   4   2   0 5928.33 1104.99   1 0.51678 0.01104-0.83447 0.98147-0.19126 0.19126
   4   2   112616.98  760.23   1 0.51929 0.00109-0.83288 0.96900-0.19142 0.24704
   4   2   2 9852.49  632.73   1 0.52751-0.01456-0.82758 0.95282-0.19194 0.30318
  -4  -2  -2 6657.51  767.43   1-0.11575-0.40104-0.95047 0.82394 0.28845-0.40035
   4   2   310591.06  659.62   1 0.54192-0.03642-0.81800 0.93236-0.19281 0.35967
  -4  -2  -3 6623.63  687.66   1-0.13716-0.37227-0.97247 0.85704 0.18838-0.35622
   4   2   4 2807.11  393.61   1 0.56303-0.06496-0.80334 0.90682-0.19399 0.41647
  -4  -2  -4 1895.24  707.36   1-0.15379-0.34827-0.98264 0.87831 0.10373-0.32752
   4   2   5 5952.30  538.35   1 0.59130-0.10068-0.78241 0.87501-0.19541 0.47350
  -4  -2  -5 4200.63  665.20   1-0.16704-0.32765-0.98546 0.89222 0.03101-0.31075
   4   2   622265.10  845.40   1 0.62717-0.14400-0.75357 0.83529-0.19689 0.53060
  -4  -2  -615901.07 1218.61   1-0.17789-0.30944-0.98350 0.90137-0.03274-0.30293
   4   2   717684.23  758.10   1 0.67102-0.19528-0.71446 0.78529-0.19818 0.58750
  -4  -2  -713157.43 1460.91   1-0.18698-0.29299-0.97825 0.90721-0.08978-0.30184
   4   2   8 6314.46  589.87   1 0.72155-0.25380-0.66333 0.72234-0.19837 0.64327
  -4  -2  -8 3870.37 1181.30   1-0.19475-0.27785-0.97056 0.91062-0.14171-0.30586
  -4  -2  -9  709.00  185.64   1-0.78892 0.32328 0.57779-0.62491 0.20916-0.71061
   4   2   9 1424.70  267.60   1 0.78133-0.32115-0.59204 0.64008-0.19745 0.69796
  -4  -2  -9  382.82  176.88   1-0.20148-0.26375-0.96094 0.91211-0.18970-0.31382
  -4  -2 -10 2343.07  601.32   1-0.20675-0.25284-0.94923 0.91260-0.23706-0.32127
  -4  -2 -11 1232.26  442.13   1-0.21148-0.24079-0.93653 0.91109-0.27961-0.33455
  -4  -2 -12 2096.15  633.93   1-0.21564-0.22931-0.92252 0.90827-0.32007-0.34993
  -4  -2 -13 2871.06  700.77   1-0.21931-0.21834-0.90727 0.90422-0.35881-0.36702
  -4  -2 -14  -58.93  277.17   1-0.22252-0.20781-0.89083 0.89897-0.39610-0.38557
  -4  -3  10  319.04  330.15   1-0.78652 0.20041 0.58103-0.91585 0.20924 0.34791
   4   3 -10  357.57  291.31   1 0.78984-0.20428-0.58075 0.91072-0.19716-0.35896
  -4  -3   9   58.59  175.97   1-0.75948 0.18067 0.61574-0.93932 0.20986 0.29157
   4   3  -9   64.88  182.65   1 0.76235-0.18435-0.61613 0.93512-0.19794-0.30256
   4   3  -8  415.74  283.46   1 0.73643-0.16599-0.64678 0.95479-0.19831-0.24658
   4   3  -7 1659.71  531.33   1 0.71244-0.14956-0.67310 0.97014-0.19836-0.19091
   4   3  -6 2465.92  466.32   1 0.69043-0.13630-0.69561 0.98140-0.19854-0.13516
   4   3  -5 -102.51  176.32   1 0.67144-0.12476-0.71405 0.98896-0.19818-0.07990
   4   3  -4  282.92  239.27   1 0.65543-0.11618-0.72889 0.99292-0.19779-0.02467
   4   3  -3 2445.67  482.05   1 0.64273-0.11093-0.74021 0.99335-0.19742 0.03056
   4   3  -2 1766.97  420.56   1 0.63372-0.10937-0.74801 0.99028-0.19712 0.08588
   4   3  -1  401.28  247.39   1 0.62876-0.11185-0.75223 0.98362-0.19695 0.14133
   4   3   0  391.05  236.11   1 0.62822-0.11875-0.75269 0.97319-0.19693 0.19693
   4   3   1  413.56  345.20   1 0.63247-0.13044-0.74908 0.95871-0.19708 0.25270
   4   3   2 1235.35  351.85   1 0.64187-0.14729-0.74096 0.93970-0.19739 0.30863
   4   3   3 8019.86  588.78   1 0.65675-0.16961-0.72768 0.91555-0.19783 0.36468
   4   3   4  496.76  246.23   1 0.67740-0.19771-0.70837 0.88535-0.19831 0.42078
  -4  -3  -4   14.62   76.95   1-0.11377-0.36971-0.94799 0.76929 0.29726-0.52104
   4   3   5 3007.49  429.93   1 0.70288-0.23067-0.68309 0.84843-0.19832 0.47638
  -4  -3  -5 2016.45  794.46   1-0.13256-0.34355-0.96853 0.80093 0.21064-0.49037
   4   3   677046.25 1518.14   1 0.73544-0.27079-0.64791 0.80227-0.19831 0.53199
  -4  -3  -659543.14 1315.64   1-0.14831-0.32044-0.98003 0.82354 0.13239-0.46807
  -4  -3  -7 1685.49  313.19   1-0.77884 0.31696 0.59120-0.73495 0.20946-0.59947
   4   3   7 2839.27  435.04   1 0.77389-0.31680-0.60167 0.74505-0.19767 0.58695
  -4  -3  -7 2230.12  583.64   1-0.16161-0.29977-0.98493 0.83954 0.06147-0.45310
  -4  -3  -8 4151.70 1328.30   1-0.82289 0.36832 0.52890-0.66140 0.20762-0.65335
   4   3   8 7806.55  642.22   1 0.81771-0.36818-0.54127 0.67368-0.19587 0.64077
  -4  -3  -8 6288.57 1111.43   1-0.17296-0.28105-0.98492 0.85062-0.00323-0.44434
  -4  -3  -9 1891.51  590.36   1-0.87082 0.42356 0.44741-0.56868 0.20367-0.70511
  -4  -3  -9 3014.93  692.33   1-0.18275-0.26390-0.98115 0.85795-0.06276-0.44075
  -4  -3 -10   -5.41  184.14   1-0.19126-0.24802-0.97441 0.86231-0.11801-0.44146
  -4  -3 -11  134.23  215.66   1-0.19872-0.23320-0.96525 0.86425-0.16968-0.44573
  -4  -3 -12  198.27  220.51   1-0.20530-0.21925-0.95402 0.86412-0.21836-0.45300
  -4  -3 -13  232.61  350.62   1-0.21007-0.20916-0.94064 0.86331-0.26656-0.45927
  -4  -3 -14   97.89  202.34   1-0.21471-0.19721-0.92594 0.85980-0.31068-0.47099
  -4  -4  10  283.68  216.88   1-0.85094 0.28321 0.48334-0.89230 0.20561 0.35154
   4   4 -10  737.03  306.58   1 0.85382-0.28648-0.48334 0.88671-0.19327-0.36285
  -4  -4   9   50.60   79.89   1-0.82893 0.26851 0.51953-0.91725 0.20725 0.29418
   4   4  -9  370.30  242.13   1 0.83146-0.27167-0.52022 0.91261-0.19502-0.30549
  -4  -4   8  228.72  149.47   1-0.80815 0.25504 0.55086-0.93735 0.20840 0.23732
   4   4  -8  105.64  189.29   1 0.81030-0.25807-0.55216 0.93358-0.19627-0.24862
  -4  -4   7 6045.55  789.06   1-0.78897 0.24316 0.57773-0.95297 0.20916 0.18084
   4   4  -7 7953.65  836.86   1 0.79071-0.24604-0.57957 0.95002-0.19713-0.19215
  -4  -4   6  161.65  229.05   1-0.77173 0.23324 0.60039-0.96439 0.20964 0.12465
   4   4  -6  466.34  280.95   1 0.77306-0.23594-0.60273 0.96220-0.19769-0.13598
  -4  -4   5  436.18  245.66   1-0.75679 0.22560 0.61902-0.97179 0.20990 0.06867
   4   4  -5  529.01  353.51   1 0.75768-0.22812-0.62184 0.97033-0.19803-0.08002
   4   4  -4  417.42  315.03   1 0.74492-0.22292-0.63701 0.97453-0.19822-0.02422
   4   4  -3  425.80  340.69   1 0.73510-0.22065-0.64830 0.97484-0.19832 0.03148
   4   4  -213323.35  836.71   1 0.72853-0.22164-0.65565 0.97122-0.19835 0.08713
   4   4  -1 2083.79  472.28   1 0.72554-0.22620-0.65896 0.96356-0.19836 0.14275
   4   4   0 4169.56  535.01   1 0.72640-0.23463-0.65801 0.95162-0.19836 0.19836
   4   4   1  679.32  311.05   1 0.73141-0.24719-0.65245 0.93509-0.19834 0.25395
   4   4   2 1965.30  368.19   1 0.74078-0.26412-0.64181 0.91348-0.19827 0.30949
  -4  -4  -3   20.50  152.66   1-0.75715 0.28443 0.61859-0.88143 0.20990-0.37704
   4   4   3  108.35  201.72   1 0.75469-0.28558-0.62546 0.88615-0.19809 0.36492
  -4  -4  -4  556.93  300.57   1-0.77601 0.31060 0.59488-0.84649 0.20953-0.43240
   4   4   4  402.53  221.97   1 0.77321-0.31166-0.60254 0.85225-0.19769 0.42014
  -4  -4  -521991.33  864.04   1-0.79938 0.34127 0.56337-0.80374 0.20878-0.48736
   4   4   528047.46  952.06   1 0.79630-0.34231-0.57195 0.81069-0.19691 0.47497
  -4  -4  -522989.54  912.32   1-0.10117-0.35636-0.93061 0.68865 0.35173-0.63147
  -4  -4  -6 3089.79  718.27   1-0.82698 0.37618 0.52258-0.75171 0.20738-0.54167
   4   4   6 5116.21  583.65   1 0.82370-0.37726-0.53224 0.76001-0.19552 0.52919
  -4  -4  -6 3086.87 1154.12   1-0.12004-0.33012-0.95559 0.72474 0.26910-0.60478
  -4  -4  -7  216.38  166.15   1-0.85821 0.41472 0.47059-0.68848 0.20496-0.59497
   4   4   7  286.51  239.73   1 0.85485-0.41598-0.48155 0.69834-0.19318 0.58246
  -4  -4  -7   80.79  114.86   1-0.13645-0.30635-0.97189 0.75213 0.19184-0.58347
  -4  -4  -8 9103.16 2003.48   1-0.89150 0.45672 0.40479-0.60941 0.20336-0.64808
  -4  -4  -810308.13 1012.72   1-0.15072-0.28471-0.98128 0.77261 0.11987-0.56744
  -4  -4  -9 2896.41  659.81   1-0.92611 0.49864 0.32180-0.51507 0.19685-0.69716
  -4  -4  -9 3042.24 1222.25   1-0.16318-0.26489-0.98518 0.78762 0.05278-0.55631
  -4  -4 -10 3788.60 1104.44   1-0.17409-0.24661-0.98467 0.79821-0.00989-0.54957
  -4  -4 -11  707.63  191.58   1-0.18369-0.22965-0.98057 0.80521-0.06871-0.54670
  -4  -4 -12   91.65  183.52   1-0.19217-0.21380-0.97347 0.80921-0.12413-0.54723
  -4  -4 -13  146.64  169.84   1-0.19969-0.19892-0.96381 0.81064-0.17660-0.55070
  -4  -4 -14  157.08  279.01   1-0.20636-0.18489-0.95190 0.80983-0.22649-0.55676
  -4  -5  10  685.71  281.52   1-0.90123 0.35279 0.38346-0.86612 0.20182 0.35407
  -4  -5   9  344.00  236.95   1-0.88564 0.34361 0.41818-0.89005 0.20187 0.29956
  -4  -5   8  208.80  140.68   1-0.86938 0.33465 0.45013-0.91076 0.20383 0.24189
  -4  -5   7 1556.96  376.00   1-0.85433 0.32691 0.47744-0.92683 0.20532 0.18469
   4   5  -7 1163.70  398.52   1 0.85591-0.32945-0.47971 0.92356-0.19308-0.19620
  -4  -5   6 3113.82  746.42   1-0.84085 0.32074 0.50034-0.93849 0.20643 0.12786
   4   5  -6 3845.20  580.87   1 0.84209-0.32318-0.50313 0.93600-0.19425-0.13942
  -4  -5   5 4198.67  845.06   1-0.82926 0.31646 0.51901-0.94591 0.20723 0.07134
   4   5  -5 4181.26  581.66   1 0.83014-0.31879-0.52228 0.94418-0.19511-0.08295
  -4  -5   4 8419.09 1578.18   1-0.81986 0.31437 0.53351-0.94918 0.20780 0.01506
   4   5  -411805.19  991.21   1 0.82039-0.31660-0.53725 0.94818-0.19572-0.02672
  -4  -5   311184.41 1702.14   1-0.81294 0.31476 0.54385-0.94828 0.20817-0.04102
   4   5  -315217.87 1170.30   1 0.81311-0.31688-0.54806 0.94801-0.19612 0.02928
  -4  -5   214114.30 2208.39   1-0.80877 0.31789 0.54997-0.94315 0.20837-0.09694
   4   5  -216582.98  963.67   1 0.80858-0.31990-0.55464 0.94361-0.19635 0.08513
  -4  -5   1 4703.61  573.34   1-0.80757 0.32400 0.55170-0.93364 0.20843-0.15271
   4   5  -1 6113.01  730.35   1 0.80705-0.32592-0.55685 0.93484-0.19643 0.14082
  -4  -5   013706.84 2066.22   1-0.80957 0.33331 0.54880-0.91950 0.20833-0.20833
   4   5   019075.23 1001.27   1 0.80871-0.33515-0.55445 0.92147-0.19635 0.19635
  -4  -5  -1  -48.18  199.38   1-0.81492 0.34596 0.54093-0.90040 0.20807-0.26378
   4   5   1  460.86  325.55   1 0.81376-0.34775-0.54712 0.90316-0.19609 0.25170
  -4  -5  -2  531.49  197.23   1-0.82371 0.36207 0.52763-0.87586 0.20758-0.31901
   4   5   2  603.86  332.78   1 0.82228-0.36383-0.53440 0.87947-0.19560 0.30683
  -4  -5  -3 6453.88 1075.76   1-0.83598 0.38164 0.50830-0.84529 0.20678-0.37393
   4   5   3 8721.72  669.48   1 0.83430-0.38341-0.51572 0.84981-0.19482 0.36166
  -4  -5  -4 1079.39  342.56   1-0.85160 0.40457 0.48219-0.80794 0.20556-0.42842
   4   5   4 1293.21  434.43   1 0.84975-0.40641-0.49033 0.81345-0.19362 0.41607
  -4  -5  -5 4216.66  898.97   1-0.87033 0.43060 0.44835-0.76285 0.20372-0.48230
  -4  -5  -6 3644.92  949.96   1-0.89166 0.45925 0.40560-0.70887 0.20104-0.53533
  -4  -5  -7 2663.75  587.01   1-0.91401 0.48992 0.35323-0.64304 0.19948-0.58861
  -4  -5  -7 2797.03  901.55   1-0.11347-0.31074-0.94761 0.65349 0.29857-0.69020
  -4  -5  -8 1158.07  324.20   1-0.93784 0.52106 0.28790-0.56636 0.19380-0.63853
  -4  -5  -8 1117.91  269.06   1-0.12972-0.28713-0.96587 0.68284 0.22419-0.67177
  -4  -5  -9 2709.56  675.26   1-0.96029 0.55083 0.20810-0.47522 0.18579-0.68610
  -4  -5  -9 2632.66 1013.20   1-0.14417-0.26531-0.97757 0.70564 0.15349-0.65701
  -4  -5 -10   20.76  123.92   1-0.97839 0.57624 0.11084-0.36661 0.17453-0.73043
  -4  -5 -10  103.00  258.25   1-0.15702-0.24509-0.98380 0.72297 0.08646-0.64593
  -4  -5 -11  488.61  240.20   1-0.16846-0.22629-0.98544 0.73571 0.02294-0.63836
  -4  -5 -12 2539.39  624.69   1-0.17864-0.20875-0.98320 0.74457-0.03731-0.63405
  -4  -5 -13  -16.98  268.04   1-0.18772-0.19230-0.97765 0.75012-0.09459-0.63271
  -4  -5 -14  848.77  348.01   1-0.19582-0.17683-0.96922 0.75279-0.14919-0.63406
  -4  -6   9  375.29  298.66   1-0.92772 0.40459 0.31738-0.86254 0.19647 0.30384
  -4  -6   8 1253.29  427.37   1-0.91560 0.39979 0.34928-0.88310 0.19916 0.24555
  -4  -6   7  233.08  195.45   1-0.90430 0.39580 0.37645-0.89891 0.20130 0.18783
  -4  -6   6 2696.08  675.58   1-0.89415 0.39297 0.39910-0.91022 0.20296 0.13057
  -4  -6   5  229.18  254.81   1-0.88696 0.39254 0.41546-0.91651 0.20169 0.07688
  -4  -6   4 1455.65  446.08   1-0.88002 0.39291 0.42954-0.91935 0.20259 0.02026
  -4  -6   317206.62 2453.36   1-0.87506 0.39525 0.43929-0.91786 0.20319-0.03604
  -4  -6   2 1201.67  332.62   1-0.87228 0.39978 0.44464-0.91197 0.20351-0.09207
  -4  -6   1 9592.21 1746.01   1-0.87186 0.40667 0.44544-0.90152 0.20355-0.14784
  -4  -6   0  395.35  229.14   1-0.87393 0.41606 0.44146-0.88631 0.20332-0.20332
  -4  -6  -1 5002.72  803.16   1-0.87858 0.42801 0.43241-0.86601 0.20277-0.25848
  -4  -6  -2 5726.99  933.70   1-0.88579 0.44253 0.41788-0.84024 0.20185-0.31328
  -4  -6  -3 1834.66  420.12   1-0.89426 0.45891 0.39887-0.80790 0.20294-0.36972
  -4  -6  -4   68.16  109.78   1-0.90631 0.47827 0.37177-0.76945 0.20094-0.42330
  -4  -6  -5 1628.01  343.74   1-0.92027 0.49955 0.33736-0.72369 0.19818-0.47613
  -4  -6  -651382.33 1457.48   1-0.93557 0.52217 0.29476-0.66975 0.19444-0.52798
  -4  -6  -7 2968.62  652.80   1-0.95136 0.54527 0.24293-0.60657 0.18943-0.57856
  -4  -6  -8  461.63  174.46   1-0.96641 0.56764 0.18063-0.53294 0.18277-0.62750
  -4  -6  -8  478.90  244.75   1-0.11104-0.28722-0.94446 0.58707 0.30928-0.75686
  -4  -6  -9 1630.39  357.04   1-0.97898 0.58752 0.10642-0.44737 0.17398-0.67429
  -4  -6  -9 1828.83  376.79   1-0.12677-0.26413-0.96293 0.61664 0.23808-0.74160
  -4  -6 -10   65.96  109.76   1-0.98660 0.60248 0.01783-0.34785 0.16217-0.71833
  -4  -6 -10  276.12  170.03   1-0.14100-0.24253-0.97540 0.64021 0.16943-0.72890
  -4  -6 -11  330.42  213.29   1-0.15383-0.22233-0.98265 0.65856 0.10350-0.71892
  -4  -6 -12 2648.94  468.74   1-0.16540-0.20340-0.98540 0.67240 0.04031-0.71168
  -4  -6 -13  217.76  205.19   1-0.17582-0.18562-0.98421 0.68232-0.02021-0.70709
  -4  -6 -14  122.51  125.46   1-0.18519-0.16888-0.97958 0.68878-0.07824-0.70501
  -4  -7   8   22.41  141.56   1-0.95025 0.45244 0.24693-0.85458 0.18983 0.25488
  -4  -7   7  265.85  158.04   1-0.94231 0.45182 0.27385-0.87016 0.19248 0.19665
  -4  -7   6  125.38   66.95   1-0.93509 0.45192 0.29619-0.88116 0.19457 0.13896
  -4  -7   5  225.57  175.51   1-0.92889 0.45303 0.31411-0.88773 0.19618 0.08176
  -4  -7   4 1587.98  404.11   1-0.92395 0.45540 0.32765-0.88993 0.19736 0.02500
  -4  -7   3  601.63  282.61   1-0.92048 0.45925 0.33681-0.88775 0.19813-0.03136
  -4  -7   212447.22 1832.47   1-0.91866 0.46474 0.34153-0.88112 0.19852-0.08734
  -4  -7   131540.88 3389.08   1-0.91860 0.47199 0.34168-0.86993 0.19854-0.14295
  -4  -7   0   53.57  112.07   1-0.92038 0.48109 0.33707-0.85397 0.19815-0.19815
  -4  -7  -1  577.35  201.61   1-0.92402 0.49205 0.32745-0.83301 0.19734-0.25293
  -4  -7  -210171.29 1619.14   1-0.92946 0.50480 0.31249-0.80671 0.19604-0.30722
  -4  -7  -3   26.18  131.77   1-0.93655 0.51921 0.29182-0.77468 0.19417-0.36094
  -4  -7  -4   30.64  143.42   1-0.94503 0.53500 0.26495-0.73647 0.19162-0.41398
  -4  -7  -5   12.79  160.85   1-0.95448 0.55176 0.23134-0.69152 0.18824-0.46619
  -4  -7  -6  740.03  214.48   1-0.96433 0.56893 0.19038-0.63921 0.18386-0.51740
  -4  -7  -7 2422.88  497.52   1-0.97378 0.58569 0.14134-0.57883 0.17823-0.56736
  -4  -7  -8  370.99  185.33   1-0.98172 0.60094 0.08342-0.50956 0.17106-0.61579
  -4  -7  -9 2097.80  540.20   1-0.98671 0.61333 0.01508-0.43027 0.16178-0.66233
  -4  -7  -9 1710.55  576.35   1-0.11157-0.26074-0.94515 0.52450 0.30697-0.81049
  -4  -7 -10  241.41  155.57   1-0.98660 0.62051-0.06341-0.34045 0.15026-0.70643
  -4  -7 -10  163.57  212.82   1-0.12663-0.23832-0.96279 0.55323 0.23873-0.79820
  -4  -7 -11  291.13  172.92   1-0.14043-0.21715-0.97498 0.57653 0.17226-0.78768
  -4  -7 -12  346.68  266.27   1-0.15302-0.19720-0.98232 0.59496 0.10781-0.77918
  -4  -7 -13  289.42  181.02   1-0.16448-0.17837-0.98532 0.60907 0.04548-0.77279
  -4  -8   7  426.44  289.76   1-0.96788 0.49539 0.17344-0.84360 0.18196 0.20716
  -4  -8   6  289.99  262.54   1-0.96322 0.49805 0.19541-0.85422 0.18441 0.14912
  -4  -8   5  280.22  238.61   1-0.95913 0.50127 0.21295-0.86042 0.18631 0.09163
  -4  -8   4  137.94  102.64   1-0.95584 0.50529 0.22612-0.86224 0.18770 0.03465
  -4  -8   3 1094.10  322.84   1-0.95353 0.51030 0.23493-0.85971 0.18861-0.02184
  -4  -8   2 1118.03  248.49   1-0.95234 0.51643 0.23934-0.85277 0.18906-0.07788
  -4  -8   1 2487.47  457.99   1-0.95237 0.52377 0.23924-0.84133 0.18905-0.13346
  -4  -8   0  243.79  293.01   1-0.95365 0.53236 0.23450-0.82524 0.18857-0.18857
  -4  -8  -1 3303.61  596.63   1-0.95615 0.54218 0.22490-0.80430 0.18757-0.24316
  -4  -8  -2 5428.19  776.28   1-0.95979 0.55313 0.21021-0.77827 0.18602-0.29720
  -4  -8  -310130.20 1382.72   1-0.96439 0.56504 0.19014-0.74685 0.18383-0.35060
  -4  -8  -4  141.42  121.44   1-0.96966 0.57764 0.16434-0.70971 0.18092-0.40328
  -4  -8  -5 6115.07  994.91   1-0.97523 0.59051 0.13242-0.66644 0.17716-0.45512
  -4  -8  -6 1235.36  371.52   1-0.98053 0.60313 0.09395-0.61663 0.17241-0.50595
  -4  -8  -7  731.00  290.92   1-0.98491 0.61497 0.04786-0.55954 0.16630-0.55561
  -4  -8  -8  797.16  290.53   1-0.98727 0.62463-0.00518-0.49518 0.15890-0.60384
  -4  -8  -9  136.99  155.93   1-0.98648 0.63113-0.06632-0.42272 0.14982-0.65036
  -4  -8  -9  109.23  344.18   1-0.09883-0.25489-0.92710 0.43208 0.36153-0.86505
  -4  -8 -10  188.83  167.98   1-0.98092 0.63286-0.13617-0.34156 0.13868-0.69485
  -4  -8 -10  -45.51  277.35   1-0.11427-0.23209-0.94862 0.46471 0.29503-0.85450
  -4  -8 -11  345.51  305.74   1-0.12862-0.21037-0.96479 0.49198 0.22938-0.84480
  -4  -8 -12 2527.32 1305.76   1-0.14189-0.18974-0.97603 0.51431 0.16497-0.83634
  -4  -8 -13  470.98  245.15   1-0.15411-0.17016-0.98276 0.53214 0.10206-0.82937
  -4  -9   6  284.62  215.64   1-0.98002 0.53285 0.09817-0.83082 0.17294 0.16059
  -4  -9   5  238.17  160.84   1-0.97776 0.53791 0.11539-0.83670 0.17509 0.10285
  -4  -9   4   26.23  139.59   1-0.97587 0.54333 0.12831-0.83827 0.17667 0.04568
  -4  -9   3 3365.74  788.44   1-0.97450 0.54928 0.13694-0.83556 0.17771-0.01094
  -4  -9   2  297.41  143.12   1-0.97379 0.55588 0.14127-0.82855 0.17822-0.06704
  -4  -9   1  293.06  246.83   1-0.97380 0.56320 0.14123-0.81716 0.17822-0.12263
  -4  -9   0  293.95  192.11   1-0.97454 0.57126 0.13671-0.80130 0.17768-0.17768
  -4  -9  -1 1840.48  430.92   1-0.97598 0.58001 0.12757-0.78081 0.17658-0.23217
  -4  -9  -2  329.14  323.46   1-0.97801 0.58935 0.11363-0.75553 0.17487-0.28605
  -4  -9  -3 4578.24  815.05   1-0.98044 0.59911 0.09467-0.72522 0.17250-0.33927
  -4  -9  -4  371.55  286.10   1-0.98302 0.60900 0.07046-0.68967 0.16938-0.39174
  -4  -9  -5  361.21  216.48   1-0.98543 0.61894 0.04017-0.64834 0.16525-0.44333
  -4  -9  -6  343.99  268.48   1-0.98705 0.62785 0.00459-0.60145 0.16030-0.49400
  -4  -9  -7  855.40  343.00   1-0.98733 0.63542-0.03711-0.54843 0.15424-0.54355
  -4  -9  -8 1055.47  320.06   1-0.98547 0.64085-0.08528-0.48894 0.14687-0.59181
  -4  -9  -9 1415.56  333.39   1-0.98044 0.64312-0.14025-0.42265 0.13801-0.63855
  -4  -9 -10   85.78  160.96   1-0.97098 0.64094-0.20237-0.34921 0.12737-0.68354
  -4  -9 -10   96.59  256.52   1-0.10405-0.22372-0.93483 0.37655 0.33950-0.89897
  -4  -9 -11   73.42  127.61   1-0.11862-0.20179-0.95393 0.40675 0.27555-0.89096
  -4  -9 -12  273.17  152.01   1-0.13226-0.18079-0.96825 0.43217 0.21211-0.88348
  -4 -10   4 1475.75  447.37   1-0.98577 0.57170 0.03453-0.81840 0.16448 0.05797
  -4 -10   3 3587.91  810.95   1-0.98523 0.57845 0.04315-0.81570 0.16566 0.00118
  -4 -10   2  386.57  289.93   1-0.98493 0.58544 0.04760-0.80884 0.16626-0.05503
  -4 -10   1 2585.63  503.09   1-0.98491 0.59271 0.04784-0.79777 0.16629-0.11068
  -4 -10   0   -1.73   91.27   1-0.98519 0.60028 0.04381-0.78242 0.16575-0.16575
  -4 -10  -1  -99.78  208.06   1-0.98572 0.60810 0.03540-0.76270 0.16460-0.22022
  -4 -10  -2 3115.49  641.61   1-0.98639 0.61606 0.02250-0.73847 0.16282-0.27405
  -4 -10  -3  483.49  294.54   1-0.98704 0.62400 0.00494-0.70961 0.16035-0.32720
  -4 -10  -4  346.56  182.30   1-0.98742 0.63167-0.01741-0.67593 0.15714-0.37960
  -4 -10  -5  253.89  151.99   1-0.98719 0.63873-0.04477-0.63726 0.15309-0.43117
  -4 -10  -6  355.12  221.28   1-0.98594 0.64476-0.07732-0.59339 0.14812-0.48182
  -4 -10  -7  140.76  151.26   1-0.98311 0.64923-0.11526-0.54413 0.14210-0.53142
  -4 -10  -8  902.04  304.61   1-0.97804 0.65145-0.15880-0.48927 0.13490-0.57983
  -4 -10  -9  241.90  228.62   1-0.96990 0.65059-0.20815-0.42861 0.12635-0.62690
  -4 -10 -10  668.20  421.44   1-0.95763 0.64561-0.26349-0.36196 0.11626-0.67242
  -4 -10 -10  718.18  377.67   1-0.09596-0.21323-0.92265 0.29001 0.37349-0.93296
  -4 -11   1  329.54  256.31   1-0.98729 0.61311-0.03992-0.78386 0.15382-0.09820
  -4 -11   0  302.52  235.37   1-0.98722 0.62034-0.04327-0.76919 0.15331-0.15331
  -4 -11  -1  360.95  228.17   1-0.98704 0.62745-0.05074-0.75041 0.15219-0.20781
  -4 -11  -2   47.23  167.41   1-0.98664 0.63434-0.06241-0.72742 0.15042-0.26165
  -4 -11  -3 2351.54  586.28   1-0.98588 0.64086-0.07839-0.70013 0.14795-0.31480
  -4 -11  -4 3142.86  759.81   1-0.98452 0.64680-0.09877-0.66843 0.14474-0.36721
  -4 -11  -5  764.49  466.64   1-0.98228 0.65185-0.12369-0.63220 0.14073-0.41881
  -4 -11  -6 2883.17  633.41   1-0.97880 0.65565-0.15326-0.59131 0.13583-0.46953
  -4 -11  -7   70.14  153.85   1-0.97360 0.65774-0.18762-0.54563 0.12996-0.51927
  -4 -11  -8    4.52  120.17   1-0.96612 0.65755-0.22689-0.49505 0.12299-0.56792
  -4 -11  -9  252.06  318.60   1-0.95628 0.65795-0.27013-0.44010 0.11205-0.61105
   5  -5  -4  570.84  430.72   1 0.07758 0.74674-0.98578 0.66107-0.14900-0.07314
   5  -5  -3  706.71  361.44   1 0.05905 0.75805-0.98746 0.65187-0.14637-0.02024
   5  -5  -2  268.70  259.63   1 0.04399 0.76590-0.98856 0.64210-0.14420 0.03312
   5  -5  -1  -43.74  236.83   1 0.03254 0.77014-0.98925 0.63191-0.14252 0.08698
   5  -5   0  336.49  350.91   1 0.02486 0.77061-0.98964 0.62142-0.14139 0.14139
   5  -5   1  818.10  409.47   1 0.02114 0.76711-0.98980 0.61070-0.14084 0.19638
   5  -5   2  159.20  213.93   1 0.02162 0.75942-0.98978 0.59981-0.14091 0.25199
   5  -5   3   27.95  190.34   1 0.02657 0.74725-0.98956 0.58870-0.14164 0.30826
   5  -5   4  277.37  277.05   1 0.03634 0.73027-0.98904 0.57731-0.14308 0.36524
   5  -5   5  113.04  175.10   1 0.05134 0.70806-0.98805 0.56545-0.14526 0.42296
   5  -4  -6  252.78  381.88   1 0.17718 0.64735-0.97068 0.74287-0.16240-0.17050
   5  -4  -5  -10.11  226.28   1 0.15140 0.66572-0.97557 0.73675-0.15914-0.11828
   5  -4  -4   95.51  232.19   1 0.12885 0.68085-0.97928 0.72946-0.15621-0.06572
   5  -4  -3  392.88  324.42   1 0.10968 0.69261-0.98201 0.72119-0.15366-0.01278
   5  -4  -2 1265.89  469.51   1 0.09402 0.70086-0.98396 0.71214-0.15154 0.04057
   5  -4  -1  224.14  236.73   1 0.07815 0.70597-0.98572 0.70203-0.14908 0.09354
   5  -4   0  451.01  409.32   1 0.07026 0.70665-0.98649 0.69191-0.14797 0.14797
   5  -4   1  752.37  386.27   1 0.06648 0.70322-0.98683 0.68138-0.14743 0.20297
   5  -4   2  480.20  388.80   1 0.06706 0.69542-0.98678 0.67045-0.14752 0.25860
   5  -4   3  132.77  203.82   1 0.07231 0.68296-0.98630 0.65909-0.14826 0.31488
   5  -4   4  214.17  185.42   1 0.08259 0.66547-0.98527 0.64719-0.14971 0.37186
   5  -4   5 1116.22  354.31   1 0.10046 0.64252-0.98319 0.63434-0.15242 0.42984
   5  -4   6  -33.61  148.19   1 0.12183 0.61373-0.98032 0.62047-0.15528 0.48819
   5  -3  -7  181.81  242.90   1 0.26226 0.55095-0.94946 0.80611-0.17244-0.21595
   5  -3  -6  -20.05  240.65   1 0.23314 0.57266-0.95762 0.80326-0.16912-0.16378
   5  -3  -5  452.41  440.65   1 0.20713 0.59125-0.96411 0.79875-0.16606-0.11136
   5  -3  -4  299.76  341.30   1 0.18436 0.60660-0.96919 0.79283-0.16329-0.05864
   5  -3  -3  102.29  228.47   1 0.16500 0.61855-0.97308 0.78571-0.16087-0.00558
   5  -3  -2  997.94  419.50   1 0.14920 0.62694-0.97596 0.77759-0.15886 0.04789
   5  -3  -1  925.89  410.99   1 0.13716 0.63156-0.97797 0.76860-0.15730 0.10181
   5  -3   0  557.36  298.32   1 0.12909 0.63222-0.97924 0.75886-0.15624 0.15624
   5  -3   1  108.94  208.91   1 0.12524 0.62865-0.97982 0.74844-0.15574 0.21122
   5  -3   2   27.38  202.14   1 0.12589 0.62059-0.97972 0.73734-0.15582 0.26679
   5  -3   3  -45.36  219.98   1 0.13137 0.60770-0.97889 0.72551-0.15654 0.32300
   5  -3   4    8.50  187.70   1 0.14206 0.58959-0.97717 0.71278-0.15794 0.37988
   5  -3   5  302.18  235.99   1 0.15844 0.56580-0.97431 0.69892-0.16004 0.43746
   5  -3   6  378.44  267.55   1 0.18108 0.53574-0.96988 0.68349-0.16288 0.49579
   5  -3   7 1070.41  356.96   1 0.21070 0.49871-0.96326 0.66587-0.16648 0.55488
   5  -2  -8   82.88  223.84   1 0.35776 0.44412-0.91583 0.85694-0.18234-0.26153
   5  -2  -7  646.90  448.36   1 0.32597 0.46850-0.92823 0.85834-0.17921-0.20918
   5  -2  -6  272.46  256.20   1 0.29710 0.48996-0.93844 0.85754-0.17622-0.15668
   5  -2  -5  -49.03  235.03   1 0.27128 0.50836-0.94674 0.85484-0.17343-0.10398
   5  -2  -4  125.67  258.61   1 0.24870 0.52353-0.95338 0.85047-0.17091-0.05102
   5  -2  -3  792.72  339.59   1 0.22952 0.53529-0.95856 0.84466-0.16870 0.00225
   5  -2  -2  101.29  209.09   1 0.21395 0.54345-0.96248 0.83757-0.16687 0.05590
   5  -2  -1 1543.77  445.57   1 0.20219 0.54779-0.96526 0.82935-0.16546 0.10998
   5  -2   0  491.89  324.09   1 0.19450 0.54807-0.96700 0.82008-0.16453 0.16453
   5  -2   1  199.81  315.19   1 0.19114 0.54402-0.96774 0.80982-0.16412 0.21960
   5  -2   2  356.36  267.11   1 0.19242 0.53532-0.96746 0.79853-0.16428 0.27525
   5  -2   3  108.88  225.68   1 0.19870 0.52163-0.96606 0.78613-0.16504 0.33149
   5  -2   4  331.21  294.50   1 0.21040 0.50252-0.96334 0.77241-0.16645 0.38839
   5  -2   5 1082.45  318.22   1 0.22799 0.47751-0.95896 0.75703-0.16852 0.44595
   5  -2   6  752.94  299.58   1 0.25208 0.44601-0.95242 0.73948-0.17129 0.50420
   5  -2   7  638.72  260.21   1 0.28339 0.40728-0.94294 0.71900-0.17475 0.56315
   5  -1  -8   34.49  186.70   1 0.42861 0.35499-0.88439 0.89793-0.18477-0.26017
   5  -1  -7  -33.68  245.62   1 0.39617 0.37957-0.89916 0.90272-0.18588-0.20251
   5  -1  -6  167.29  222.43   1 0.36806 0.40026-0.91154 0.90410-0.18331-0.14959
   5  -1  -5  365.34  249.31   1 0.34295 0.41795-0.92176 0.90332-0.18090-0.09651
   5  -1  -4 2293.21  590.40   1 0.32102 0.43247-0.93005 0.90060-0.17871-0.04322
   5  -1  -3   55.17  247.18   1 0.30248 0.44360-0.93661 0.89616-0.17679 0.01033
   5  -1  -2  298.04  336.22   1 0.28755 0.45111-0.94160 0.89014-0.17520 0.06423
   5  -1  -1  668.29  445.26   1 0.27647 0.45478-0.94513 0.88268-0.17400 0.11852
   5  -1   0  373.77  331.44   1 0.26951 0.45432-0.94728 0.87382-0.17324 0.17324
   5  -1   1 2568.82  504.20   1 0.26696 0.44946-0.94805 0.86359-0.17296 0.22844
   5  -1   2   70.39  225.72   1 0.26916 0.43984-0.94739 0.85192-0.17320 0.28417
   5  -1   3  910.87  404.15   1 0.27648 0.42511-0.94513 0.83866-0.17400 0.34046
   5  -1   4   83.42  210.84   1 0.28935 0.40483-0.94101 0.82354-0.17540 0.39734
   5  -1   5 3448.19  555.57   1 0.30826 0.37851-0.93461 0.80614-0.17739 0.45482
   5  -1   6  449.82  291.73   1 0.33380 0.34555-0.92529 0.78582-0.18000 0.51291
   5  -1   7   55.73  136.70   1 0.36669 0.30525-0.91212 0.76164-0.18318 0.57158
   5  -1   8  632.26  286.05   1 0.40688 0.25763-0.89497 0.73442-0.18294 0.62788
   5   0  -8  472.24  350.49   1 0.50222 0.26301-0.84353 0.93058-0.19030-0.25464
   5   0  -7  468.98  364.45   1 0.47257 0.28522-0.86095 0.93712-0.18820-0.20112
   5   0  -6   33.68  195.78   1 0.44562 0.30473-0.87565 0.94093-0.18614-0.14756
   5   0  -5  145.85  196.81   1 0.42050 0.32167-0.88760 0.94261-0.18799-0.08943
   5   0  -4  158.40  255.02   1 0.39973 0.33502-0.89751 0.94153-0.18620-0.03573
   5   0  -3 1182.11  440.40   1 0.38230 0.34504-0.90540 0.93841-0.18463 0.01818
   5   0  -2 2266.70  502.23   1 0.36845 0.35148-0.91138 0.93339-0.18335 0.07238
   5   0  -1  102.02  241.04   1 0.35843 0.35408-0.91555 0.92656-0.18240 0.12692
   5   0   0  879.93  364.80   1 0.35255 0.35255-0.91795 0.91795-0.18184 0.18184
   5   0   1 3996.75  620.68   1 0.35110 0.34658-0.91853 0.90753-0.18170 0.23718
   5   0   2 1524.48  422.30   1 0.35443 0.33584-0.91719 0.89518-0.18202 0.29299
   5   0   3  316.25  222.66   1 0.36291 0.31994-0.91370 0.88069-0.18283 0.34928
   5   0   4  767.95  280.82   1 0.37698 0.29846-0.90773 0.86371-0.18414 0.40608
   5   0   513871.83 1079.16   1 0.39710 0.27093-0.89873 0.84371-0.18596 0.46339
   5   0   6 1562.61  387.58   1 0.42344 0.23759-0.88696 0.82168-0.18434 0.51805
   5   0   7  358.24  263.74   1 0.45730 0.19629-0.86941 0.79324-0.18705 0.57638
   5   0   8  441.52  230.39   1 0.49915 0.14700-0.84540 0.75835-0.19009 0.63504
   5   1  -9  897.73  427.20   1 0.60750 0.14681-0.76972 0.94114-0.19612-0.30443
   5   1  -8  202.88  262.89   1 0.57761 0.16926-0.79273 0.95328-0.19475-0.25019
   5   1  -7  327.29  311.03   1 0.55003 0.18939-0.81246 0.96212-0.19328-0.19604
   5   1  -6  252.93  294.43   1 0.52500 0.20699-0.82921 0.96799-0.19178-0.14192
   5   1  -5  368.06  309.09   1 0.50273 0.22181-0.84322 0.97113-0.19034-0.08775
   5   1  -4 1326.27  502.95   1 0.48345 0.23365-0.85472 0.97174-0.18900-0.03347
   5   1  -3 4210.15  659.31   1 0.46742 0.24223-0.86384 0.96999-0.18782 0.02097
   5   1  -2 3165.47  610.19   1 0.45490 0.24732-0.87071 0.96597-0.18687 0.07563
   5   1  -1 1057.58  395.67   1 0.44615 0.24862-0.87537 0.95975-0.18618 0.13057
   5   1   0 1730.41  463.21   1 0.44146 0.24586-0.87782 0.95132-0.18581 0.18581
   5   1   1   53.29  221.19   1 0.44116 0.23872-0.87798 0.94060-0.18579 0.24141
   5   1   210193.63  930.76   1 0.44558 0.22686-0.87567 0.92741-0.18614 0.29738
   5   1   423456.31 1013.66   1 0.47003 0.18753-0.86239 0.89237-0.18802 0.41049
   5   1   5 5707.19  688.22   1 0.49087 0.15925-0.85036 0.86946-0.18952 0.46761
   5   1   6 1728.26  420.41   1 0.51805 0.12462-0.83367 0.84189-0.19134 0.52505
   5   1   7 2333.17  412.92   1 0.55206 0.08317-0.81106 0.80840-0.19339 0.58272
  -5  -1  -7 1175.28  316.80   1-0.22035-0.42198-0.90230 0.90637-0.37052-0.02031
   5   1   8  231.83  218.32   1 0.59344 0.03434-0.78076 0.76722-0.19551 0.64045
  -5  -1  -8  218.43  171.13   1-0.22201-0.41301-0.89369 0.90895-0.38990-0.05676
  -5  -1  -9  125.76  147.52   1-0.22372-0.40399-0.88372 0.91018-0.41106-0.09144
  -5  -1 -10 -157.25  191.74   1-0.22541-0.39498-0.87252 0.91016-0.43347-0.12486
  -5  -1 -11  544.51  229.38   1-0.22704-0.38603-0.86012 0.90895-0.45677-0.15740
  -5  -1 -12  609.22  322.35   1-0.22857-0.37719-0.84655 0.90658-0.48071-0.18928
   5   2  -8  265.26  270.28   1 0.65211 0.07640-0.73188 0.96593-0.19770-0.24724
   5   2  -7  356.19  354.63   1 0.62711 0.09396-0.75363 0.97680-0.19689-0.19243
   5   2  -6   16.68  212.78   1 0.60445 0.10917-0.77215 0.98443-0.19599-0.13771
   5   2  -5   38.50  194.95   1 0.58439 0.12179-0.78767 0.98907-0.19508-0.08300
   5   2  -4  473.57  472.33   1 0.56716 0.13158-0.80037 0.99090-0.19421-0.02825
   5   2  -3   60.97  241.52   1 0.55302 0.13827-0.81039 0.99003-0.19345 0.02659
   5   2  -2 1254.50  371.47   1 0.54224 0.14161-0.81779 0.98655-0.19283 0.08159
   5   2  -1  496.24  351.35   1 0.53509 0.14131-0.82258 0.98046-0.19240 0.13679
   5   2   0  869.37  436.85   1 0.53186 0.13710-0.82472 0.97172-0.19221 0.19221
   5   2   1 3575.67  560.95   1 0.53284 0.12868-0.82408 0.96020-0.19227 0.24789
   5   2   2 2704.63  530.17   1 0.53833 0.11574-0.82042 0.94566-0.19260 0.30383
   5   2   3 1295.24  337.79   1 0.54866 0.09797-0.81340 0.92777-0.19320 0.36006
   5   2   415552.40 1156.46   1 0.56415 0.07504-0.80253 0.90601-0.19405 0.41653
   5   2   5 3518.27  594.30   1 0.58513 0.04662-0.78711 0.87971-0.19512 0.47321
  -5  -2  -5 1282.95  562.04   1-0.19151-0.44536-0.97416 0.88093-0.11969-0.16003
   5   2   612994.58 1020.70   1 0.61191 0.01240-0.76617 0.84789-0.19630 0.53001
   5   2   7  178.28  203.70   1 0.64479-0.02792-0.73840 0.80923-0.19748 0.58681
  -5  -2  -7   28.98  118.36   1-0.20290-0.41924-0.95850 0.88747-0.20023-0.19139
   5   2   8  670.28  269.92   1 0.68403-0.07460-0.70193 0.76189-0.19843 0.64338
  -5  -2  -8  113.49  118.85   1-0.20725-0.40935-0.94801 0.88900-0.24147-0.20519
   5   2   9  547.52  239.72   1 0.72836-0.12702-0.65584 0.70387-0.19835 0.69887
  -5  -2  -9  211.65  186.41   1-0.21126-0.39803-0.93718 0.88936-0.27756-0.22493
  -5  -2 -10  190.04  202.89   1-0.21489-0.38708-0.92529 0.88866-0.31249-0.24584
  -5  -2 -11   86.66  173.59   1-0.21817-0.37649-0.91233 0.88689-0.34646-0.26770
  -5  -2 -12  519.87  257.17   1-0.22114-0.36621-0.89831 0.88406-0.37964-0.29036
   5   3  -8  679.62  311.04   1 0.72364-0.01205-0.66104 0.96906-0.19837-0.24652
   5   3  -7   18.41  212.44   1 0.70093 0.00177-0.68498 0.98165-0.19867-0.19065
   5   3  -6  241.49  250.98   1 0.68098 0.01427-0.70491 0.99069-0.19838-0.13532
   5   3  -5  533.16  379.40   1 0.66341 0.02441-0.72158 0.99648-0.19800-0.08009
   5   3  -4 4152.76  638.90   1 0.64846 0.03191-0.73515 0.99918-0.19759-0.02487
   5   3  -3  332.99  414.95   1 0.63639 0.03654-0.74572 0.99887-0.19721 0.03036
   5   3  -2  245.76  243.47   1 0.62746 0.03802-0.75333 0.99559-0.19690 0.08566
   5   3  -1 2566.80  574.87   1 0.62194 0.03611-0.75795 0.98933-0.19670 0.14108
   5   3   0  480.83  406.81   1 0.62007 0.03053-0.75949 0.98000-0.19663 0.19663
   5   3   1 4743.00  623.46   1 0.62214 0.02102-0.75779 0.96741-0.19670 0.25232
   5   3   2  411.62  381.53   1 0.62838 0.00733-0.75255 0.95130-0.19693 0.30817
   5   3   3 9390.36  873.39   1 0.63906-0.01078-0.74341 0.93127-0.19730 0.36415
   5   3   4 7016.90  747.80   1 0.65442-0.03358-0.72980 0.90679-0.19776 0.42024
  -5  -3  -4 2793.40 1334.48   1-0.14748-0.47817-0.97957 0.80088 0.13667-0.36046
   5   3   5 2320.51  460.91   1 0.67464-0.06124-0.71101 0.87711-0.19825 0.47635
  -5  -3  -5  574.83  272.45   1-0.16002-0.45827-0.98461 0.81701 0.07021-0.34995
   5   3   6 4224.87  595.86   1 0.69880-0.09300-0.68728 0.84164-0.19829 0.53196
  -5  -3  -6 1827.72  739.78   1-0.17073-0.44019-0.98526 0.82877 0.00981-0.34549
   5   3   7  166.83  158.36   1 0.72904-0.13080-0.65508 0.79847-0.19835 0.58764
  -5  -3  -7   47.97  166.20   1-0.18000-0.42355-0.98260 0.83720-0.04567-0.34595
  -5  -3  -8   -8.48  157.62   1-0.77000 0.17339 0.60259-0.73510 0.20967-0.65540
   5   3   8   90.36  139.95   1 0.76435-0.17366-0.61367 0.74608-0.19790 0.64280
  -5  -3  -8   91.35   88.80   1-0.18812-0.40807-0.97732 0.84302-0.09718-0.35039
  -5  -3  -9  379.91  175.21   1-0.81039 0.22109 0.54760-0.66886 0.20829-0.70974
   5   3   9  470.31  247.68   1 0.80445-0.22132-0.56055 0.68199-0.19655 0.69706
  -5  -3  -9  115.96  137.44   1-0.19529-0.39354-0.96990 0.84670-0.14544-0.35807
  -5  -3 -11  884.02  266.81   1-0.20679-0.36946-0.94914 0.84943-0.23740-0.37677
  -5  -3 -12  184.63  178.07   1-0.21143-0.35750-0.93668 0.84817-0.27911-0.39088
  -5  -3 -13  115.31  226.18   1-0.21556-0.34606-0.92284 0.84551-0.31921-0.40662
  -5  -4   8  486.34  395.14   1-0.78667 0.09151 0.58083-0.96731 0.20924 0.23648
   5   4  -8  157.36  203.59   1 0.78835-0.09496-0.58275 0.96417-0.19721-0.24768
  -5  -4   7 1089.53  428.99   1-0.76803 0.08018 0.60509-0.98033 0.20971 0.18029
   5   4  -7 1922.74  489.84   1 0.76930-0.08347-0.60749 0.97793-0.19779-0.19149
  -5  -4   6 1998.49  617.38   1-0.75126 0.07071 0.62571-0.98971 0.20997 0.12432
   5   4  -6 1780.91  535.37   1 0.75211-0.07383-0.62854 0.98801-0.19813-0.13554
   5   4  -5 8766.47  824.05   1 0.73702-0.06631-0.64611 0.99460-0.19830-0.07975
   5   4  -4 5274.60  718.61   1 0.72431-0.06115-0.66031 0.99783-0.19837-0.02407
   5   4  -3   68.66  264.75   1 0.71420-0.05860-0.67124 0.99778-0.19837 0.03153
   5   4  -2 9389.99  967.73   1 0.70694-0.05889-0.67888 0.99445-0.19834 0.08712
   5   4  -1 1446.38  532.30   1 0.70307-0.06338-0.68279 0.98767-0.19870 0.14308
   5   4   0  232.60  317.75   1 0.70234-0.07009-0.68354 0.97755-0.19869 0.19869
   5   4   1  408.62  348.31   1 0.70459-0.07922-0.68132 0.96396-0.19833 0.25394
   5   4   2  802.13  360.58   1 0.71100-0.09318-0.67462 0.94629-0.19836 0.30958
   5   4   3  410.62  368.55   1 0.72132-0.11106-0.66358 0.92427-0.19837 0.36521
   5   4   4 1071.94  345.39   1 0.73567-0.13296-0.64765 0.89737-0.19831 0.42076
  -5  -4  -4  177.15  196.45   1-0.11319-0.49387-0.94725 0.69419 0.29982-0.52361
  -5  -4  -5 4861.30  626.88   1-0.75775 0.15760 0.61786-0.85822 0.20989-0.48847
   5   4   5 5904.46  674.72   1 0.75413-0.15899-0.62612 0.86486-0.19810 0.47616
  -5  -4  -5 2081.26  944.09   1-0.12946-0.47024-0.96562 0.72366 0.22542-0.50515
  -5  -4  -6  556.60  331.49   1-0.78062 0.18778 0.58886-0.81799 0.20941-0.54371
   5   4   6  369.61  315.53   1 0.77671-0.18912-0.59805 0.82582-0.19759 0.53126
  -5  -4  -6  185.20  150.73   1-0.14371-0.44863-0.97727 0.74641 0.15584-0.49152
  -5  -4  -7 2236.42  560.40   1-0.80741 0.22188 0.55193-0.76982 0.20843-0.59845
   5   4   7 2954.98  473.20   1 0.80326-0.22322-0.56224 0.77903-0.19661 0.58589
  -5  -4  -8  763.89  290.29   1-0.83776 0.25953 0.50541-0.71206 0.20665-0.65238
   5   4   8  598.81  275.67   1 0.83346-0.26098-0.51706 0.72288-0.19488 0.63978
  -5  -4  -8  694.00  228.70   1-0.16721-0.41039-0.98546 0.77680 0.03007-0.47765
  -5  -4  -9   81.49  112.77   1-0.87100 0.30008 0.44707-0.64248 0.20365-0.70509
  -5  -4  -9  323.09  194.91   1-0.17694-0.39330-0.98384 0.78628-0.02700-0.47651
  -5  -4 -10   59.32  184.67   1-0.18559-0.37728-0.97929 0.79283-0.08085-0.47861
  -5  -4 -11  595.30  345.32   1-0.19331-0.36220-0.97223 0.79686-0.13188-0.48353
  -5  -4 -12  200.59  163.21   1-0.20022-0.34793-0.96298 0.79872-0.18046-0.49090
  -5  -4 -13 1777.05  371.06   1-0.20641-0.33437-0.95178 0.79862-0.22691-0.50039
  -5  -5   7  327.41  231.13   1-0.82805 0.15858 0.52090-0.97029 0.20731 0.18269
   5   5  -7  425.45  373.77   1 0.82922-0.16160-0.52372 0.96757-0.19517-0.19411
  -5  -5   6   -7.73  196.19   1-0.81409 0.15194 0.54215-0.98030 0.20811 0.12618
   5   5  -6   83.74  224.95   1 0.81491-0.15484-0.54542 0.97830-0.19602-0.13764
  -5  -5   5 1976.75  502.68   1-0.80196 0.14711 0.55974-0.98664 0.20867 0.06990
   5   5  -5 1973.31  473.30   1 0.80240-0.14990-0.56344 0.98534-0.19665-0.08141
  -5  -5   4  -10.24  235.18   1-0.79188 0.14434 0.57376-0.98943 0.20906 0.01379
   5   5  -4  152.57  359.43   1 0.79196-0.14701-0.57788 0.98880-0.19708-0.02536
  -5  -5   312202.43  945.36   1-0.78409 0.14386 0.58427-0.98869 0.20931-0.04217
   5   5  -315474.26 1181.65   1 0.78380-0.14641-0.58880 0.98875-0.19737 0.03053
  -5  -5   2    0.12  255.38   1-0.77881 0.14589 0.59124-0.98443 0.20946-0.09803
   5   5  -2  280.99  408.81   1 0.77815-0.14832-0.59619 0.98516-0.19755 0.08632
  -5  -5   1 2288.58  549.80   1-0.77623 0.15061 0.59460-0.97655 0.20953-0.15381
   5   5  -1 2677.48  634.26   1 0.77521-0.15294-0.59997 0.97797-0.19763 0.14202
  -5  -5   0  129.41  217.30   1-0.77654 0.15823 0.59420-0.96491 0.20952-0.20952
   5   5   0  320.24  368.76   1 0.77517-0.16045-0.60003 0.96705-0.19763 0.19763
  -5  -5  -1 2180.32  525.62   1-0.77989 0.16889 0.58983-0.94929 0.20943-0.26515
   5   5   1 1553.25  452.67   1 0.77819-0.17103-0.59613 0.95218-0.19755 0.25316
  -5  -5  -2  428.50  292.50   1-0.78642 0.18273 0.58116-0.92939 0.20924-0.32068
   5   5   2  567.06  310.51   1 0.78441-0.18480-0.58800 0.93307-0.19735 0.30857
  -5  -5  -3 1024.25  328.43   1-0.79621 0.19982 0.56780-0.90479 0.20890-0.37605
   5   5   3 1222.85  332.75   1 0.79391-0.20186-0.57522 0.90932-0.19700 0.36384
  -5  -5  -410955.96  967.03   1-0.80929 0.22021 0.54921-0.87496 0.20835-0.43121
   5   5   411188.58 1015.37   1 0.80674-0.22224-0.55729 0.88041-0.19644 0.41889
  -5  -5  -511057.23 2417.58   1-0.82560 0.24384 0.52471-0.83922 0.20746-0.48604
   5   5   517765.57 1270.73   1 0.82284-0.24591-0.53354 0.84569-0.19557 0.47363
  -5  -5  -512496.17 1045.47   1-0.10262-0.47850-0.93275 0.61642 0.34560-0.62534
  -5  -5  -6  368.01  150.74   1-0.84499 0.27053 0.49345-0.79672 0.20611-0.54040
   5   5   6  116.25  185.03   1 0.84208-0.27270-0.50314 0.80431-0.19425 0.52792
  -5  -5  -6  117.23  129.71   1-0.11894-0.45481-0.95432 0.64909 0.27408-0.60976
  -5  -5  -7  117.11  108.08   1-0.86713 0.29998 0.45434-0.74637 0.20407-0.59408
  -5  -5  -7   74.70   88.93   1-0.13363-0.43276-0.96948 0.67535 0.20553-0.59716
  -5  -5  -8 1134.97  354.27   1-0.89068 0.33257 0.40653-0.68499 0.20348-0.64821
  -5  -5  -8  421.12  251.12   1-0.14680-0.41222-0.97918 0.69616 0.14015-0.58772
  -5  -5  -9   79.86   89.50   1-0.91647 0.36568 0.34709-0.61421 0.19898-0.69930
  -5  -5  -9  179.33  113.41   1-0.15860-0.39305-0.98426 0.71233 0.07792-0.58145
  -5  -5 -10 2745.36  682.30   1-0.16920-0.37509-0.98540 0.72457 0.01870-0.57817
  -5  -5 -11   71.96  129.69   1-0.17871-0.35822-0.98317 0.73345-0.03772-0.57769
  -5  -5 -12  446.13  184.67   1-0.18726-0.34230-0.97802 0.73939-0.09161-0.57975
  -5  -6   7   97.11  232.77   1-0.87877 0.22769 0.43203-0.95555 0.20275 0.18726
  -5  -6   6  282.53  222.44   1-0.86752 0.22375 0.45361-0.96590 0.20403 0.13026
  -5  -6   5  182.73  202.98   1-0.85777 0.22131 0.47137-0.97242 0.20500 0.07357
   5   6  -5  539.79  380.14   1 0.85828-0.22398-0.47555 0.97086-0.19286-0.08519
  -5  -6   4 2719.25  580.94   1-0.84973 0.22058 0.48541-0.97521 0.20572 0.01714
   5   6  -4 4064.70  643.06   1 0.84993-0.22320-0.49001 0.97434-0.19361-0.02883
  -5  -6   3 9196.87 2023.88   1-0.84362 0.22178 0.49574-0.97431 0.20621-0.03907
   5   6  -314438.93 1166.80   1 0.84352-0.22434-0.50077 0.97412-0.19413 0.02730
  -5  -6   2 2154.12  463.18   1-0.83963 0.22509 0.50235-0.96968 0.20652-0.09509
   5   6  -2 2620.70  731.90   1 0.83923-0.22760-0.50781 0.97018-0.19446 0.08324
  -5  -6   1 1928.27  417.35   1-0.83791 0.23068 0.50516-0.96125 0.20664-0.15093
   5   6  -1 1575.63  524.32   1 0.83722-0.23316-0.51105 0.96245-0.19461 0.13900
  -5  -6   0  781.97  286.14   1-0.83862 0.23869 0.50401-0.94886 0.20659-0.20659
   5   6   0 1419.47  509.05   1 0.83766-0.24115-0.51035 0.95077-0.19458 0.19458
  -5  -6  -1 2433.72  580.32   1-0.84185 0.24923 0.49870-0.93230 0.20635-0.26207
   5   6   1 4451.20  700.88   1 0.84063-0.25168-0.50551 0.93496-0.19436 0.24997
  -5  -6  -2   63.14  248.36   1-0.84767 0.26236 0.48893-0.91130 0.20589-0.31732
   5   6   2   62.20  236.13   1 0.84623-0.26484-0.49626 0.91473-0.19392 0.30514
  -5  -6  -3 1887.56  442.14   1-0.85610 0.27810 0.47433-0.88546 0.20515-0.37230
   5   6   3 2376.66  524.77   1 0.85447-0.28063-0.48222 0.88972-0.19321 0.36005
  -5  -6  -4  323.53  218.16   1-0.86708 0.29639 0.45443-0.85432 0.20407-0.42694
  -5  -6  -5  360.83  183.98   1-0.88047 0.31709 0.42864-0.81729 0.20253-0.48111
  -5  -6  -6  107.62   95.04   1-0.89495 0.34022 0.39736-0.77235 0.20284-0.53638
  -5  -6  -6 -104.46  192.69   1-0.09768-0.45749-0.92533 0.54574 0.36635-0.70204
  -5  -6  -7  241.06  205.51   1-0.91230 0.36488 0.35745-0.72110 0.19982-0.58895
  -5  -6  -7   11.64  210.14   1-0.11355-0.43425-0.94771 0.57922 0.29823-0.68986
  -5  -6  -8  569.06  256.31   1-0.93072 0.39061 0.30894-0.66124 0.19572-0.64044
  -5  -6  -8  212.87  139.75   1-0.12809-0.41234-0.96427 0.60688 0.23187-0.67945
  -5  -6  -9   69.71  170.02   1-0.94926 0.41647 0.25044-0.59139 0.19018-0.69050
  -5  -6  -9  -11.11  240.27   1-0.14136-0.39171-0.97566 0.62937 0.16762-0.67115
  -5  -6 -10  399.12  334.09   1-0.15343-0.37228-0.98249 0.64730 0.10566-0.66513
  -5  -6 -11  166.18  202.02   1-0.16439-0.35395-0.98532 0.66123 0.04601-0.66143
  -5  -6 -12  275.31  351.42   1-0.17434-0.33664-0.98461 0.67162-0.01137-0.65998
  -5  -7   6  141.61  132.16   1-0.90948 0.28497 0.36426-0.94923 0.20036 0.13317
  -5  -7   5  178.35  167.03   1-0.90189 0.28470 0.38195-0.95557 0.20171 0.07623
  -5  -7   4  976.74  319.28   1-0.89567 0.28579 0.39580-0.95808 0.20273 0.01963
  -5  -7   3  243.89  132.24   1-0.89239 0.28893 0.40404-0.95675 0.20093-0.03378
  -5  -7   2  232.55  155.22   1-0.88943 0.29327 0.41031-0.95178 0.20135-0.08992
  -5  -7   1 1404.71  382.09   1-0.88830 0.29946 0.41267-0.94290 0.20151-0.14579
  -5  -7   0 3090.83  603.88   1-0.88912 0.30758 0.41097-0.92996 0.20140-0.20140
  -5  -7  -1 1340.15  432.76   1-0.89193 0.31770 0.40502-0.91277 0.20100-0.25671
  -5  -7  -2 2242.74  517.00   1-0.89548 0.32949 0.39622-0.89043 0.20275-0.31394
  -5  -7  -3  195.71  176.05   1-0.90234 0.34367 0.38094-0.86380 0.20163-0.36841
  -5  -7  -4 5947.48 1303.48   1-0.91107 0.35971 0.36044-0.83196 0.20006-0.42242
  -5  -7  -5  767.77  215.92   1-0.92147 0.37742 0.33423-0.79441 0.19791-0.47587
  -5  -7  -6  143.86  181.13   1-0.93321 0.39649 0.30173-0.75057 0.19507-0.52862
  -5  -7  -7  127.94  130.46   1-0.94583 0.41642 0.26224-0.69973 0.19135-0.58048
  -5  -7  -8  256.46  222.27   1-0.95865 0.43655 0.21490-0.64105 0.18652-0.63124
  -5  -7  -8   52.87  149.89   1-0.11178-0.41007-0.94542 0.51367 0.30606-0.75364
  -5  -7  -9  168.03  166.05   1-0.97072 0.45594 0.15871-0.57351 0.18027-0.68058
  -5  -7  -9   -5.94  238.33   1-0.12592-0.38857-0.96205 0.54140 0.24205-0.74558
  -5  -7 -10  696.32  340.21   1-0.13898-0.36814-0.97390 0.56434 0.17943-0.73890
  -5  -7 -11 5413.36 1595.60   1-0.15100-0.34876-0.98141 0.58295 0.11842-0.73384
  -5  -7 -12  513.44  453.35   1-0.16203-0.33036-0.98501 0.59765 0.05915-0.73052
  -5  -8   4  438.48  208.88   1-0.93255 0.34068 0.30366-0.93978 0.19525 0.02710
  -5  -8   3  368.18  262.78   1-0.92910 0.34454 0.31353-0.93831 0.19613-0.02936
  -5  -8   2   -6.05  116.95   1-0.92694 0.34970 0.31952-0.93295 0.19665-0.08547
  -5  -8   1  120.66  108.28   1-0.92620 0.35627 0.32155-0.92364 0.19683-0.14124
  -5  -8   0  681.77  284.97   1-0.92694 0.36433 0.31952-0.91026 0.19665-0.19665
  -5  -8  -1 2711.49  637.50   1-0.92919 0.37389 0.31326-0.89266 0.19610-0.25169
  -5  -8  -2  267.01  295.32   1-0.93293 0.38495 0.30256-0.87061 0.19515-0.30633
  -5  -8  -3  473.92  173.14   1-0.93809 0.39742 0.28714-0.84385 0.19373-0.36050
  -5  -8  -4   -6.42  194.20   1-0.94450 0.41115 0.26668-0.81205 0.19179-0.41415
  -5  -8  -5  279.10  202.37   1-0.95195 0.42591 0.24080-0.77482 0.18921-0.46716
  -5  -8  -6  225.37  223.99   1-0.96007 0.44135 0.20902-0.73170 0.18589-0.51943
  -5  -8  -7  -11.97  144.69   1-0.96840 0.45699 0.17082-0.68215 0.18166-0.57080
  -5  -8  -8  549.36  286.71   1-0.97628 0.47219 0.12556-0.62555 0.17633-0.62106
  -5  -8  -8  217.98  267.96   1-0.09811-0.40515-0.92600 0.41988 0.36454-0.81212
  -5  -8  -9  214.79  137.38   1-0.98291 0.48626 0.07183-0.56088 0.16948-0.67003
  -5  -8  -9   36.21  165.14   1-0.11265-0.38325-0.94655 0.45154 0.30222-0.80574
  -5  -8 -10  292.62  244.50   1-0.12627-0.36226-0.96242 0.47850 0.24039-0.79987
  -5  -8 -11   -4.98  267.88   1-0.13898-0.34219-0.97390 0.50108 0.17945-0.79486
  -5  -9   3  586.38  264.77   1-0.95694 0.39038 0.22180-0.92042 0.18725-0.02048
  -5  -9   2   32.62  182.13   1-0.95544 0.39620 0.22768-0.91495 0.18786-0.07668
  -5  -9   1  115.86  134.20   1-0.95493 0.40301 0.22962-0.90555 0.18806-0.13247
  -5  -9   0  579.32  282.40   1-0.95547 0.41086 0.22754-0.89213 0.18785-0.18785
  -5  -9  -1 2360.97  645.40   1-0.95706 0.41977 0.22131-0.87455 0.18720-0.24279
  -5  -9  -2  285.61  286.10   1-0.95966 0.42968 0.21074-0.85264 0.18608-0.29726
  -5  -9  -3    6.66  101.15   1-0.96317 0.44050 0.19564-0.82619 0.18444-0.35121
  -5  -9  -4  328.70  203.14   1-0.96742 0.45207 0.17573-0.79494 0.18222-0.40458
  -5  -9  -5  253.58  226.94   1-0.97217 0.46413 0.15072-0.75859 0.17934-0.45729
  -5  -9  -6  451.66  241.28   1-0.97707 0.47635 0.12025-0.71677 0.17569-0.50923
  -5  -9  -7  656.51  280.42   1-0.98166 0.48825 0.08393-0.66910 0.17113-0.56026
  -5  -9  -8  239.47  183.76   1-0.98540 0.49949 0.04066-0.61489 0.16532-0.61025
  -5  -9  -9  570.95  321.55   1-0.98733 0.50871-0.00882-0.55408 0.15838-0.65893
  -5  -9  -9 -111.34  289.58   1-0.10167-0.37564-0.93135 0.36197 0.34962-0.85314
  -5  -9 -10  166.01  218.89   1-0.11551-0.35444-0.95017 0.39189 0.28952-0.84899
  -5 -10   1  548.52  278.38   1-0.97404 0.44012 0.13977-0.88954 0.17804-0.12245
  -5 -10   0  585.22  322.18   1-0.97435 0.44775 0.13786-0.87629 0.17782-0.17782
  -5 -10  -1 1020.06  376.71   1-0.97530 0.45601 0.13192-0.85901 0.17710-0.23269
  -5 -10  -2 5167.62  810.08   1-0.97684 0.46486 0.12181-0.83755 0.17588-0.28706
  -5 -10  -3 -134.08  201.85   1-0.97885 0.47419 0.10735-0.81175 0.17409-0.34086
  -5 -10  -4 1280.50  448.34   1-0.98117 0.48382 0.08837-0.78142 0.17170-0.39406
  -5 -10  -5  592.65  339.56   1-0.98362 0.49386 0.06407-0.74611 0.16846-0.44655
  -5 -10  -6  154.40  223.70   1-0.98573 0.50326 0.03527-0.70599 0.16458-0.49828
  -5 -10  -7  376.33  359.53   1-0.98714 0.51197 0.00115-0.66055 0.15981-0.54913
  -5 -10  -8  218.34  165.74   1-0.98731 0.51942-0.03861-0.60947 0.15401-0.59894
   6  -2  -2  219.68  221.09   1 0.31307 0.58535-0.93291 0.80800-0.17789 0.06692
   6  -2  -1   19.19  236.57   1 0.30378 0.58723-0.93616 0.80025-0.17693 0.12144
   6  -2   0   34.60  242.18   1 0.29803 0.58557-0.93812 0.79121-0.17632 0.17632
   6  -2   1   47.07  220.50   1 0.29603 0.58015-0.93880 0.78088-0.17611 0.23159
   6  -2   2   66.00  217.40   1 0.29800 0.57076-0.93813 0.76921-0.17632 0.28729
   6  -2   3  338.13  242.30   1 0.30423 0.55712-0.93601 0.75608-0.17697 0.34343
   6  -2   4  117.81  209.53   1 0.31501 0.53893-0.93222 0.74129-0.17809 0.40003
   6  -2   5  -34.67  163.20   1 0.33069 0.51583-0.92647 0.72454-0.17969 0.45711
   6  -1  -4  373.97  276.15   1 0.39953 0.49498-0.89761 0.86816-0.18618-0.03575
   6  -1  -3   12.94  228.75   1 0.38417 0.50293-0.90457 0.86412-0.18480 0.01835
   6  -1  -2  520.96  362.87   1 0.37196 0.50773-0.90989 0.85844-0.18368 0.07271
   6  -1  -1  983.97  506.02   1 0.36309 0.50918-0.91363 0.85118-0.18284 0.12736
   6  -1   0  182.82  240.32   1 0.35776 0.50710-0.91583 0.84237-0.18234 0.18234
   6  -1   1  305.44  257.32   1 0.35619 0.50125-0.91647 0.83201-0.18219 0.23767
   6  -1   2  289.08  420.73   1 0.35862 0.49141-0.91548 0.82001-0.18242 0.29339
   6  -1   3 1716.99  411.03   1 0.36531 0.47730-0.91270 0.80623-0.18306 0.34951
   6  -1   4  889.45  405.56   1 0.37658 0.45862-0.90790 0.79043-0.18411 0.40605
   6  -1   5  523.41  322.29   1 0.39275 0.43503-0.90072 0.77224-0.18558 0.46300
   6  -1   6  501.09  292.00   1 0.41424 0.40613-0.89065 0.75117-0.18746 0.52037
   6  -1   7  -81.35  129.97   1 0.44084 0.37225-0.87814 0.72848-0.18576 0.57509
   6   0  -4  631.51  404.75   1 0.46304 0.41356-0.86627 0.90980-0.18749-0.03497
   6   0  -3   98.24  218.89   1 0.44827 0.42089-0.87425 0.90689-0.18635 0.01950
   6   0  -2  302.74  325.22   1 0.43661 0.42511-0.88033 0.90209-0.18542 0.07418
   6   0  -1   61.68  213.25   1 0.42825 0.42602-0.88456 0.89545-0.18474 0.12912
   6   0   0  813.77  374.69   1 0.42341 0.42341-0.88697 0.88697-0.18434 0.18434
   6   0   1  679.03  364.60   1 0.42231 0.41708-0.88752 0.87664-0.18425 0.23987
   6   0   2 5227.75  795.33   1 0.42518 0.40676-0.88610 0.86434-0.18449 0.29572
   6   0   3 5389.70  793.76   1 0.43230 0.39221-0.88253 0.84989-0.18507 0.35193
   6   0   4  296.64  207.00   1 0.44394 0.37312-0.87653 0.83301-0.18601 0.40848
   6   0   5    4.50  172.15   1 0.46042 0.34919-0.86771 0.81331-0.18729 0.46539
   6   0   6   83.33  163.35   1 0.48212 0.32005-0.85549 0.79021-0.18890 0.52261
   6   0   7   67.83  136.50   1 0.50943 0.28530-0.83909 0.76293-0.19078 0.58011
   6   1  -5  210.92  273.33   1 0.54545 0.32023-0.81560 0.94351-0.19302-0.08507
   6   1  -4   45.46  233.57   1 0.52887 0.32936-0.82668 0.94371-0.19202-0.03044
   6   1  -3  153.77  236.01   1 0.51513 0.33567-0.83552 0.94166-0.19116 0.02430
   6   1  -2  227.60  286.42   1 0.50440 0.33895-0.84219 0.93746-0.19045 0.07921
   6   1  -1  447.71  384.26   1 0.49690 0.33901-0.84676 0.93114-0.18994 0.13432
   6   1   0 1298.90  390.31   1 0.49283 0.33563-0.84919 0.92269-0.18966 0.18966
   6   1   1  350.13  320.57   1 0.49242 0.32861-0.84944 0.91206-0.18963 0.24525
   6   1   2 1682.64  419.28   1 0.49589 0.31769-0.84737 0.89911-0.18987 0.30111
   6   1   3  602.11  385.27   1 0.50349 0.30264-0.84275 0.88361-0.19039 0.35724
   6   1   4 1669.47  412.60   1 0.51550 0.28320-0.83528 0.86526-0.19118 0.41365
   6   1   5  438.23  286.48   1 0.53219 0.25907-0.82451 0.84360-0.19223 0.47032
   6   1   6   97.31  154.22   1 0.55386 0.22995-0.80981 0.81802-0.19349 0.52720
   6   1   7  601.37  297.51   1 0.58084 0.19553-0.79033 0.78767-0.19491 0.58424
   6   2  -5 -129.93  258.02   1 0.61109 0.23623-0.76684 0.96824-0.19627-0.08181
   6   2  -4   87.85  251.05   1 0.59588 0.24399-0.77887 0.96940-0.19562-0.02685
   6   2  -3  266.15  248.72   1 0.58338 0.24906-0.78843 0.96807-0.19503 0.02818
   6   2  -2  179.56  224.44   1 0.57377 0.25122-0.79557 0.96433-0.19456 0.08332
   6   2  -1   86.79  219.76   1 0.56725 0.25030-0.80031 0.95819-0.19422 0.13860
   6   2   0  198.54  274.76   1 0.56403 0.24607-0.80262 0.94962-0.19405 0.19405
   6   2   1 3217.39  594.35   1 0.56433 0.23834-0.80241 0.93853-0.19406 0.24968
   6   2   2 1308.13  357.11   1 0.56834 0.22687-0.79952 0.92476-0.19428 0.30551
   6   2   3 1702.33  448.59   1 0.57631 0.21146-0.79369 0.90805-0.19468 0.36154
   6   2   4  906.23  361.09   1 0.58846 0.19187-0.78458 0.88806-0.19527 0.41775
   6   2   5  380.62  284.96   1 0.60501 0.16788-0.77170 0.86430-0.19602 0.47411
   6   2   6   64.78  147.27   1 0.62619 0.13926-0.75440 0.83612-0.19685 0.53057
   6   2   7  192.45  256.07   1 0.65223 0.10578-0.73178 0.80262-0.19770 0.58703
   6   2   8  249.36  196.81   1 0.68332 0.06724-0.70263 0.76259-0.19842 0.64337
   6   3  -5  125.75  282.33   1 0.67566 0.15330-0.71004 0.98495-0.19827-0.07981
   6   3  -4 1819.42  562.02   1 0.66202 0.15950-0.72286 0.98689-0.19796-0.02450
   6   3  -3 1155.90  482.04   1 0.65090 0.16317-0.73297 0.98611-0.19766 0.03081
   6   3  -2  143.30  227.54   1 0.64251 0.16411-0.74040 0.98266-0.19741 0.08617
   6   3  -1  237.75  317.84   1 0.63704 0.16214-0.74516 0.97655-0.19723 0.14161
   6   3   0   40.35  192.66   1 0.63467 0.15707-0.74720 0.96770-0.19715 0.19715
   6   3   1  375.17  321.89   1 0.63561 0.14869-0.74639 0.95602-0.19718 0.25280
   6   3   2 -125.90  206.17   1 0.64004 0.13682-0.74256 0.94130-0.19733 0.30857
   6   3   3  112.29  238.54   1 0.64814 0.12127-0.73543 0.92329-0.19758 0.36444
   6   3   4 1533.10  483.39   1 0.66011 0.10186-0.72462 0.90160-0.19791 0.42039
   6   3   5  322.70  281.45   1 0.67609 0.07844-0.70963 0.87573-0.19828 0.47638
   6   3   6 1597.40  392.12   1 0.69623 0.05085-0.68978 0.84500-0.19862 0.53233
   6   3   7  252.33  210.54   1 0.71957 0.01982-0.66547 0.80886-0.19837 0.58766
   6   3   8  106.53  191.23   1 0.74817-0.01633-0.63320 0.76561-0.19818 0.64308
   6   4  -4  126.81  292.75   1 0.72544 0.07887-0.65907 0.99659-0.19836-0.02408
   6   4  -3 2386.14  651.45   1 0.71567 0.08107-0.66966 0.99620-0.19837 0.03153
   6   4  -2  240.07  390.77   1 0.70841 0.08078-0.67734 0.99291-0.19835 0.08712
   6   4  -1  167.48  231.34   1 0.70384 0.07780-0.68210 0.98670-0.19832 0.14271
   6   4   0  736.06  359.96   1 0.70240 0.07098-0.68348 0.97748-0.19869 0.19869
   6   4   1  785.81  389.94   1 0.70344 0.06308-0.68251 0.96516-0.19832 0.25393
   6   4   2 1091.10  395.54   1 0.70794 0.05102-0.67783 0.94950-0.19835 0.30957
   6   4   3 6288.84  747.02   1 0.71578 0.03562-0.66955 0.93024-0.19837 0.36521
   6   4   4   75.23  234.96   1 0.72707 0.01678-0.65727 0.90699-0.19836 0.42081
   6   4   5   30.94  272.76   1 0.74191-0.00561-0.64050 0.87925-0.19826 0.47632
  -6  -4  -6  151.18  209.02   1-0.76462 0.02973 0.60938-0.83850 0.20978-0.54407
   6   4   6  136.96  172.48   1 0.76035-0.03160-0.61859 0.84636-0.19798 0.53166
  -6  -4  -7   97.73  192.43   1-0.78693 0.05935 0.58047-0.79836 0.20923-0.59924
   6   4   7  117.98  154.62   1 0.78237-0.06118-0.59069 0.80748-0.19742 0.58670
  -6  -4  -8  307.13  188.47   1-0.81267 0.09240 0.54426-0.75090 0.20818-0.65391
   6   4   8  602.24  287.57   1 0.80787-0.09424-0.55567 0.76148-0.19639 0.64129
  -6  -5   4 1033.29  489.84   1-0.78413-0.00545 0.58422-0.99989 0.20931 0.01354
   6   5  -4 1747.91  602.01   1 0.78383 0.00226-0.58876 0.99968-0.19737-0.02507
  -6  -5   3  115.59  282.68   1-0.77619-0.00608 0.59465-0.99908 0.20953-0.04238
   6   5  -3    9.59  264.52   1 0.77553 0.00301-0.59957 0.99952-0.19762 0.03078
  -6  -5   2  433.73  290.67   1-0.77050-0.00446 0.60196-0.99515 0.20966-0.09823
   6   5  -2  919.94  364.65   1 0.76948 0.00150-0.60727 0.99624-0.19778 0.08656
  -6  -5   1   55.20  229.94   1-0.76722-0.00044 0.60612-0.98806 0.20973-0.15401
   6   5  -1  576.06  424.43   1 0.76584-0.00240-0.61182 0.98982-0.19787 0.14225
  -6  -5   0  152.05  242.10   1-0.76649 0.00614 0.60702-0.97773 0.20974-0.20974
   6   5   0  771.16  474.28   1 0.76476-0.00889-0.61316 0.98018-0.19789 0.19789
  -6  -5  -1  221.00  254.86   1-0.76847 0.01542 0.60454-0.96400 0.20970-0.26542
   6   5   1  543.15  396.75   1 0.76640-0.01808-0.61112 0.96717-0.19785 0.25347
  -6  -5  -2 2397.51  537.00   1-0.77326 0.02752 0.59843-0.94666 0.20960-0.32103
   6   5   2 1475.02  406.44   1 0.77086-0.03010-0.60552 0.95059-0.19775 0.30897
  -6  -5  -3  230.00  321.21   1-0.78095 0.04253 0.58842-0.92541 0.20940-0.37655
   6   5   3  138.82  240.42   1 0.77825-0.04505-0.59606 0.93015-0.19754 0.36438
  -6  -5  -4  -32.64  233.53   1-0.79162 0.06050 0.57412-0.89987 0.20907-0.43194
   6   5   4   80.60  248.63   1 0.78863-0.06299-0.58237 0.90549-0.19720 0.41965
  -6  -5  -5  272.72  230.85   1-0.80527 0.08145 0.55502-0.86953 0.20853-0.48711
   6   5   5  180.39  215.25   1 0.80203-0.08394-0.56397 0.87611-0.19666 0.47472
  -6  -5  -6 -116.10  198.81   1-0.82185 0.10534 0.53049-0.83375 0.20769-0.54198
   6   5   6  553.33  303.97   1 0.81840-0.10786-0.54024 0.84141-0.19583 0.52951
  -6  -5  -7   93.37  127.39   1-0.84123 0.13204 0.49971-0.79174 0.20640-0.59641
   6   5   7   68.85  227.05   1 0.83763-0.13465-0.51040 0.80059-0.19458 0.58387
  -6  -5  -8  336.97  205.89   1-0.86317 0.16128 0.46165-0.74244 0.20448-0.65020
   6   5   8  151.04  222.97   1 0.85948-0.16406-0.47343 0.75265-0.19274 0.63764
  -6  -5  -9 -111.15  212.91   1-0.17709-0.51674-0.98379 0.71187-0.02790-0.47562
  -6  -6   3   -3.23  246.62   1-0.82961 0.06571 0.51846-0.99703 0.20721-0.04006
   6   6  -3  627.98  528.54   1 0.82913-0.06879-0.52387 0.99722-0.19517 0.02834
  -6  -6   2  471.09  202.68   1-0.82497 0.06839 0.52569-0.99302 0.20750-0.09607
   6   6  -2  539.46  386.63   1 0.82418-0.07140-0.53150 0.99388-0.19549 0.08426
  -6  -6   1  332.79  240.54   1-0.82244 0.07316 0.52959-0.98567 0.20765-0.15194
   6   6  -1  522.64  455.83   1 0.82135-0.07613-0.53581 0.98721-0.19566 0.14005
  -6  -6   0  926.89  323.87   1-0.82213 0.08016 0.53006-0.97490 0.20767-0.20767
   6   6   0  697.65  410.63   1 0.82075-0.08309-0.53671 0.97713-0.19569 0.19569
  -6  -6  -1  177.45  220.53   1-0.82416 0.08949 0.52695-0.96056 0.20755-0.26327
   6   6   1  560.14  331.66   1 0.82250-0.09240-0.53406 0.96351-0.19559 0.25120
  -6  -6  -2 1204.95  373.52   1-0.82859 0.10124 0.52006-0.94242 0.20728-0.31871
   6   6   2 1213.27  366.72   1 0.82669-0.10413-0.52766 0.94613-0.19533 0.30656
  -6  -6  -3  298.16  224.67   1-0.83548 0.11544 0.50910-0.92022 0.20682-0.37396
   6   6   3  504.92  344.96   1 0.83335-0.11836-0.51723 0.92473-0.19489 0.36173
  -6  -6  -4  524.32  411.46   1-0.84484 0.13210 0.49371-0.89359 0.20612-0.42898
   6   6   4  604.54  310.11   1 0.84251-0.13507-0.50244 0.89896-0.19421 0.41666
  -6  -6  -5  530.06  333.75   1-0.85661 0.15118 0.47343-0.86208 0.20511-0.48369
   6   6   5  331.64  375.83   1 0.85412-0.15424-0.48282 0.86837-0.19324 0.47130
  -6  -6  -6  717.88  208.83   1-0.87067 0.17255 0.44769-0.82510 0.20369-0.53798
  -6  -6  -7  -19.92  200.79   1-0.13833-0.55164-0.97340 0.60491 0.18262-0.57425
  -6  -6  -8  148.71  189.55   1-0.90369 0.22226 0.37784-0.73014 0.20140-0.64612
  -6  -6  -8  225.62  161.11   1-0.14980-0.53280-0.98082 0.62343 0.12464-0.57222
  -6  -7   2  220.38  201.34   1-0.87196 0.13376 0.44525-0.98672 0.20354-0.09211
  -6  -7   1  512.02  209.85   1-0.87003 0.13913 0.44891-0.97914 0.20376-0.14804
  -6  -7   0  541.68  379.35   1-0.86997 0.14638 0.44902-0.96801 0.20376-0.20376
  -6  -7  -1  357.25  259.43   1-0.87186 0.15558 0.44544-0.95318 0.20355-0.25927
  -6  -7  -2  193.69  162.31   1-0.87574 0.16677 0.43796-0.93447 0.20311-0.31454
  -6  -7  -3  259.66  166.02   1-0.88162 0.17996 0.42635-0.91161 0.20239-0.36954
  -6  -7  -4  444.88  335.97   1-0.88946 0.19510 0.41026-0.88429 0.20135-0.42421
  -6  -7  -5  126.86  189.90   1-0.89797 0.21259 0.39076-0.85093 0.20236-0.48031
  -6  -7  -6   91.59  149.78   1-0.90941 0.23135 0.36443-0.81326 0.20037-0.53391
  -6  -7  -6  215.40  236.34   1-0.10721-0.57155-0.93928 0.48533 0.32596-0.66165
  -6  -7  -7  178.00  197.12   1-0.92227 0.25153 0.33212-0.76961 0.19774-0.58687
  -6  -7  -7  149.16  148.63   1-0.12063-0.55076-0.95627 0.51342 0.26643-0.65806
  -6  -7  -8  445.68  254.94   1-0.93613 0.27270 0.29308-0.71923 0.19428-0.63901
  -6  -7  -8  -25.59  218.93   1-0.13316-0.53086-0.96907 0.53732 0.20776-0.65533
  -6  -8   0  259.99  151.64   1-0.90816 0.20422 0.36740-0.95814 0.20060-0.20060
  -6  -8  -1  508.61  369.47   1-0.90980 0.21317 0.36350-0.94290 0.20030-0.25589
  -6  -8  -2  138.08  246.91   1-0.91301 0.22370 0.35569-0.92375 0.19968-0.31086
  -6  -8  -3  107.32  248.35   1-0.91779 0.23579 0.34374-0.90045 0.19871-0.36548
  -6  -8  -4  265.11  227.59   1-0.92406 0.24937 0.32736-0.87273 0.19733-0.41969
  -6  -8  -5 1096.68  318.04   1-0.93167 0.26430 0.30621-0.84024 0.19548-0.47343
  -6  -8  -6  377.59  254.38   1-0.94042 0.28037 0.27987-0.80255 0.19305-0.52659
  -6  -8  -7  237.45  252.12   1-0.95000 0.29726 0.24782-0.75915 0.18992-0.57905
  -6  -8  -7  450.35  232.43   1-0.10570-0.54710-0.93717 0.41996 0.33245-0.72408
;
_shelx_hkl_checksum              79775
_shelx_res_file
;
    shelx.res created by SHELXL-2014/7
TITL isq
CELL  0.71073   5.2634   9.7816  12.7947   78.5910   80.1883   74.4183
ZERR     2.00   0.0026   0.0050   0.0060    0.0089    0.0069    0.0096
LATT   1
SFAC  C    H    CL   N    O
UNIT  26 26 2 4 2
MERG   2
FMAP   2
ACTA
BOND
L.S.  30
PLAN -5
EQIV $1 -x,-y,-z
EQIV $2 1-x,1-y,-z
EQIV $3 -1+x,y,z
HTAB C8 O1
HTAB N2 N1_$1
HTAB C6 O1_$2
HTAB C11 O1_$3
ACTA
CONF
BOND $H
WPDB
WGHT    0.101600
FVAR      11.69717
MOLE    1
CL1   3   -0.211368    0.327570   -0.440649    11.00000    0.12571    0.07522 =
         0.06479   -0.00420   -0.02841   -0.03007
O1    5    0.250798    0.393178   -0.124569    11.00000    0.08267    0.06440 =
         0.07536    0.01695   -0.02740   -0.04524
N1    4    0.220677    0.021161    0.105057    11.00000    0.05114    0.03866 =
         0.05388   -0.00259   -0.00644   -0.01452
N2    4    0.113427    0.192125   -0.042173    11.00000    0.05282    0.04500 =
         0.05567    0.00324   -0.01033   -0.02176
AFIX  43
H2    2    0.015984    0.137205   -0.048789    11.00000   -1.20000
AFIX   0
C1    1    0.333544   -0.024650    0.194391    11.00000    0.05785    0.04373 =
         0.06348    0.00019   -0.00891   -0.02122
AFIX  43
H1    2    0.313293   -0.112488    0.233997    11.00000   -1.20000
AFIX   0
C2    1    0.482868    0.049823    0.234345    11.00000    0.05310    0.03964 =
         0.05544   -0.00788   -0.00599   -0.01364
C3    1    0.594446   -0.001987    0.332227    11.00000    0.06620    0.05430 =
         0.05807    0.00083   -0.01302   -0.02001
AFIX  43
H3    2    0.570158   -0.088422    0.373088    11.00000   -1.20000
AFIX   0
C4    1    0.737182    0.074175    0.366818    11.00000    0.07659    0.06665 =
         0.06341   -0.00687   -0.02553   -0.02018
AFIX  43
H4    2    0.810612    0.039370    0.430923    11.00000   -1.20000
AFIX   0
C5    1    0.773724    0.206366    0.305135    11.00000    0.06817    0.05740 =
         0.06839   -0.01988   -0.00867   -0.02288
AFIX  43
H5    2    0.872224    0.257345    0.329090    11.00000   -1.20000
AFIX   0
C6    1    0.666653    0.259876    0.211236    11.00000    0.06216    0.04645 =
         0.06235   -0.01261   -0.00591   -0.01963
AFIX  43
H6    2    0.692310    0.346788    0.171726    11.00000   -1.20000
AFIX   0
C7    1    0.516010    0.183102    0.173672    11.00000    0.04348    0.04355 =
         0.05711   -0.01196   -0.00057   -0.01280
C8    1    0.392549    0.233080    0.078690    11.00000    0.05570    0.04094 =
         0.05481   -0.00532   -0.00397   -0.01932
AFIX  43
H8    2    0.407588    0.320502    0.036852    11.00000   -1.20000
AFIX   0
C9    1    0.250119    0.151227    0.048797    11.00000    0.04432    0.03972 =
         0.04855   -0.00466    0.00032   -0.01352
C10   1    0.116399    0.307714   -0.120874    11.00000    0.05112    0.04497 =
         0.05164    0.00074   -0.00845   -0.02052
C11   1   -0.062296    0.319658   -0.204851    11.00000    0.05769    0.05447 =
         0.06038    0.00106   -0.01302   -0.02651
AFIX  23
H11A  2   -0.242261    0.324279   -0.169766    11.00000   -1.20000
H11B  2   -0.004370    0.233645   -0.238066    11.00000   -1.20000
AFIX   0
C12   1   -0.063865    0.450340   -0.291944    11.00000    0.05846    0.04996 =
         0.06840    0.00650   -0.01624   -0.02185
AFIX  23
H12A  2   -0.097384    0.535159   -0.258344    11.00000   -1.20000
H12B  2    0.110310    0.439136   -0.333775    11.00000   -1.20000
AFIX   0
C13   1   -0.269374    0.472839   -0.366143    11.00000    0.06881    0.05402 =
         0.06996    0.00549   -0.01990   -0.01873
AFIX  23
H13A  2   -0.269772    0.561491   -0.416115    11.00000   -1.20000
H13B  2   -0.443460    0.483145   -0.324300    11.00000   -1.20000
AFIX   0
HKLF 4
REM  isq
REM R1 =  0.0688 for    1546 Fo > 4sig(Fo)  and  0.1134 for all    2746 data
REM    154 parameters refined using      0 restraints
END
WGHT      0.1011      0.0000
REM Highest difference peak  0.201,  deepest hole -0.513,  1-sigma level  0.063
Q1    1   0.5776 -0.1415  0.3750  11.00000  0.05    0.19
Q2    1   0.6617  0.4092  0.1224  11.00000  0.05    0.18
Q3    1   0.0425  0.4570 -0.5472  11.00000  0.05    0.18
Q4    1   0.3397 -0.1491  0.2433  11.00000  0.05    0.18
Q5    1   0.3519  0.3449  0.0226  11.00000  0.05    0.18
;
_shelx_res_checksum              86544
loop_
_space_group_symop_operation_xyz
'x, y, z'
'-x, -y, -z'
loop_
_atom_site_type_symbol
_atom_site_label
_atom_site_fract_x
_atom_site_fract_y
_atom_site_fract_z
_atom_site_U_iso_or_equiv
_atom_site_adp_type
_atom_site_calc_flag
_atom_site_occupancy
Cl Cl1 -0.2114(2) 0.32757(11) -0.44065(7) 0.0864(4) Uani d 1
O O1 0.2508(5) 0.3932(2) -0.12457(19) 0.0706(7) Uani d 1
N N1 0.2207(5) 0.0212(3) 0.10506(19) 0.0479(6) Uani d 1
N N2 0.1134(5) 0.1921(3) -0.04217(18) 0.0504(6) Uani d 1
H H2 0.0160 0.1372 -0.0488 0.060 Uiso calc 1
C C1 0.3335(6) -0.0247(3) 0.1944(3) 0.0544(8) Uani d 1
H H1 0.3133 -0.1125 0.2340 0.065 Uiso calc 1
C C2 0.4829(6) 0.0498(3) 0.2343(2) 0.0490(7) Uani d 1
C C3 0.5944(7) -0.0020(4) 0.3322(3) 0.0592(8) Uani d 1
H H3 0.5702 -0.0884 0.3731 0.071 Uiso calc 1
C C4 0.7372(7) 0.0742(4) 0.3668(3) 0.0668(9) Uani d 1
H H4 0.8106 0.0394 0.4309 0.080 Uiso calc 1
C C5 0.7737(7) 0.2064(4) 0.3051(3) 0.0617(9) Uani d 1
H H5 0.8722 0.2573 0.3291 0.074 Uiso calc 1
C C6 0.6667(6) 0.2599(3) 0.2112(3) 0.0554(8) Uani d 1
H H6 0.6923 0.3468 0.1717 0.066 Uiso calc 1
C C7 0.5160(6) 0.1831(3) 0.1737(2) 0.0477(7) Uani d 1
C C8 0.3925(6) 0.2331(3) 0.0787(2) 0.0497(7) Uani d 1
H H8 0.4076 0.3205 0.0369 0.060 Uiso calc 1
C C9 0.2501(5) 0.1512(3) 0.0488(2) 0.0446(7) Uani d 1
C C10 0.1164(6) 0.3077(3) -0.1209(2) 0.0485(7) Uani d 1
C C11 -0.0623(6) 0.3197(3) -0.2049(2) 0.0557(8) Uani d 1
H H11A -0.2423 0.3243 -0.1698 0.067 Uiso calc 1
H H11B -0.0044 0.2336 -0.2381 0.067 Uiso calc 1
C C12 -0.0639(6) 0.4503(3) -0.2919(3) 0.0585(8) Uani d 1
H H12A -0.0974 0.5352 -0.2583 0.070 Uiso calc 1
H H12B 0.1103 0.4391 -0.3338 0.070 Uiso calc 1
C C13 -0.2694(7) 0.4728(4) -0.3661(3) 0.0643(9) Uani d 1
H H13A -0.2698 0.5615 -0.4161 0.077 Uiso calc 1
H H13B -0.4435 0.4831 -0.3243 0.077 Uiso calc 1
loop_
_atom_site_aniso_label
_atom_site_aniso_U_11
_atom_site_aniso_U_22
_atom_site_aniso_U_33
_atom_site_aniso_U_12
_atom_site_aniso_U_13
_atom_site_aniso_U_23
Cl1 0.1257(10) 0.0752(7) 0.0648(6) -0.0301(6) -0.0284(6) -0.0042(5)
O1 0.0827(17) 0.0644(15) 0.0754(15) -0.0452(13) -0.0274(13) 0.0170(12)
N1 0.0511(14) 0.0387(13) 0.0539(14) -0.0145(11) -0.0064(11) -0.0026(10)
N2 0.0528(15) 0.0450(14) 0.0557(14) -0.0218(11) -0.0103(11) 0.0032(11)
C1 0.0579(19) 0.0437(17) 0.0635(19) -0.0212(14) -0.0089(15) 0.0002(13)
C2 0.0531(18) 0.0396(16) 0.0554(17) -0.0136(13) -0.0060(13) -0.0079(12)
C3 0.066(2) 0.0543(19) 0.0581(19) -0.0200(16) -0.0130(15) 0.0008(14)
C4 0.077(2) 0.067(2) 0.063(2) -0.0202(18) -0.0255(17) -0.0069(17)
C5 0.068(2) 0.057(2) 0.068(2) -0.0229(17) -0.0087(16) -0.0199(16)
C6 0.062(2) 0.0465(17) 0.0624(19) -0.0196(15) -0.0059(15) -0.0126(14)
C7 0.0435(16) 0.0436(16) 0.0571(17) -0.0128(13) -0.0006(13) -0.0120(13)
C8 0.0557(18) 0.0409(16) 0.0548(17) -0.0193(14) -0.0040(13) -0.0053(12)
C9 0.0443(16) 0.0397(15) 0.0485(15) -0.0135(12) 0.0003(12) -0.0047(11)
C10 0.0511(17) 0.0450(16) 0.0516(16) -0.0205(13) -0.0084(12) 0.0007(12)
C11 0.0577(19) 0.0545(18) 0.0604(18) -0.0265(15) -0.0130(14) 0.0011(14)
C12 0.058(2) 0.0500(18) 0.068(2) -0.0219(15) -0.0162(15) 0.0065(14)
C13 0.069(2) 0.0540(19) 0.070(2) -0.0187(17) -0.0199(17) 0.0055(15)
loop_
_atom_type_symbol
_atom_type_description
_atom_type_scat_dispersion_real
_atom_type_scat_dispersion_imag
_atom_type_scat_source
C C 0.0033 0.0016 'International Tables Vol C Tables 4.2.6.8 and 6.1.1.4'
H H 0.0000 0.0000 'International Tables Vol C Tables 4.2.6.8 and 6.1.1.4'
Cl Cl 0.1484 0.1585 'International Tables Vol C Tables 4.2.6.8 and 6.1.1.4'
N N 0.0061 0.0033 'International Tables Vol C Tables 4.2.6.8 and 6.1.1.4'
O O 0.0106 0.0060 'International Tables Vol C Tables 4.2.6.8 and 6.1.1.4'
loop_
_geom_angle_atom_site_label_1
_geom_angle_atom_site_label_2
_geom_angle_atom_site_label_3
_geom_angle
C1 N1 C9 116.6(2)
C10 N2 C9 128.0(2)
C10 N2 H2 116.0
C9 N2 H2 116.0
N1 C1 C2 124.9(3)
N1 C1 H1 117.5
C2 C1 H1 117.5
C1 C2 C7 117.7(3)
C1 C2 C3 122.9(3)
C7 C2 C3 119.5(3)
C4 C3 C2 120.4(3)
C4 C3 H3 119.8
C2 C3 H3 119.8
C3 C4 C5 120.1(3)
C3 C4 H4 120.0
C5 C4 H4 120.0
C6 C5 C4 121.0(3)
C6 C5 H5 119.5
C4 C5 H5 119.5
C5 C6 C7 120.1(3)
C5 C6 H6 120.0
C7 C6 H6 120.0
C8 C7 C2 117.4(3)
C8 C7 C6 123.6(3)
C2 C7 C6 119.0(3)
C9 C8 C7 119.4(3)
C9 C8 H8 120.3
C7 C8 H8 120.3
N1 C9 C8 124.0(3)
N1 C9 N2 111.8(2)
C8 C9 N2 124.2(3)
O1 C10 N2 123.8(3)
O1 C10 C11 123.0(2)
N2 C10 C11 113.2(2)
C10 C11 C12 113.4(2)
C10 C11 H11A 108.9
C12 C11 H11A 108.9
C10 C11 H11B 108.9
C12 C11 H11B 108.9
H11A C11 H11B 107.7
C13 C12 C11 113.1(3)
C13 C12 H12A 109.0
C11 C12 H12A 109.0
C13 C12 H12B 109.0
C11 C12 H12B 109.0
H12A C12 H12B 107.8
C12 C13 Cl1 112.8(2)
C12 C13 H13A 109.0
Cl1 C13 H13A 109.0
C12 C13 H13B 109.0
Cl1 C13 H13B 109.0
H13A C13 H13B 107.8
loop_
_geom_bond_atom_site_label_1
_geom_bond_atom_site_label_2
_geom_bond_distance
Cl1 C13 1.796(4)
O1 C10 1.222(3)
N1 C1 1.321(4)
N1 C9 1.366(3)
N2 C10 1.359(3)
N2 C9 1.407(4)
N2 H2 0.8600
C1 C2 1.415(4)
C1 H1 0.9300
C2 C7 1.417(4)
C2 C3 1.418(4)
C3 C4 1.364(4)
C3 H3 0.9300
C4 C5 1.418(5)
C4 H4 0.9300
C5 C6 1.363(5)
C5 H5 0.9300
C6 C7 1.420(4)
C6 H6 0.9300
C7 C8 1.415(4)
C8 C9 1.375(4)
C8 H8 0.9300
C10 C11 1.513(4)
C11 C12 1.520(4)
C11 H11A 0.9700
C11 H11B 0.9700
C12 C13 1.503(4)
C12 H12A 0.9700
C12 H12B 0.9700
C13 H13A 0.9700
C13 H13B 0.9700
loop_
_geom_hbond_atom_site_label_D
_geom_hbond_atom_site_label_H
_geom_hbond_atom_site_label_A
_geom_hbond_site_symmetry_A
_geom_hbond_distance_DH
_geom_hbond_distance_HA
_geom_hbond_distance_DA
_geom_hbond_angle_DHA
C8 H8 O1 . 0.93 2.27 2.863(4) 121
N2 H2 N1 2 0.86 2.50 3.348(4) 169
C6 H6 O1 2_665 0.93 2.58 3.475(4) 161
C11 H11A O1 1_455 0.97 2.56 3.503(4) 163
loop_
_geom_torsion_atom_site_label_1
_geom_torsion_atom_site_label_2
_geom_torsion_atom_site_label_3
_geom_torsion_atom_site_label_4
_geom_torsion
C9 N1 C1 C2 -0.8(5)
N1 C1 C2 C7 -0.5(5)
N1 C1 C2 C3 178.3(3)
C1 C2 C3 C4 179.9(3)
C7 C2 C3 C4 -1.3(5)
C2 C3 C4 C5 0.3(5)
C3 C4 C5 C6 0.4(6)
C4 C5 C6 C7 -0.1(5)
C1 C2 C7 C8 1.2(4)
C3 C2 C7 C8 -177.6(3)
C1 C2 C7 C6 -179.5(3)
C3 C2 C7 C6 1.6(4)
C5 C6 C7 C8 178.2(3)
C5 C6 C7 C2 -1.0(5)
C2 C7 C8 C9 -0.7(4)
C6 C7 C8 C9 -179.9(3)
C1 N1 C9 C8 1.4(4)
C1 N1 C9 N2 -177.6(2)
C7 C8 C9 N1 -0.7(4)
C7 C8 C9 N2 178.2(2)
C10 N2 C9 N1 -174.0(3)
C10 N2 C9 C8 7.0(5)
C9 N2 C10 O1 2.2(5)
C9 N2 C10 C11 -178.3(3)
O1 C10 C11 C12 -1.7(5)
N2 C10 C11 C12 178.9(3)
C10 C11 C12 C13 -172.0(3)
C11 C12 C13 Cl1 -63.1(4)

_cod_database_fobs_code 1543889
