#------------------------------------------------------------------------------
#$Date: 2016-06-17 04:46:18 +0300 (Fri, 17 Jun 2016) $
#$Revision: 183622 $
#$URL: file:///home/coder/svn-repositories/cod/cif/1/54/34/1543457.cif $
#------------------------------------------------------------------------------
#
# This file is available in the Crystallography Open Database (COD),
# http://www.crystallography.net/. The original data for this entry
# were provided by IUCr Journals, http://journals.iucr.org/.
#
# The file may be used within the scientific community so long as
# proper attribution is given to the journal article from which the
# data were obtained.
#
data_1543457
loop_
_publ_author_name
'Kharbach, Yassine'
'Haoudi, Amal'
'Capet, Fr\'ed\'eric'
'Mazzah, Ahmed'
'El Ammari, Lahcen'
_publ_section_title
;
 5-Bromo-1-methylindoline-2,3-dione
;
_journal_coeditor_code           SJ4033
_journal_issue                   5
_journal_name_full               IUCrData
_journal_page_first              x160792
_journal_paper_doi               10.1107/S2414314616007926
_journal_volume                  1
_journal_year                    2016
_chemical_formula_iupac          'C9 H6 Br N O2'
_chemical_formula_moiety         'C9 H6 Br N O2'
_chemical_formula_sum            'C9 H6 Br N O2'
_chemical_formula_weight         240.06
_chemical_name_systematic
;
5-Bromo-1-methylindoline-2,3-dione
;
_space_group_crystal_system      monoclinic
_space_group_IT_number           14
_space_group_name_Hall           '-P 2yn'
_space_group_name_H-M_alt        'P 1 21/n 1'
_symmetry_space_group_name_Hall  '-P 2yn'
_symmetry_space_group_name_H-M   'P 1 21/n 1'
_atom_sites_solution_hydrogens   geom
_audit_creation_method           SHELXL-2014/7
_cell_angle_alpha                90
_cell_angle_beta                 96.170(2)
_cell_angle_gamma                90
_cell_formula_units_Z            4
_cell_length_a                   4.06340(10)
_cell_length_b                   11.9235(3)
_cell_length_c                   18.0978(5)
_cell_measurement_reflns_used    2022
_cell_measurement_temperature    296(2)
_cell_measurement_theta_max      27.877
_cell_measurement_theta_min      3.417
_cell_volume                     871.76(4)
_computing_cell_refinement
;
SAINT (Bruker, 2009)
;
_computing_data_collection
;
APEX2 (Bruker, 2009)
;
_computing_data_reduction
;
SAINT (Bruker, 2009)
;
_computing_molecular_graphics
;
ORTEPIII (Burnett & Johnson, 1996) and ORTEP-3 for Windows (Farrugia,
2012)
;
_computing_publication_material
;
PLATON (Spek, 2009) and publCIF (Westrip, 2010)
;
_computing_structure_refinement
;
SHELXL2014 (Sheldrick, 2015b)
;
_computing_structure_solution
;
SHELXS2014 (Sheldrick, 2015a)
;
_diffrn_ambient_temperature      296(2)
_diffrn_measured_fraction_theta_full 0.978
_diffrn_measured_fraction_theta_max 0.972
_diffrn_measurement_device_type  'Bruker APEXII CCD'
_diffrn_measurement_method       '\f and \w scans'
_diffrn_radiation_source         'sealed tube'
_diffrn_radiation_type           MoK\a
_diffrn_radiation_wavelength     0.71073
_diffrn_reflns_av_R_equivalents  0.0413
_diffrn_reflns_limit_h_max       5
_diffrn_reflns_limit_h_min       -5
_diffrn_reflns_limit_k_max       15
_diffrn_reflns_limit_k_min       -15
_diffrn_reflns_limit_l_max       23
_diffrn_reflns_limit_l_min       -23
_diffrn_reflns_number            9696
_diffrn_reflns_theta_full        25.242
_diffrn_reflns_theta_max         27.877
_diffrn_reflns_theta_min         3.417
_exptl_absorpt_coefficient_mu    4.676
_exptl_absorpt_correction_T_max  0.7461
_exptl_absorpt_correction_T_min  0.4519
_exptl_absorpt_correction_type   multi-scan
_exptl_absorpt_process_details
;
(SADABS; Bruker, 2009)
;
_exptl_crystal_colour            orange
_exptl_crystal_density_diffrn    1.829
_exptl_crystal_description       sheet
_exptl_crystal_F_000             472
_exptl_crystal_size_max          0.566
_exptl_crystal_size_mid          0.222
_exptl_crystal_size_min          0.032
_refine_diff_density_max         0.553
_refine_diff_density_min         -0.344
_refine_ls_extinction_method     none
_refine_ls_goodness_of_fit_ref   1.073
_refine_ls_hydrogen_treatment    constr
_refine_ls_matrix_type           full
_refine_ls_number_parameters     119
_refine_ls_number_reflns         2022
_refine_ls_number_restraints     0
_refine_ls_restrained_S_all      1.073
_refine_ls_R_factor_all          0.0528
_refine_ls_R_factor_gt           0.0388
_refine_ls_shift/su_max          0.002
_refine_ls_shift/su_mean         0.000
_refine_ls_structure_factor_coef Fsqd
_refine_ls_weighting_details
'w=1/[\s^2^(Fo^2^)+(0.0386P)^2^+0.9585P] where P=(Fo^2^+2Fc^2^)/3'
_refine_ls_weighting_scheme      calc
_refine_ls_wR_factor_gt          0.0954
_refine_ls_wR_factor_ref         0.1017
_reflns_number_gt                1606
_reflns_number_total             2022
_reflns_threshold_expression     'I > 2\s(I)'
_cod_data_source_file            sj4033sup1.cif
_cod_data_source_block           I
_cod_database_code               1543457
_shelx_space_group_comment
;
The symmetry employed for this shelxl refinement is uniquely defined
by the following loop, which should always be used as a source of
symmetry information in preference to the above space-group names.
They are only intended as comments.
;
_shelx_estimated_absorpt_t_min   0.177
_shelx_estimated_absorpt_t_max   0.865
_shelx_hkl_file
;
  -1   0   0   -0.02    0.04
   1   0   0    0.09    0.04
  -1   0   0    0.02    0.02
  -1   0   0    0.00    0.04
  -2   0   0   45.41    1.93
  -2   0   0   46.02    2.46
   2   0   0   44.55    2.50
  -3   0   0   -0.03    0.13
  -3   0   0    0.03    0.06
   3   0   0    0.13    0.13
   4   0   0    5.93    0.49
  -4   0   0    6.32    0.50
   5   0   0   -0.10    0.27
  -5   0   0    0.10    0.31
   0  -1   0   -0.51    0.01
   0   1   0   -0.53    0.00
   0   1   0   -0.51    0.01
   1  -1   0    0.66    0.07
  -1  -1   0    0.99    0.06
  -1  -1   0    1.10    0.08
  -1   1   0    0.84    0.08
  -1   1   0    0.76    0.05
  -1   1   0    0.77    0.08
   1   1   0    0.84    0.08
  -2  -1   0   50.47    2.13
  -2  -1   0   51.70    2.72
   2  -1   0   48.80    2.76
   2   1   0   50.22    2.76
  -2   1   0   49.66    2.72
  -2   1   0   49.85    2.76
  -2   1   0   50.34    2.13
   3  -1   0    2.97    0.27
  -3  -1   0    2.95    0.18
  -3  -1   0    3.03    0.30
  -3   1   0    3.12    0.29
   3   1   0    3.24    0.29
  -3   1   0    3.31    0.28
  -3   1   0    2.83    0.16
  -4  -1   0    6.66    0.52
   4  -1   0    5.70    0.49
  -4   1   0    6.49    0.52
   4   1   0    6.63    0.51
   5  -1   0    0.66    0.29
  -5  -1   0    0.95    0.34
   5   1   0    0.81    0.30
  -5   1   0    0.92    0.33
   0  -2   0  352.68   18.02
   0   2   0  344.26   18.03
   0   2   0  335.78   18.61
   0   2   0  354.34   18.89
  -1  -2   0   61.25    2.59
  -1  -2   0   63.53    3.29
   1  -2   0   61.58    3.34
   1   2   0   62.00    3.34
  -1   2   0   57.50    3.34
  -1   2   0   61.60    3.29
   1   2   0   60.49    3.29
  -2  -2   0   17.87    0.99
   2  -2   0   18.48    1.00
  -2  -2   0   17.66    0.77
  -2   2   0   16.88    0.98
  -2   2   0   17.49    0.76
  -2   2   0   17.76    1.00
   3  -2   0   28.88    1.63
  -3  -2   0   29.71    1.62
  -3  -2   0   27.38    1.25
  -3   2   0   28.66    1.61
  -3   2   0   29.63    1.24
   3   2   0   28.52    1.64
  -3   2   0   30.02    1.64
  -4  -2   0    0.55    0.24
   4  -2   0    1.07    0.23
  -4   2   0    0.83    0.23
   4   2   0    0.99    0.24
  -5  -2   0   -0.39    0.31
  -5   2   0    0.12    0.31
   5   2   0    0.01    0.28
   0  -3   0    0.13    0.05
   0  -3   0    0.09    0.04
   0   3   0    0.08    0.04
   0   3   0    0.16    0.05
   1  -3   0  219.77   12.38
  -1  -3   0  233.12   12.22
  -1   3   0  230.86   12.21
  -1   3   0  222.94   12.38
   1   3   0  230.46   12.39
   1   3   0  227.03   12.20
  -2  -3   0    0.35    0.07
  -2  -3   0    0.41    0.11
   2  -3   0    0.32    0.08
  -2   3   0    0.42    0.10
   2   3   0    0.39    0.10
  -2   3   0    0.48    0.09
  -3  -3   0    0.59    0.17
   3  -3   0    0.75    0.14
   3   3   0    0.71    0.17
  -3   3   0    0.55    0.17
  -3   3   0    0.61    0.15
  -4  -3   0   -0.05    0.22
   4  -3   0    0.20    0.19
   4   3   0    0.37    0.22
  -4   3   0    0.07    0.23
  -4   3   0    0.08    0.21
  -5  -3   0    3.59    0.46
   5   3   0    2.73    0.39
   0  -4   0   54.65    2.75
   0   4   0   49.35    2.84
   0   4   0   53.92    2.88
   1  -4   0   52.26    2.80
  -1   4   0   52.20    2.67
  -1   4   0   53.79    2.81
   1   4   0   52.30    2.76
   1   4   0   53.24    2.81
  -1   4   0   43.39    2.75
  -2  -4   0    5.47    0.37
   2  -4   0    6.16    0.36
   2   4   0    5.69    0.37
  -2   4   0    5.22    0.36
  -2   4   0    5.73    0.35
  -3  -4   0   25.65    1.49
   3  -4   0   26.28    1.49
  -3   4   0   26.19    1.51
   3   4   0   27.80    1.51
  -4  -4   0   -0.01    0.23
   4  -4   0    0.28    0.19
  -4   4   0    0.01    0.20
   4   4   0    0.06    0.21
  -4   4   0    0.12    0.23
  -5  -4   0    0.46    0.35
   5   4   0   -0.03    0.28
   0  -5   0    0.11    0.07
   0  -5   0    0.04    0.06
   0   5   0    0.43    0.08
   0   5   0    0.11    0.06
   1  -5   0  125.79    7.16
   1   5   0  131.10    7.17
   1   5   0  128.48    7.06
  -1   5   0  137.45    7.05
  -1   5   0  132.60    7.17
  -1   5   0  133.08    6.83
   2  -5   0   36.15    2.01
  -2  -5   0   36.22    1.99
   2   5   0   35.68    2.02
  -2   5   0   36.64    2.02
  -2   5   0   36.80    1.97
   3  -5   0    0.61    0.15
  -3  -5   0    0.60    0.18
  -3   5   0    0.52    0.17
   3   5   0    0.64    0.17
  -3   5   0    0.55    0.14
  -4  -5   0    4.61    0.46
   4   5   0    5.39    0.47
  -4   5   0    5.16    0.50
  -5  -5   0    0.66    0.37
   5   5   0    0.73    0.32
   0  -6   0   84.17    5.19
   0   6   0  105.96    5.19
   0   6   0   94.82    5.11
  -1  -6   0    3.13    0.23
   1  -6   0    2.83    0.19
   1   6   0    2.79    0.22
   1   6   0    2.96    0.21
  -1   6   0    3.26    0.22
  -1   6   0    2.74    0.23
  -1   6   0    2.82    0.21
   2  -6   0   26.29    1.44
  -2  -6   0   24.58    1.44
  -2   6   0   26.67    1.46
   2   6   0   25.84    1.46
  -2   6   0   27.54    1.42
   2   6   0   23.96    1.44
  -2   6   0   26.05    1.38
  -3  -6   0    1.31    0.23
   3  -6   0    1.44    0.19
  -3   6   0    1.86    0.24
  -3   6   0    1.70    0.19
   3   6   0    1.43    0.21
  -4  -6   0    0.40    0.27
  -4   6   0    0.30    0.26
   4   6   0    0.59    0.24
  -5  -6   0   -0.16    0.34
   5   6   0    0.34    0.31
  -5   6   0    0.27    0.36
   0  -7   0   -0.19    0.08
   0   7   0   -0.02    0.08
   0   7   0   -0.10    0.09
   1  -7   0    0.82    0.10
   1   7   0    0.84    0.13
  -1   7   0    0.69    0.14
  -1   7   0    0.85    0.13
  -1   7   0    1.02    0.12
   1   7   0    0.86    0.13
   2  -7   0   41.28    2.30
  -2  -7   0   40.97    2.29
  -2   7   0   41.17    2.20
  -2   7   0   44.69    2.27
   2   7   0   42.28    2.32
   2   7   0   39.63    2.29
  -2   7   0   41.47    2.32
   3  -7   0    2.62    0.27
  -3  -7   0    3.16    0.32
  -3   7   0    2.91    0.30
  -3   7   0    2.60    0.26
  -3   7   0    2.77    0.28
   3   7   0    2.82    0.30
  -4  -7   0    3.51    0.42
  -4   7   0    3.32    0.39
   4   7   0    3.02    0.37
  -5  -7   0    0.42    0.39
   5   7   0    0.22    0.32
  -5   7   0   -0.07    0.36
   0  -8   0   12.21    0.76
   0   8   0   13.31    0.77
   0   8   0   14.19    0.77
  -1  -8   0    7.29    0.52
   1  -8   0    8.20    0.47
   1   8   0    8.75    0.50
  -1   8   0    6.93    0.50
  -1   8   0    8.44    0.48
  -1   8   0    7.73    0.51
   1   8   0    8.33    0.50
   2  -8   0    3.76    0.29
  -2  -8   0    4.37    0.35
  -2  -8   0    5.33    0.38
  -2   8   0    3.99    0.32
  -2   8   0    4.55    0.35
  -2   8   0    4.24    0.31
   2   8   0    4.04    0.35
   2   8   0    4.14    0.35
  -3  -8   0    4.41    0.41
  -3   8   0    3.98    0.32
   3   8   0    4.20    0.38
  -3   8   0    4.07    0.40
  -4  -8   0    0.18    0.30
   4   8   0    0.03    0.25
  -4   8   0    0.31    0.28
  -5  -8   0    0.36    0.41
  -5   8   0    0.12    0.38
   5   8   0    0.54    0.34
   0  -9   0    0.05    0.11
   0   9   0    0.08    0.13
   0   9   0    0.08    0.13
   1  -9   0   48.62    2.70
  -1   9   0   50.20    2.74
  -1   9   0   51.70    2.60
   1   9   0   50.72    2.72
   1   9   0   47.02    2.68
  -1   9   0   46.57    2.69
  -2  -9   0    3.82    0.36
  -2  -9   0    4.31    0.39
   2   9   0    3.79    0.36
  -2   9   0    5.19    0.38
   2   9   0    3.96    0.37
  -2   9   0    4.12    0.32
  -2   9   0    3.78    0.34
  -3  -9   0    1.44    0.29
   3   9   0    1.50    0.26
  -3   9   0    1.86    0.28
  -3   9   0    1.37    0.20
  -4  -9   0    0.44    0.34
  -4   9   0    0.71    0.31
   4   9   0    0.55    0.28
   0 -10   0   11.39    0.69
   0  10   0   11.82    0.71
   0  10   0   11.52    0.70
  -1 -10   0   10.33    0.69
   1 -10   0   10.20    0.61
  -1  10   0   11.25    0.68
   1  10   0   10.28    0.65
   1  10   0   10.24    0.66
  -1  10   0   10.40    0.66
  -2 -10   0    1.29    0.26
  -2 -10   0    0.89    0.22
   2  10   0    1.15    0.22
   2  10   0    1.10    0.23
  -2  10   0    1.02    0.18
  -2  10   0    1.33    0.24
  -3 -10   0    6.03    0.56
  -3 -10   0    5.64    0.55
  -3  10   0    5.38    0.42
  -3  10   0    6.84    0.53
   3  10   0    5.90    0.52
  -4 -10   0   -0.23    0.35
   4  10   0   -0.19    0.27
  -4  10   0   -0.07    0.31
   0 -11   0   -0.03    0.13
   0  11   0    0.18    0.17
   0  11   0   -0.05    0.17
  -1 -11   0    8.53    0.57
   1  11   0    7.48    0.53
  -1  11   0    7.36    0.55
   1  11   0    7.13    0.54
  -2 -11   0    2.04    0.29
  -2 -11   0    1.68    0.30
  -2  11   0    1.47    0.29
   2  11   0    1.71    0.28
  -2  11   0    1.85    0.23
   2  11   0    1.50    0.26
  -3 -11   0    1.35    0.35
  -3 -11   0    0.98    0.31
  -3  11   0    1.05    0.29
   3  11   0    1.10    0.28
  -4 -11   0   -0.40    0.33
  -4 -11   0    0.06    0.38
  -4  11   0    0.46    0.34
   4  11   0   -0.02    0.32
   0  12   0   10.68    0.66
   0  12   0    9.67    0.69
  -1 -12   0    4.04    0.42
   1  12   0    3.99    0.38
   1  12   0    4.45    0.40
  -1  12   0    4.47    0.41
  -2 -12   0    1.28    0.30
  -2 -12   0    1.40    0.28
   2  12   0    1.06    0.28
   2  12   0    1.21    0.29
  -3 -12   0    0.82    0.36
  -3 -12   0    0.73    0.34
  -3  12   0    1.66    0.34
   3  12   0    0.78    0.30
  -4 -12   0    0.43    0.38
  -4 -12   0    0.61    0.43
  -4  12   0    0.91    0.40
   4  12   0    0.73    0.36
   0  13   0    0.09    0.24
   1  13   0   -0.20    0.24
   1  13   0    0.29    0.22
  -1  13   0    0.24    0.27
  -2 -13   0    0.53    0.30
  -2 -13   0    1.04    0.30
  -2  13   0   -0.40    0.27
   2  13   0    1.16    0.31
   2  13   0    0.71    0.29
  -3 -13   0    0.62    0.34
  -3 -13   0   -0.28    0.36
   3  13   0   -0.02    0.32
  -3  13   0    0.70    0.33
   0  14   0    5.43    0.55
  -1 -14   0    0.18    0.27
  -1  14   0   -0.19    0.27
   1  14   0   -0.07    0.28
  -2 -14   0    0.00    0.33
  -2  14   0   -0.48    0.30
   2  14   0    1.08    0.34
   2  14   0    0.63    0.32
  -3 -14   0    0.55    0.42
  -3  14   0    1.30    0.39
   3  14   0    0.25    0.36
   0  15   0    0.20    0.31
  -1 -15   0    0.44    0.31
   1  15   0    0.85    0.34
  -1  15   0    0.49    0.32
  -2 -15   0    0.21    0.36
   2  15   0    0.47    0.37
  -2  15   0    0.06    0.35
   0  16   0   -0.09    0.33
  -1 -16   0    0.14    0.33
  -1  16   0    0.11    0.34
   1  16   0    0.19    0.36
   0 -17   0    0.16    0.30
   0  17   0    0.30    0.39
  -5   0   1    4.93    0.52
   5   0  -1    4.99    0.49
  -4   0   1   -0.17    0.20
   4   0  -1   -0.15    0.19
   3   0  -1   18.33    1.03
  -3   0   1   17.26    0.77
  -3   0   1   17.81    1.02
  -2   0   1    0.07    0.08
  -2   0   1    0.07    0.09
   2   0  -1   -0.01    0.08
  -2   0   1    0.02    0.05
  -1   0   1    6.35    0.28
  -1   0   1    6.48    0.37
  -1   0   1    6.45    0.36
   1   0  -1    5.91    0.37
   1   0   1  249.76   12.87
  -1   0  -1  236.01    9.98
  -1   0  -1  221.90   12.68
  -2   0  -1   -0.01    0.04
  -2   0  -1    0.02    0.08
   2   0   1   -0.06    0.07
   3   0   1   36.27    2.05
  -3   0  -1   37.32    2.03
   4   0   1   -0.15    0.19
  -4   0  -1   -0.15    0.20
   5   0   1    1.24    0.31
  -5   0  -1    1.57    0.35
   5  -1  -1    0.05    0.28
  -5  -1   1    0.09    0.31
   5   1  -1   -0.04    0.28
  -5   1   1   -0.01    0.31
   4  -1  -1    1.78    0.27
  -4  -1   1    1.57    0.28
  -4   1   1    1.67    0.27
   4   1  -1    1.90    0.28
  -3  -1   1   20.90    0.91
  -3  -1   1   20.30    1.20
   3  -1  -1   21.93    1.20
  -3   1   1   20.91    0.91
  -3   1   1   19.85    1.21
   3   1  -1   21.90    1.21
  -3   1   1   21.30    1.19
  -2  -1   1    0.13    0.09
   2  -1  -1    0.08    0.07
  -2  -1   1    0.03    0.05
  -2   1   1    0.06    0.09
  -2   1   1   -0.05    0.07
   2   1  -1   -0.02    0.08
  -2   1   1    0.09    0.05
  -1  -1   1   58.55    2.41
   1  -1  -1   56.86    3.11
  -1   1   1   56.93    2.41
  -1   1   1   56.37    3.06
  -1   1   1   55.56    3.11
   0  -1   1   -0.03    0.00
   0  -1   1   -0.03    0.00
   0   1   1   -0.01    0.01
   0   1  -1   -0.03    0.00
   0   1  -1   -0.04    0.00
   1  -1   1   13.18    0.75
  -1  -1  -1   14.73    0.74
  -1   1  -1   13.40    0.75
  -1   1  -1   12.96    0.74
   1   1   1   13.33    0.75
  -2  -1  -1   11.04    0.50
   2  -1   1   11.56    0.66
  -2  -1  -1   11.50    0.66
   2   1   1   11.46    0.66
  -2   1  -1   12.07    0.67
  -2   1  -1   11.10    0.65
   3  -1   1   35.14    1.87
  -3  -1  -1   32.43    1.85
  -3   1  -1   34.47    1.85
   3   1   1   31.77    1.87
   4  -1   1    0.18    0.20
  -4  -1  -1    0.22    0.22
  -4   1  -1    0.18    0.20
   4   1   1   -0.07    0.19
  -5  -1  -1    2.10    0.39
   5   1   1    1.93    0.34
  -5   1  -1    2.60    0.39
  -5  -2   1    1.40    0.38
   5  -2  -1    1.43    0.33
  -5   2   1    2.00    0.37
   5   2  -1    1.72    0.34
  -4  -2   1    4.48    0.42
   4  -2  -1    4.48    0.41
  -4   2   1    4.38    0.40
  -3  -2   1    0.76    0.10
   3  -2  -1    0.74    0.15
  -3  -2   1    0.68    0.17
  -3   2   1    0.50    0.08
  -3   2   1    0.70    0.17
   3   2  -1    0.51    0.16
  -3   2   1    0.53    0.14
  -2  -2   1   41.39    1.76
  -2  -2   1   40.64    2.25
   2  -2  -1   40.48    2.27
   2   2  -1   42.45    2.28
  -2   2   1   40.20    2.28
  -2   2   1   42.35    2.24
  -2   2   1   41.09    1.76
  -1  -2   1   12.92    0.55
   1  -2  -1   12.78    0.70
  -1   2   1   12.57    0.69
   1   2  -1   12.48    0.71
  -1   2   1   12.34    0.71
   0  -2   1   96.24    3.89
   0  -2   1   95.05    4.78
   0  -2   1   97.50    5.00
   0   2   1   91.34    5.00
   0   2  -1   92.37    5.00
   0   2   1   77.65    4.93
   0   2  -1   92.71    4.78
  -1  -2  -1   53.80    2.86
   1  -2   1   54.16    2.90
  -1   2  -1   51.58    2.85
   1   2   1   52.54    2.86
   1   2   1   54.66    2.90
  -1   2  -1   51.82    2.90
  -2  -2  -1   28.93    1.59
   2  -2   1   28.59    1.60
   2   2   1   29.90    1.60
  -2   2  -1   27.98    1.57
  -2   2  -1   28.79    1.60
  -3  -2  -1   12.77    0.78
   3  -2   1   13.25    0.77
   3   2   1   12.99    0.78
  -3   2  -1   13.09    0.77
  -3   2  -1   13.03    0.79
  -4  -2  -1   13.14    0.89
   4  -2   1   15.41    0.87
  -4   2  -1   14.15    0.87
   4   2   1   13.14    0.87
  -5  -2  -1    1.27    0.36
   5   2   1    0.81    0.31
  -5  -3   1    1.45    0.38
   5   3  -1    1.05    0.32
  -5   3   1    1.47    0.35
   4  -3  -1   10.84    0.69
  -4  -3   1   10.20    0.71
  -4   3   1   10.16    0.72
   4   3  -1   10.44    0.71
  -3  -3   1   -0.01    0.14
  -3  -3   1    0.00    0.09
   3  -3  -1   -0.02    0.12
   3   3  -1    0.02    0.14
  -3   3   1    0.27    0.15
  -3   3   1    0.11    0.13
  -3   3   1    0.02    0.07
  -2  -3   1    9.35    0.43
  -2  -3   1    9.47    0.56
   2  -3  -1    9.54    0.55
  -2   3   1    8.96    0.56
  -2   3   1    9.72    0.54
   2   3  -1    9.20    0.56
   1  -3  -1    1.65    0.12
  -1  -3   1    1.65    0.11
  -1   3   1    1.83    0.12
   1   3  -1    1.52    0.13
   1   3  -1    1.66    0.14
  -1   3   1    1.67    0.12
  -1   3   1    1.85    0.13
   0  -3   1  230.31   13.22
   0  -3  -1  212.05   13.24
   0  -3  -1  255.53   12.63
   0   3  -1  243.82   12.62
   0   3   1  249.36   13.22
   0   3  -1  277.96   13.02
   0   3  -1  248.93   13.21
   0   3   1  221.80   13.02
   1  -3   1    1.45    0.10
   1   3   1    1.29    0.12
   1   3   1    1.43    0.12
  -1   3  -1    1.32    0.10
  -1   3  -1    1.54    0.11
  -2  -3  -1   71.94    3.80
   2  -3   1   72.93    3.84
  -2   3  -1   68.59    3.85
   2   3   1   70.17    3.85
  -2   3  -1   67.09    3.78
   3  -3   1    3.47    0.27
  -3  -3  -1    2.92    0.29
  -3   3  -1    3.32    0.28
   3   3   1    3.46    0.30
  -3   3  -1    3.23    0.31
  -4  -3  -1    0.10    0.23
   4  -3   1    0.20    0.19
   4   3   1    0.08    0.21
  -4   3  -1    0.18    0.20
  -4   3  -1    0.38    0.24
  -5  -3  -1    0.02    0.32
   5   3   1   -0.07    0.27
  -5  -4   1    0.06    0.34
   5   4  -1    0.48    0.31
   4  -4  -1    5.24    0.44
  -4  -4   1    5.05    0.47
   4   4  -1    4.89    0.47
  -4   4   1    5.32    0.46
  -4   4   1    5.04    0.49
  -3  -4   1    0.88    0.19
  -3  -4   1    1.06    0.13
   3  -4  -1    1.06    0.17
  -3   4   1    1.10    0.19
  -3   4   1    1.01    0.10
  -3   4   1    1.15    0.17
   3   4  -1    1.11    0.19
  -2  -4   1   74.69    3.18
   2  -4  -1   74.67    4.10
  -2  -4   1   72.74    4.04
  -2   4   1   75.40    4.03
   2   4  -1   75.24    4.10
  -2   4   1   75.57    4.10
   1  -4  -1   14.15    0.85
  -1  -4   1   15.43    0.84
  -1  -4   1   15.21    0.67
  -1   4   1   15.97    0.86
   1   4  -1   15.68    0.86
  -1   4   1   15.79    0.84
  -1   4   1   15.20    0.81
   1   4  -1   14.28    0.84
   0  -4  -1   12.96    0.80
   0  -4  -1   14.95    0.76
   0  -4   1   13.46    0.79
   0   4  -1   14.58    0.78
   0   4   1   14.27    0.79
   0   4  -1   14.72    0.76
   0   4  -1   14.78    0.78
   0   4   1   13.04    0.79
  -1   4  -1    8.11    0.46
  -1   4  -1    8.06    0.46
  -1   4  -1    8.56    0.47
   1   4   1    8.03    0.48
   1   4   1    8.35    0.47
  -2  -4  -1    3.75    0.28
   2  -4   1    4.00    0.25
   2   4   1    3.85    0.28
  -2   4  -1    3.76    0.25
  -2   4  -1    3.70    0.27
   3  -4   1    0.23    0.12
  -3  -4  -1    0.32    0.16
   3   4   1    0.64    0.16
  -3   4  -1    0.38    0.16
  -3   4  -1    0.27    0.13
  -4  -4  -1   13.09    0.90
  -4   4  -1   14.18    0.91
  -4   4  -1   14.22    0.87
   4   4   1   14.53    0.89
  -5  -4  -1   -0.27    0.33
   5   4   1   -0.22    0.28
  -5  -5   1    0.48    0.37
  -5   5   1    0.49    0.36
   5   5  -1    0.60    0.31
  -4  -5   1    3.74    0.40
   4  -5  -1    3.28    0.33
  -4   5   1    3.69    0.34
   4   5  -1    3.19    0.36
  -4   5   1    3.80    0.39
   3  -5  -1    5.31    0.37
  -3  -5   1    4.70    0.41
  -3   5   1    5.34    0.37
  -3   5   1    5.04    0.40
   3   5  -1    5.07    0.40
  -2  -5   1    1.79    0.18
   2  -5  -1    1.62    0.17
   2   5  -1    1.92    0.19
  -2   5   1    1.62    0.16
  -2   5   1    1.82    0.18
  -2   5   1    1.60    0.16
   1  -5  -1   55.15    3.16
  -1  -5   1   58.78    3.12
   1   5  -1   56.05    3.12
   1   5  -1   58.55    3.17
  -1   5   1   58.15    3.02
  -1   5   1   57.21    3.17
  -1   5   1   60.76    3.12
   0  -5   1   11.19    0.59
   0  -5   1    9.08    0.61
   0  -5  -1   10.62    0.62
   0  -5  -1   11.34    0.59
   0   5   1    9.31    0.61
   0   5  -1   11.24    0.61
   0   5  -1   10.97    0.59
   0   5   1   11.37    0.61
   0   5  -1   11.29    0.60
   1  -5   1    1.90    0.14
   1   5   1    2.13    0.17
  -1   5  -1    2.32    0.17
  -1   5  -1    2.14    0.15
  -1   5  -1    1.99    0.16
  -2  -5  -1    4.32    0.31
   2  -5   1    4.29    0.27
  -2   5  -1    4.20    0.30
  -2   5  -1    4.15    0.27
   2   5   1    3.75    0.30
   2   5   1    4.60    0.31
  -3  -5  -1   17.69    1.08
   3  -5   1   19.66    1.07
  -3   5  -1   18.84    1.09
  -3   5  -1   18.00    1.05
   3   5   1   18.83    1.09
  -4  -5  -1    0.91    0.27
   4   5   1    0.88    0.25
  -4   5  -1    0.79    0.27
  -5  -5  -1    1.49    0.39
   5   5   1    1.53    0.34
  -5  -6   1    1.51    0.42
  -5   6   1    1.68    0.41
   5   6  -1    1.34    0.35
  -4  -6   1    0.43    0.26
  -4   6   1    0.37    0.26
   4   6  -1    0.25    0.23
  -3  -6   1    3.49    0.33
   3  -6  -1    3.25    0.30
  -3   6   1    3.76    0.30
   3   6  -1    3.74    0.34
  -3   6   1    3.34    0.34
  -3   6   1    3.40    0.27
  -2  -6   1    7.09    0.47
   2  -6  -1    7.18    0.45
   2   6  -1    7.02    0.47
  -2   6   1    8.14    0.45
  -2   6   1    6.89    0.43
  -2   6   1    8.01    0.47
   1  -6  -1   15.33    0.86
  -1  -6   1   15.48    0.87
  -1   6   1   15.64    0.83
  -1   6   1   15.59    0.86
   1   6  -1   15.12    0.87
  -1   6   1   14.49    0.88
   1   6  -1   15.18    0.85
   0  -6  -1    0.58    0.11
   0  -6   1    0.24    0.08
   0   6  -1    0.23    0.08
   0   6   1    0.31    0.09
   0   6  -1    0.28    0.07
   1  -6   1  100.47    5.69
  -1  -6  -1  108.85    5.71
  -1   6  -1  106.94    5.44
   1   6   1  102.75    5.62
  -1   6  -1   97.43    5.70
  -1   6  -1  107.11    5.61
   1   6   1  107.22    5.71
  -2  -6  -1    0.45    0.14
   2  -6   1    0.62    0.10
   2   6   1    0.87    0.15
  -2   6  -1    0.69    0.12
   2   6   1    0.57    0.14
  -2   6  -1    0.62    0.11
  -2   6  -1    0.86    0.14
  -3  -6  -1    4.31    0.41
   3  -6   1    4.68    0.33
   3   6   1    4.92    0.39
  -3   6  -1    4.79    0.39
  -3   6  -1    4.71    0.34
  -4  -6  -1    1.54    0.31
   4   6   1    1.15    0.27
  -4   6  -1    1.13    0.29
  -5  -6  -1    0.46    0.37
   5   6   1    0.05    0.31
  -5   6  -1    0.79    0.38
  -5  -7   1    0.52    0.38
   5   7  -1   -0.43    0.31
  -5   7   1    0.13    0.37
  -4  -7   1   -0.02    0.27
  -4   7   1    0.23    0.27
   4   7  -1    0.20    0.23
   3  -7  -1    4.54    0.34
  -3  -7   1    3.77    0.40
  -3   7   1    4.45    0.40
  -3   7   1    3.98    0.31
   3   7  -1    4.17    0.38
  -3   7   1    4.69    0.36
   2  -7  -1    1.30    0.15
  -2  -7   1    1.12    0.18
  -2   7   1    1.27    0.16
   2   7  -1    1.31    0.18
   2   7  -1    1.13    0.17
  -2   7   1    1.61    0.19
  -2   7   1    1.23    0.15
   1  -7  -1   66.18    3.40
  -1  -7   1   63.38    3.41
  -1   7   1   55.94    3.41
  -1   7   1   60.24    3.36
   1   7  -1   62.68    3.41
   1   7  -1   60.59    3.35
  -1   7   1   64.75    3.25
   0  -7  -1    0.16    0.10
   0  -7   1    0.12    0.08
   0   7  -1    0.05    0.08
   0   7   1    0.33    0.10
   0   7   1    0.36    0.11
   0   7  -1    0.35    0.10
  -1  -7  -1   -0.04    0.12
   1  -7   1    0.07    0.06
  -1   7  -1   -0.04    0.09
   1   7   1    0.12    0.10
  -1   7  -1   -0.15    0.11
  -1   7  -1    0.01    0.09
   1   7   1    0.12    0.10
  -2  -7  -1    1.14    0.18
   2  -7   1    1.15    0.13
  -2   7  -1    1.10    0.14
  -2   7  -1    1.08    0.15
   2   7   1    1.32    0.18
  -2   7  -1    1.44    0.17
   2   7   1    1.20    0.18
  -3  -7  -1   22.33    1.28
  -3   7  -1   21.91    1.28
   3   7   1   22.32    1.28
  -3   7  -1   21.27    1.20
  -4  -7  -1    0.01    0.27
   4   7   1    0.31    0.24
  -4   7  -1   -0.13    0.25
  -5  -7  -1    2.50    0.46
  -5   7  -1    2.36    0.44
   5   7   1    1.85    0.38
  -5  -8   1    0.74    0.41
  -5   8   1    0.77    0.40
   5   8  -1    0.34    0.34
  -4  -8   1    0.24    0.30
   4   8  -1    0.25    0.25
  -4   8   1    0.19    0.28
  -3  -8   1   -0.08    0.20
  -3   8   1    0.13    0.13
  -3   8   1    0.10    0.17
   3   8  -1    0.07    0.18
  -3   8   1    0.20    0.20
  -2  -8   1   14.03    0.86
   2  -8  -1   14.27    0.84
  -2  -8   1   15.23    0.87
   2   8  -1   14.42    0.86
  -2   8   1   14.00    0.80
   2   8  -1   14.74    0.86
  -2   8   1   15.04    0.87
  -2   8   1   14.15    0.84
  -1  -8   1    2.87    0.30
   1  -8  -1    3.69    0.25
   1   8  -1    3.27    0.26
  -1   8   1    2.92    0.30
  -1   8   1    2.81    0.28
  -1   8   1    3.74    0.27
   1   8  -1    3.79    0.28
   0  -8   1    3.85    0.26
   0  -8  -1    3.93    0.29
   0   8  -1    2.69    0.27
   0   8   1    3.78    0.29
   0   8   1    3.84    0.29
   0   8  -1    4.00    0.27
  -1  -8  -1    7.33    0.53
   1  -8   1    8.22    0.46
   1   8   1    8.56    0.50
  -1   8  -1    6.44    0.49
   1   8   1    8.49    0.50
  -1   8  -1    8.00    0.51
  -1   8  -1    8.22    0.48
  -2  -8  -1    2.32    0.24
   2  -8   1    1.65    0.17
  -2  -8  -1    1.87    0.23
   2   8   1    1.63    0.22
   2   8   1    1.85    0.22
  -2   8  -1    1.85    0.19
  -2   8  -1    2.18    0.22
  -2   8  -1    1.81    0.19
  -3  -8  -1    2.15    0.30
  -3   8  -1    2.52    0.28
   3   8   1    1.95    0.27
  -3   8  -1    1.92    0.22
  -4  -8  -1    1.40    0.36
   4   8   1    1.32    0.29
  -4   8  -1    1.57    0.32
  -5  -8  -1   -0.09    0.40
   5   8   1    0.32    0.34
  -5   8  -1    0.56    0.39
  -4  -9   1    2.86    0.43
  -4   9   1    2.25    0.38
   4   9  -1    1.93    0.34
  -3  -9   1    2.56    0.33
  -3   9   1    3.12    0.34
   3   9  -1    2.56    0.30
  -3   9   1    2.76    0.25
  -2  -9   1    1.14    0.21
   2  -9  -1    1.01    0.15
  -2  -9   1    1.25    0.21
  -2   9   1    0.94    0.19
   2   9  -1    1.01    0.20
   2   9  -1    1.20    0.20
  -2   9   1    1.20    0.22
  -2   9   1    0.89    0.16
   1  -9  -1   10.64    0.62
  -1   9   1    8.86    0.65
   1   9  -1   11.30    0.65
  -1   9   1   10.96    0.67
   1   9  -1   10.79    0.63
   0  -9   1   16.81    1.01
   0  -9  -1   17.82    1.03
   0   9   1   18.37    1.04
   0   9   1   18.12    1.03
   0   9  -1   17.70    1.01
   0   9  -1   18.67    1.03
   1  -9   1    2.00    0.17
  -1  -9  -1    2.12    0.25
   1   9   1    2.08    0.22
  -1   9  -1    1.67    0.21
   1   9   1    2.02    0.22
  -1   9  -1    2.04    0.20
  -1   9  -1    1.73    0.23
  -2  -9  -1   16.81    1.03
  -2  -9  -1   17.90    1.04
   2   9   1   16.91    1.03
  -2   9  -1   18.45    1.03
  -2   9  -1   16.81    0.97
   2   9   1   17.29    1.03
  -3  -9  -1    0.95    0.26
  -3   9  -1    0.91    0.24
   3   9   1    1.04    0.24
  -3   9  -1    0.88    0.18
  -4  -9  -1    0.09    0.33
   4   9   1   -0.38    0.26
  -4   9  -1    0.24    0.29
  -4 -10   1    0.29    0.35
   4  10  -1    0.21    0.29
  -4  10   1    0.56    0.34
  -3 -10   1    0.35    0.26
  -3 -10   1    0.24    0.26
  -3  10   1    1.04    0.28
   3  10  -1    0.39    0.23
  -2 -10   1    5.84    0.52
  -2 -10   1    5.93    0.49
  -2  10   1    6.04    0.50
  -2  10   1    6.92    0.44
   2  10  -1    6.65    0.49
   2  10  -1    6.59    0.49
   1 -10  -1    1.83    0.19
  -1 -10   1    2.02    0.25
   1  10  -1    1.77    0.23
  -1  10   1    1.57    0.25
  -1  10   1    1.81    0.24
   1  10  -1    2.00    0.22
   0 -10   1   10.57    0.67
   0 -10  -1   11.69    0.69
   0  10  -1   11.58    0.69
   0  10   1   11.62    0.70
   0  10   1   10.94    0.71
   0  10  -1   12.23    0.70
  -1 -10  -1    3.12    0.32
  -1  10  -1    2.89    0.26
  -1  10  -1    2.76    0.28
   1  10   1    2.93    0.28
  -1  10  -1    2.82    0.29
   1  10   1    2.97    0.29
  -2 -10  -1    3.88    0.38
  -2 -10  -1    3.60    0.38
   2  10   1    3.43    0.34
   2  10   1    3.98    0.39
  -2  10  -1    3.99    0.37
  -2  10  -1    3.33    0.32
  -3 -10  -1    0.39    0.26
  -3 -10  -1    0.31    0.27
  -3  10  -1    0.37    0.23
  -3  10  -1    0.16    0.17
   3  10   1    0.14    0.22
  -4 -10  -1    2.69    0.48
  -4  10  -1    3.35    0.43
   4  10   1    3.16    0.42
  -4 -11   1    0.54    0.39
  -4 -11   1   -0.64    0.32
  -4  11   1    0.24    0.36
   4  11  -1    0.39    0.32
  -3 -11   1    0.42    0.28
  -3 -11   1    0.56    0.30
  -3  11   1    1.23    0.31
   3  11  -1    0.27    0.26
  -2 -11   1    0.48    0.24
  -2 -11   1    0.02    0.21
   2  11  -1    0.24    0.21
  -2  11   1    0.01    0.23
   2  11  -1    0.16    0.20
   1 -11  -1    0.32    0.13
  -1 -11   1    0.20    0.19
   1  11  -1    0.43    0.19
   1  11  -1    0.17    0.16
  -1  11   1    0.14    0.21
  -1  11   1    0.36    0.19
   0 -11  -1    2.38    0.25
   0 -11   1    2.58    0.23
   0  11  -1    2.53    0.26
   0  11   1    2.68    0.29
   0  11  -1    2.49    0.27
   0  11   1    2.54    0.27
  -1 -11  -1    2.89    0.32
  -1  11  -1    3.10    0.32
   1  11   1    2.68    0.30
   1  11   1    2.77    0.30
  -2 -11  -1    5.99    0.51
  -2 -11  -1    5.31    0.54
   2  11   1    6.53    0.52
  -2  11  -1    5.05    0.48
  -2  11  -1    5.89    0.42
   2  11   1    5.59    0.50
  -3 -11  -1    1.45    0.36
  -3 -11  -1    1.50    0.34
   3  11   1    1.21    0.29
  -3  11  -1    1.83    0.31
  -3  11  -1    0.86    0.21
  -4 -11  -1    0.12    0.40
  -4 -11  -1   -0.27    0.34
   4  11   1    0.39    0.33
  -4  11  -1    0.22    0.34
  -4 -12   1    0.20    0.35
  -4 -12   1    0.39    0.43
  -4  12   1    0.74    0.41
   4  12  -1   -0.11    0.34
  -3 -12   1    1.60    0.36
  -3 -12   1    1.69    0.39
  -3  12   1    3.02    0.40
   3  12  -1    1.67    0.33
  -2 -12   1    0.62    0.24
  -2 -12   1   -0.21    0.23
  -2  12   1   -0.43    0.25
   2  12  -1    0.03    0.22
   2  12  -1    0.06    0.23
  -1 -12   1    5.06    0.44
  -1 -12   1    4.75    0.43
   1  12  -1    4.75    0.41
  -1  12   1    4.81    0.47
   1  12  -1    5.25    0.45
   0 -12  -1    2.69    0.27
   0  12   1    2.68    0.31
   0  12  -1    2.32    0.29
   0  12   1    2.04    0.28
  -1 -12  -1   16.97    1.00
   1  12   1   15.51    0.99
  -1  12  -1   16.69    1.01
   1  12   1   15.93    1.00
  -2 -12  -1    0.93    0.29
  -2 -12  -1    0.35    0.24
   2  12   1    0.63    0.27
   2  12   1    0.58    0.25
  -2  12  -1   -0.10    0.24
  -2  12  -1    0.47    0.20
  -3 -12  -1    0.08    0.32
  -3 -12  -1   -0.10    0.34
   3  12   1    0.13    0.29
  -3  12  -1    0.95    0.30
  -4 -12  -1    1.48    0.48
  -4 -12  -1    1.09    0.41
  -4  12  -1    1.60    0.40
   4  12   1    0.85    0.39
  -3 -13   1    2.02    0.39
  -3 -13   1    1.57    0.43
  -3  13   1    2.83    0.43
   3  13  -1    1.84    0.38
  -2 -13   1    0.10    0.29
  -2 -13   1    0.35    0.28
   2  13  -1   -0.02    0.27
   2  13  -1    0.28    0.26
  -2  13   1   -1.00    0.27
  -1 -13   1    1.45    0.28
  -1  13   1    1.43    0.31
   1  13  -1    1.37    0.29
   0  13   1    0.24    0.25
   0  13  -1    0.16    0.23
  -1 -13  -1    0.14    0.22
   1  13   1    0.15    0.23
   1  13   1    0.33    0.26
  -1  13  -1    0.09    0.25
  -2 -13  -1    0.26    0.31
  -2 -13  -1    0.36    0.28
   2  13   1    0.06    0.28
  -2  13  -1   -0.97    0.23
   2  13   1   -0.09    0.28
  -3 -13  -1    0.99    0.36
  -3 -13  -1    0.66    0.39
  -3  13  -1    0.53    0.32
   3  13   1    0.29    0.33
  -3 -14   1    0.91    0.43
   3  14  -1    0.72    0.38
  -3  14   1    0.60    0.39
  -2 -14   1    0.95    0.36
  -2  14   1    0.46    0.35
   2  14  -1    1.16    0.35
  -1 -14   1    0.51    0.27
   1  14  -1    0.28    0.28
  -1  14   1    0.00    0.28
   0  14   1    0.24    0.28
   0  14  -1    0.18    0.26
  -1  14  -1    0.79    0.30
   1  14   1    0.50    0.28
   1  14   1    0.95    0.32
  -2 -14  -1    1.01    0.37
  -2 -14  -1    0.95    0.34
  -2  14  -1   -0.01    0.31
   2  14   1    0.94    0.35
   2  14   1    0.78    0.34
  -3 -14  -1    0.69    0.45
   3  14   1    0.91    0.38
  -2 -15   1   -0.07    0.35
   2  15  -1   -0.17    0.34
  -2  15   1   -0.27    0.35
  -1 -15   1    1.69    0.35
   1  15  -1    1.30    0.36
  -1  15   1    1.49    0.36
   0  15  -1    3.06    0.42
   0  15   1    3.39    0.43
  -1 -15  -1   -0.03    0.31
  -1  15  -1   -0.13    0.30
   1  15   1    0.24    0.33
  -2 -15  -1    1.39    0.41
  -2  15  -1    1.19    0.38
   2  15   1    1.58    0.42
  -1 -16   1    0.00    0.32
  -1  16   1    0.01    0.35
   1  16  -1    0.28    0.36
   0 -16   1    0.04    0.28
   0  16  -1   -0.25    0.34
   0  16   1   -0.05    0.35
  -1 -16  -1   -0.36    0.33
  -1  16  -1   -0.23    0.33
   1  16   1    0.24    0.38
   0 -17   1    0.88    0.33
   0  17  -1    0.75    0.39
   0  17   1   -0.11    0.39
  -5   0   2    0.08    0.31
   5   0  -2    0.36    0.30
  -4   0   2   19.67    1.20
   4   0  -2   20.61    1.20
  -3   0   2   -0.19    0.12
  -3   0   2    0.02    0.08
   3   0  -2    0.03    0.13
  -2   0   2   80.25    3.37
  -2   0   2   76.97    4.28
   2   0  -2   79.65    4.35
  -2   0   2   80.42    4.35
  -1   0   2    0.17    0.05
  -1   0   2    0.21    0.05
  -1   0   2    0.29    0.04
   1   0  -2    0.23    0.06
   0   0   2   -0.08    0.01
   0   0   2   -0.06    0.01
   1   0   2    0.35    0.05
  -1   0  -2    0.31    0.05
   2   0   2  131.20    7.38
  -2   0  -2  139.28    7.27
  -3   0  -2    0.04    0.14
   3   0   2   -0.11    0.12
  -4   0  -2    3.75    0.36
   4   0   2    3.11    0.32
  -5   0  -2    0.20    0.30
   5  -1  -2    1.15    0.33
  -5  -1   2    1.67    0.37
   5   1  -2    1.48    0.34
  -5   1   2    1.23    0.35
   4  -1  -2    1.33    0.25
  -4  -1   2    1.66    0.28
  -4   1   2    1.33    0.26
   4   1  -2    1.30    0.26
  -3  -1   2    4.68    0.25
  -3  -1   2    4.47    0.36
   3  -1  -2    5.04    0.35
  -3   1   2    4.59    0.35
  -3   1   2    4.46    0.36
   3   1  -2    4.77    0.36
  -3   1   2    4.72    0.25
   2  -1  -2   52.36    2.89
  -2  -1   2   53.68    2.24
   2   1  -2   52.57    2.89
  -2   1   2   53.04    2.23
  -2   1   2   50.69    2.89
  -2   1   2   52.70    2.84
   1  -1  -2   29.57    1.65
  -1  -1   2   29.55    1.62
  -1  -1   2   30.25    1.28
  -1   1   2   29.79    1.28
  -1   1   2   30.11    1.65
   1   1  -2   30.47    1.65
  -1  -1  -2    4.81    0.28
   1  -1   2    5.00    0.28
  -1   1  -2    4.64    0.28
  -1   1  -2    4.96    0.28
   1   1   2    4.78    0.28
   2  -1   2    2.60    0.21
   2   1   2    3.16    0.22
  -2   1  -2    3.17    0.22
  -2   1  -2    2.93    0.22
   3  -1   2    4.99    0.41
  -3  -1  -2    5.94    0.43
   3   1   2    6.84    0.42
  -3   1  -2    7.15    0.44
  -4  -1  -2    7.65    0.60
   4  -1   2    8.10    0.56
   4   1   2    8.56    0.58
  -4   1  -2    8.03    0.58
  -5  -1  -2    0.19    0.31
   5   1   2   -0.09    0.26
   5  -2  -2    0.92    0.31
  -5  -2   2    0.51    0.35
  -5   2   2    1.53    0.34
   5   2  -2    1.37    0.33
   4  -2  -2    8.09    0.57
  -4  -2   2    7.94    0.60
  -4   2   2    7.63    0.59
  -4   2   2    8.29    0.58
   4   2  -2    7.44    0.58
  -3  -2   2    4.97    0.26
   3  -2  -2    5.02    0.36
  -3  -2   2    5.29    0.38
   3   2  -2    4.86    0.37
  -3   2   2    4.94    0.25
  -3   2   2    4.12    0.38
  -3   2   2    4.93    0.36
  -2  -2   2    1.48    0.16
  -2  -2   2    1.82    0.13
   2  -2  -2    1.63    0.16
  -2   2   2    1.62    0.16
  -2   2   2    1.85    0.17
  -2   2   2    1.61    0.11
   2   2  -2    1.71    0.17
  -1  -2   2  569.17   23.57
   1  -2  -2  539.09   30.33
  -1  -2   2  559.89   29.87
   1   2  -2  537.94   30.33
  -1   2   2  568.71   29.86
  -1   2   2  564.79   30.33
   0  -2  -2   16.18    1.01
   0  -2   2   16.79    0.98
   0  -2   2   19.85    0.78
   0   2  -2   20.12    0.99
   0   2   2   17.73    1.00
   1  -2   2   29.42    1.70
  -1   2  -2   32.03    1.68
  -1   2  -2   32.10    1.70
   1   2   2   30.70    1.68
  -2  -2  -2    7.86    0.46
  -2   2  -2    7.42    0.46
   2   2   2    7.37    0.45
  -2   2  -2    7.63    0.45
   3  -2   2    5.43    0.37
  -3  -2  -2    6.08    0.41
  -3   2  -2    5.00    0.40
   3   2   2    5.23    0.39
  -3   2  -2    5.47    0.38
   4  -2   2    4.14    0.39
  -4  -2  -2    4.14    0.40
   4   2   2    4.41    0.41
  -4   2  -2    4.31    0.41
  -5  -2  -2    0.67    0.34
   5   2   2    0.64    0.29
  -5  -3   2    3.14    0.46
   5   3  -2    3.13    0.41
  -5   3   2    4.22    0.44
   4  -3  -2    0.27    0.20
  -4  -3   2   -0.15    0.22
  -4   3   2    0.22    0.21
  -4   3   2    0.25    0.23
   4   3  -2    0.31    0.23
  -3  -3   2   24.86    1.08
  -3  -3   2   24.65    1.39
   3  -3  -2   25.31    1.40
  -3   3   2   24.89    1.41
   3   3  -2   24.71    1.41
  -3   3   2   23.80    1.06
  -3   3   2   24.01    1.37
   2  -3  -2   25.18    1.41
  -2  -3   2   24.81    1.09
   2   3  -2   25.49    1.42
  -2   3   2   24.91    1.09
  -2   3   2   25.09    1.41
  -2   3   2   25.93    1.39
   1  -3  -2    0.19    0.05
  -1  -3   2    0.21    0.05
  -1  -3   2    0.26    0.06
  -1   3   2    0.26    0.06
  -1   3   2    0.25    0.07
   1   3  -2    0.13    0.06
  -1   3   2    0.23    0.05
   0  -3  -2   14.14    0.86
   0  -3   2   16.54    0.84
   0  -3   2   15.50    0.66
   0  -3   2   15.16    0.81
   0   3   2   13.54    0.85
   0   3  -2   15.51    0.84
   0   3  -2   17.18    0.83
   0   3  -2   14.92    0.81
   0   3   2   14.67    0.86
   1  -3   2  192.01   10.15
   1   3   2  176.17   10.00
  -1   3  -2  191.31   10.00
  -1   3  -2  191.17   10.16
   1   3   2  181.93   10.16
  -2  -3  -2    1.07    0.14
   2  -3   2    0.99    0.10
  -2   3  -2    0.97    0.13
  -2   3  -2    0.96    0.11
   2   3   2    0.97    0.13
   3  -3   2   40.41    2.19
  -3  -3  -2   40.03    2.19
  -3   3  -2   39.50    2.17
  -3   3  -2   38.97    2.21
   3   3   2   38.65    2.20
  -4  -3  -2    0.03    0.22
  -4   3  -2    0.30    0.21
   4   3   2   -0.07    0.20
  -5  -3  -2    0.08    0.32
   5   3   2    0.14    0.28
  -5  -4   2    0.23    0.35
   5   4  -2    0.18    0.30
  -4  -4   2    0.74    0.26
   4  -4  -2    1.22    0.24
   4   4  -2    1.21    0.25
  -4   4   2    1.12    0.23
  -4   4   2    0.86    0.26
  -3  -4   2    7.80    0.53
   3  -4  -2    8.33    0.52
  -3  -4   2    8.25    0.40
   3   4  -2    8.20    0.54
  -3   4   2    7.93    0.38
  -3   4   2    8.06    0.54
  -3   4   2    7.36    0.50
  -2  -4   2    2.06    0.22
   2  -4  -2    2.61    0.20
  -2  -4   2    2.32    0.17
  -2   4   2    2.55    0.19
   2   4  -2    2.22    0.22
  -2   4   2    2.26    0.21
   1  -4  -2   98.66    5.73
  -1  -4   2  105.82    4.46
  -1  -4   2   99.61    5.47
  -1  -4   2  110.06    5.65
   1   4  -2  104.56    5.74
   1   4  -2  105.07    5.65
  -1   4   2  107.58    5.46
  -1   4   2  104.56    5.74
  -1   4   2  109.93    5.65
   0  -4   2    1.00    0.09
   0  -4  -2    1.06    0.12
   0  -4   2    1.26    0.08
   0   4   2    0.94    0.10
   0   4  -2    0.73    0.08
   0   4  -2    0.73    0.08
   0   4   2    1.04    0.12
   0   4  -2    0.92    0.09
   1  -4   2   19.35    1.07
  -1   4  -2   20.40    1.08
   1   4   2   18.24    1.08
  -1   4  -2   19.55    1.05
   2  -4   2    4.40    0.26
  -2  -4  -2    3.92    0.30
  -2   4  -2    4.27    0.27
   2   4   2    4.25    0.30
  -2   4  -2    4.04    0.29
   3  -4   2    2.83    0.24
  -3  -4  -2    1.98    0.25
  -3   4  -2    3.05    0.26
   3   4   2    2.74    0.26
  -3   4  -2    2.60    0.27
  -4  -4  -2    1.59    0.30
  -4   4  -2    1.51    0.29
   4   4   2    1.73    0.27
  -5  -4  -2    0.97    0.37
   5   4   2    0.27    0.29
  -5  -5   2    0.77    0.38
  -5   5   2    0.60    0.37
   5   5  -2    0.53    0.32
  -4  -5   2    0.45    0.26
   4  -5  -2    0.39    0.21
  -4   5   2    0.29    0.25
   4   5  -2    0.14    0.22
  -4   5   2    0.28    0.21
  -3  -5   2    2.65    0.21
   3  -5  -2    2.98    0.27
  -3  -5   2    2.90    0.29
  -3   5   2    2.66    0.26
   3   5  -2    3.01    0.28
  -3   5   2    2.68    0.19
  -3   5   2    2.75    0.28
  -2  -5   2   11.61    0.52
  -2   5   2   11.08    0.61
  -2   5   2   11.53    0.64
   2   5  -2   10.89    0.66
  -2   5   2   10.35    0.66
  -1  -5   2    0.31    0.08
  -1  -5   2    0.36    0.08
  -1  -5   2    0.42    0.08
   1  -5  -2    0.42    0.08
  -1   5   2    0.43    0.08
   1   5  -2    0.48    0.09
   1   5  -2    0.34    0.08
  -1   5   2    0.36    0.07
  -1   5   2    0.42    0.10
   0  -5   2   72.20    3.80
   0  -5  -2   71.42    3.80
   0  -5  -2   74.88    3.99
   0  -5   2   74.26    3.97
   0   5  -2   71.59    3.80
   0   5   2   72.43    3.93
   0   5  -2   72.64    3.97
   0   5   2   68.18    3.98
   0   5  -2   77.24    3.91
  -1  -5  -2   39.87    2.25
   1  -5   2   41.80    2.23
  -1   5  -2   43.27    2.20
  -1   5  -2   40.25    2.14
   1   5   2   41.89    2.22
   1   5   2   37.98    2.25
  -1   5  -2   40.56    2.24
  -2  -5  -2    0.01    0.11
   2  -5   2    0.04    0.06
  -2   5  -2    0.09    0.07
   2   5   2   -0.01    0.10
  -2   5  -2    0.09    0.09
   2   5   2    0.04    0.10
   3  -5   2   10.20    0.62
  -3  -5  -2   10.13    0.67
   3   5   2   10.62    0.66
  -3   5  -2   10.74    0.66
  -3   5  -2   10.76    0.63
  -4  -5  -2    4.20    0.43
  -4   5  -2    4.35    0.43
   4   5   2    4.11    0.40
  -5  -5  -2    0.40    0.35
   5   5   2    0.06    0.30
  -5  -6   2    0.26    0.37
  -5   6   2   -0.27    0.34
   5   6  -2   -0.07    0.30
  -4  -6   2   10.43    0.76
   4  -6  -2   10.16    0.71
  -4   6   2   10.31    0.68
  -4   6   2   10.81    0.76
   4   6  -2   10.63    0.72
  -3  -6   2    0.34    0.18
   3  -6  -2    0.19    0.15
  -3   6   2    0.43    0.19
  -3   6   2    0.20    0.14
  -3   6   2    0.13    0.11
   3   6  -2    0.30    0.17
   2  -6  -2   22.12    1.25
  -2  -6   2   21.86    0.98
  -2  -6   2   22.87    1.25
  -2   6   2   22.70    1.26
  -2   6   2   22.21    1.19
  -2   6   2   21.51    1.23
   2   6  -2   22.24    1.26
   1  -6  -2    0.46    0.08
  -1  -6   2    0.64    0.11
  -1  -6   2    0.49    0.10
   1  -6  -2    0.36    0.08
   1   6  -2    0.49    0.10
  -1   6   2    0.37    0.09
  -1   6   2    0.44    0.10
  -1   6   2    0.65    0.12
   1   6  -2    0.35    0.09
   0  -6  -2   55.81    3.09
   0  -6   2   55.45    3.07
   0  -6  -2   57.08    2.94
   0   6   2   56.13    3.05
   0   6  -2   55.91    2.94
   0   6  -2   58.87    3.03
   0   6  -2   54.80    3.07
   0   6   2   54.86    3.08
   1  -6   2    1.01    0.10
   1   6   2    1.16    0.14
   1   6   2    1.41    0.15
  -1   6  -2    1.27    0.13
  -1   6  -2    0.90    0.13
  -1   6  -2    1.14    0.12
   2  -6   2   23.57    1.27
  -2  -6  -2   22.46    1.29
   2   6   2   22.29    1.28
  -2   6  -2   22.67    1.28
  -2   6  -2   23.36    1.26
   2   6   2   22.54    1.30
  -3  -6  -2    0.25    0.19
   3   6   2    0.23    0.17
  -3   6  -2    0.29    0.17
  -4  -6  -2    1.42    0.31
  -4   6  -2    0.96    0.28
   4   6   2    0.81    0.27
  -5  -6  -2    0.16    0.36
   5   6   2    0.05    0.31
  -5  -7   2   -0.41    0.36
  -5   7   2    0.45    0.38
   5   7  -2   -0.01    0.31
  -4  -7   2    0.26    0.27
   4   7  -2    0.20    0.23
  -4   7   2    0.23    0.27
   3  -7  -2    0.80    0.18
  -3  -7   2    1.01    0.23
  -3   7   2    1.06    0.22
  -3   7   2    1.07    0.19
  -3   7   2    1.00    0.15
   3   7  -2    1.15    0.21
   2  -7  -2   29.69    1.66
  -2  -7   2   28.39    1.65
   2   7  -2   28.55    1.67
  -2   7   2   29.83    1.58
  -2   7   2   31.21    1.64
  -2   7   2   30.35    1.68
  -1  -7   2    0.57    0.11
   1  -7  -2    0.70    0.11
  -1  -7   2    0.56    0.13
  -1   7   2    0.58    0.15
   1   7  -2    0.59    0.11
   1   7  -2    0.62    0.11
  -1   7   2    0.60    0.13
   0  -7  -2  100.40    5.40
   0  -7   2   96.42    5.38
   0   7  -2   96.69    5.30
   0   7  -2  100.75    5.15
   0   7   2  100.85    5.40
   0   7  -2  100.68    5.38
   0   7   2   94.18    5.32
   1  -7   2    0.37    0.07
  -1  -7  -2    0.43    0.14
  -1   7  -2    0.32    0.10
  -1   7  -2    0.33    0.10
   1   7   2    0.34    0.11
  -1   7  -2    0.31    0.12
   1   7   2    0.39    0.11
   2  -7   2    0.42    0.08
  -2  -7  -2    0.30    0.15
   2   7   2    0.43    0.15
  -2   7  -2    0.49    0.13
  -2   7  -2    0.42    0.13
  -2   7  -2    0.27    0.10
   2   7   2    0.50    0.15
  -3  -7  -2    0.45    0.21
   3   7   2    0.23    0.18
  -3   7  -2    0.27    0.18
  -4  -7  -2    2.69    0.40
   4   7   2    2.74    0.35
  -4   7  -2    3.01    0.36
  -5  -7  -2    0.07    0.37
   5   7   2   -0.26    0.32
  -5   7  -2   -0.12    0.36
  -5  -8   2    0.06    0.38
   5   8  -2    0.02    0.32
  -5   8   2    0.35    0.40
  -4  -8   2    3.96    0.47
  -4   8   2    4.04    0.45
   4   8  -2    3.81    0.40
   3  -8  -2    4.36    0.36
  -3  -8   2    4.31    0.42
  -3   8   2    4.56    0.43
   3   8  -2    3.89    0.39
  -3   8   2    4.41    0.37
  -3   8   2    4.17    0.32
  -2  -8   2    0.26    0.16
  -2  -8   2    0.18    0.15
   2  -8  -2    0.17    0.11
  -2   8   2    0.13    0.16
  -2   8   2    0.03    0.14
  -2   8   2    0.32    0.12
   2   8  -2    0.17    0.14
   2   8  -2    0.06    0.14
   1  -8  -2    5.37    0.33
  -1  -8   2    4.43    0.36
  -1  -8   2    5.11    0.34
   1   8  -2    5.10    0.34
  -1   8   2    4.50    0.36
  -1   8   2    4.68    0.37
   1   8  -2    4.83    0.33
   0  -8   2   26.26    1.46
   0  -8  -2   27.11    1.49
   0   8  -2   26.32    1.45
   0   8   2   25.75    1.49
   0   8  -2   27.30    1.47
   0   8   2   25.58    1.47
  -1  -8  -2    8.58    0.63
   1  -8   2   10.75    0.56
  -1   8  -2   10.39    0.57
   1   8   2   10.03    0.61
   1   8   2   10.51    0.60
  -1   8  -2    9.75    0.61
  -1   8  -2    8.53    0.59
  -2  -8  -2    6.05    0.46
  -2  -8  -2    6.01    0.45
  -2   8  -2    6.05    0.40
   2   8   2    5.94    0.44
   2   8   2    6.33    0.45
  -2   8  -2    6.50    0.43
  -3  -8  -2    0.18    0.22
   3   8   2    0.44    0.21
  -3   8  -2    0.25    0.19
  -3   8  -2    0.24    0.15
  -4  -8  -2    1.86    0.38
   4   8   2    1.54    0.32
  -4   8  -2    1.62    0.32
  -5  -8  -2    1.10    0.44
   5   8   2    0.79    0.41
  -5   8  -2    1.50    0.42
  -4  -9   2    0.53    0.33
   4   9  -2    0.16    0.26
  -4   9   2    0.36    0.32
  -3  -9   2    8.65    0.63
  -3   9   2    8.60    0.64
   3   9  -2    8.76    0.61
   2  -9  -2    1.10    0.17
  -2  -9   2    1.11    0.21
  -2  -9   2    1.51    0.22
   2   9  -2    1.11    0.20
  -2   9   2    1.48    0.23
   2   9  -2    1.44    0.21
  -2   9   2    1.17    0.21
  -2   9   2    1.12    0.17
   1  -9  -2    0.80    0.14
  -1  -9   2    0.70    0.16
  -1  -9   2    0.86    0.18
   1   9  -2    0.93    0.15
  -1   9   2    0.84    0.20
  -1   9   2    0.83    0.18
   1   9  -2    0.90    0.16
   0  -9   2    2.31    0.21
   0  -9  -2    2.93    0.27
   0   9  -2    2.35    0.24
   0   9   2    2.49    0.25
   0   9  -2    2.47    0.22
   0   9   2    2.61    0.25
   1  -9   2   21.51    1.23
   1   9   2   22.80    1.27
  -1   9  -2   22.25    1.25
  -1   9  -2   23.06    1.21
   1   9   2   21.69    1.26
  -1   9  -2   22.09    1.27
  -2  -9  -2    5.75    0.47
  -2  -9  -2    7.05    0.49
  -2   9  -2    5.86    0.42
  -2   9  -2    6.73    0.44
   2   9   2    5.54    0.47
   2   9   2    5.43    0.45
  -3  -9  -2    4.83    0.45
  -3   9  -2    3.93    0.36
  -3   9  -2    4.55    0.42
   3   9   2    4.19    0.43
  -4  -9  -2   -0.33    0.32
  -4   9  -2    0.42    0.29
   4   9   2    0.24    0.29
  -4 -10   2   -0.08    0.35
   4  10  -2   -0.11    0.27
  -4  10   2    0.14    0.33
  -3 -10   2    2.36    0.34
  -3 -10   2    2.21    0.34
   3  10  -2    2.56    0.31
  -3  10   2    2.38    0.34
  -2 -10   2    1.42    0.24
  -2 -10   2    1.60    0.26
   2 -10  -2    1.18    0.18
  -2  10   2    1.27    0.25
   2  10  -2    1.32    0.23
   2  10  -2    1.13    0.22
  -2  10   2    1.42    0.24
  -1 -10   2   11.83    0.73
  -1 -10   2   12.72    0.77
   1 -10  -2   12.01    0.73
  -1  10   2   12.13    0.77
   1  10  -2   12.24    0.74
   1  10  -2   12.54    0.73
   0 -10   2    5.53    0.36
   0 -10  -2    6.01    0.41
   0  10  -2    4.92    0.40
   0  10  -2    5.61    0.39
   0  10   2    5.03    0.42
   0  10   2    6.28    0.42
  -1 -10  -2    2.32    0.30
   1  10   2    2.54    0.27
  -1  10  -2    2.85    0.26
   1  10   2    2.22    0.27
  -1  10  -2    3.03    0.29
  -2 -10  -2    2.00    0.28
  -2 -10  -2    1.54    0.29
  -2  10  -2    1.88    0.25
   2  10   2    1.91    0.26
   2  10   2    1.67    0.27
  -2  10  -2    1.58    0.22
  -3 -10  -2    1.29    0.32
  -3 -10  -2    1.09    0.29
  -3  10  -2    0.84    0.20
   3  10   2    0.85    0.25
  -3  10  -2    1.43    0.27
  -4 -10  -2   -0.08    0.35
  -4 -10  -2   -0.10    0.32
   4  10   2   -0.37    0.30
  -4  10  -2   -0.04    0.29
  -4 -11   2    0.35    0.38
  -4 -11   2   -0.69    0.32
   4  11  -2   -0.01    0.29
  -4  11   2    0.58    0.37
  -3 -11   2    1.90    0.34
  -3 -11   2    1.91    0.35
  -3  11   2    2.19    0.36
   3  11  -2    1.65    0.31
  -2 -11   2    5.48    0.51
  -2 -11   2    5.89    0.48
   2  11  -2    5.92    0.47
   2  11  -2    6.17    0.47
  -2  11   2    3.97    0.46
  -1 -11   2    2.62    0.28
  -1 -11   2    2.71    0.28
   1 -11  -2    2.52    0.25
   1  11  -2    2.68    0.28
   1  11  -2    2.38    0.26
  -1  11   2    2.40    0.29
  -1  11   2    2.73    0.31
   0 -11  -2   13.00    0.76
   0  11   2   11.84    0.78
   0  11  -2   12.44    0.76
   0  11   2   11.68    0.76
  -1 -11  -2    0.70    0.22
  -1  11  -2    0.63    0.18
   1  11   2    0.12    0.18
   1  11   2    0.22    0.20
  -1  11  -2    0.36    0.20
  -2 -11  -2    1.29    0.29
  -2 -11  -2    1.00    0.29
   2  11   2    1.22    0.28
   2  11   2    1.27    0.26
  -2  11  -2    1.72    0.26
  -2  11  -2    1.23    0.21
  -3 -11  -2    1.21    0.36
  -3 -11  -2    1.07    0.33
  -3  11  -2    1.28    0.28
   3  11   2    1.41    0.31
  -3  11  -2    0.91    0.21
  -4 -11  -2    0.86    0.43
  -4 -11  -2    0.09    0.35
  -4  11  -2    1.01    0.35
   4  11   2    0.42    0.35
  -4 -12   2    0.38    0.42
  -4 -12   2    0.15    0.35
  -4  12   2    1.07    0.42
   4  12  -2    0.96    0.38
  -3 -12   2   -0.16    0.31
  -3 -12   2    0.78    0.32
   3  12  -2    0.16    0.27
  -3  12   2    0.21    0.31
  -2 -12   2    7.10    0.55
  -2 -12   2    6.11    0.53
   2  12  -2    6.07    0.53
  -2  12   2    4.28    0.51
   2  12  -2    6.75    0.53
  -1 -12   2    5.50    0.45
   1  12  -2    5.68    0.47
  -1  12   2    5.70    0.47
  -1  12   2    5.11    0.50
   1  12  -2    5.36    0.44
   0 -12  -2    0.09    0.18
   0  12  -2    0.17    0.19
   0  12   2    0.13    0.22
   0  12   2    0.01    0.19
  -1 -12  -2    0.26    0.21
  -1  12  -2   -0.09    0.22
   1  12   2    0.14    0.21
   1  12   2    0.03    0.22
  -2 -12  -2    4.72    0.50
  -2 -12  -2    6.68    0.58
  -2  12  -2    4.57    0.47
   2  12   2    6.70    0.58
  -2  12  -2    6.62    0.46
   2  12   2    6.20    0.55
  -3 -12  -2   -0.53    0.33
  -3 -12  -2    0.25    0.34
  -3  12  -2    0.46    0.27
   3  12   2    0.06    0.29
  -4 -12  -2   -0.13    0.37
  -4 -12  -2   -0.07    0.42
   4  12   2    0.30    0.39
  -3 -13   2    0.01    0.35
  -3  13   2    0.60    0.36
   3  13  -2    0.13    0.30
  -2 -13   2    3.31    0.40
  -2  13   2    1.74    0.38
   2  13  -2    3.01    0.37
   2  13  -2    2.95    0.38
  -1 -13   2    0.16    0.23
  -1  13   2    0.38    0.27
   1  13  -2    0.31    0.25
   0 -13  -2    3.54    0.34
   0  13   2    3.67    0.39
   0  13  -2    3.75    0.37
   0  13   2    3.52    0.36
  -1 -13  -2    0.12    0.22
  -1  13  -2    0.02    0.24
   1  13   2    0.01    0.23
   1  13   2    0.01    0.25
  -2 -13  -2   -0.08    0.30
  -2 -13  -2    0.22    0.29
  -2  13  -2   -0.64    0.25
   2  13   2   -0.13    0.28
   2  13   2    0.12    0.28
  -3 -13  -2    0.46    0.35
  -3 -13  -2    0.15    0.39
   3  13   2    0.44    0.34
  -3 -14   2    0.18    0.38
  -3  14   2    0.03    0.37
   3  14  -2   -0.18    0.34
  -2 -14   2    0.52    0.33
  -2  14   2    0.05    0.33
   2  14  -2    0.71    0.33
  -1 -14   2    1.44    0.31
   1  14  -2    1.54    0.31
  -1  14   2    1.45    0.34
   0  14  -2    0.86    0.28
   0  14   2    0.59    0.30
  -1  14  -2    0.20    0.27
   1  14   2    0.56    0.31
   1  14   2    0.42    0.28
  -2 -14  -2    2.00    0.41
  -2 -14  -2    1.68    0.37
   2  14   2    2.26    0.40
  -2  14  -2    0.40    0.32
   2  14   2    1.75    0.39
  -3 -14  -2    1.07    0.46
   3  14   2    0.44    0.38
  -2 -15   2   -0.23    0.33
   2  15  -2    0.21    0.35
  -2  15   2   -0.27    0.36
  -1 -15   2    0.25    0.29
   1  15  -2    0.43    0.33
  -1  15   2    0.85    0.35
   0 -15   2    0.16    0.23
   0  15  -2    0.20    0.30
   0  15   2    0.30    0.32
   1  15   2    0.46    0.35
  -1  15  -2    0.28    0.31
  -2 -15  -2    0.27    0.39
   2  15   2   -0.01    0.36
   2  15   2    0.07    0.36
  -1 -16   2    2.27    0.39
   1  16  -2    2.16    0.42
  -1  16   2    2.01    0.43
   0 -16   2    0.09    0.26
   0  16   2    0.07    0.36
   0  16  -2    0.33    0.33
  -1 -16  -2    0.31    0.37
  -1  16  -2    0.50    0.34
   1  16   2    0.77    0.40
  -5   0   3    0.75    0.34
   5   0  -3    0.41    0.30
  -4   0   3   -0.11    0.21
   4   0  -3    0.13    0.21
  -3   0   3   33.21    1.80
   3   0  -3   31.97    1.83
  -3   0   3   32.27    1.40
   2   0  -3    0.03    0.08
  -2   0   3    0.06    0.06
  -2   0   3    0.14    0.08
  -2   0   3   -0.03    0.09
  -1   0   3  384.42   16.51
   1   0  -3  395.51   21.26
  -1   0   3  380.57   21.24
  -1   0   3  398.09   20.92
   0   0   3   -0.31    0.02
   0   0   3   -0.05    0.04
   0   0  -3   -0.05    0.04
   0   0   3   -0.26    0.03
   1   0   3   59.89    3.38
  -1   0  -3   64.26    3.34
  -2   0  -3    0.13    0.08
   2   0   3    0.17    0.07
   3   0   3   44.53    2.52
  -3   0  -3   46.70    2.50
  -4   0  -3   -0.19    0.20
   4   0   3   -0.14    0.18
  -5  -1   3    1.54    0.39
   5  -1  -3    2.55    0.37
   5   1  -3    2.21    0.38
  -5   1   3    2.32    0.40
   4  -1  -3    2.83    0.32
  -4  -1   3    3.17    0.34
   4   1  -3    2.92    0.32
  -4   1   3    2.82    0.33
  -3  -1   3    0.23    0.09
  -3  -1   3   -0.07    0.13
   3  -1  -3    0.15    0.13
  -3   1   3    0.12    0.14
  -3   1   3   -0.07    0.12
   3   1  -3    0.05    0.13
  -3   1   3    0.10    0.09
  -2  -1   3   11.34    0.66
  -2  -1   3   11.76    0.51
   2  -1  -3   11.38    0.67
  -2   1   3   11.28    0.66
  -2   1   3   11.83    0.51
   2   1  -3   11.55    0.67
  -2   1   3   11.29    0.67
  -1  -1   3  958.48   39.88
  -1  -1   3  932.15   50.54
  -1   1   3 1000.00   50.54
  -1   1   3  948.39   39.88
   1   1  -3  936.13   51.34
  -1   1   3  880.27   51.33
   0  -1   3   19.97    0.88
   0  -1   3   20.36    1.10
   0   1   3   21.15    1.13
   1  -1   3  196.20   10.55
  -1   1  -3  200.74   10.39
  -1   1  -3  193.79   10.55
   1   1   3  190.33   10.41
   1   1   3  188.43   10.56
  -2  -1  -3    1.78    0.17
   2  -1   3    1.64    0.14
  -2   1  -3    1.32    0.14
   2   1   3    1.52    0.15
  -3  -1  -3    1.22    0.19
   3  -1   3    1.06    0.16
   3   1   3    1.03    0.16
  -3   1  -3    1.29    0.19
   4  -1   3    0.97    0.21
  -4  -1  -3    0.73    0.24
  -4   1  -3    1.33    0.25
   4   1   3    1.16    0.23
  -5  -1  -3    1.01    0.34
  -5  -2   3   -0.03    0.33
   5  -2  -3    0.49    0.30
   5   2  -3    0.32    0.31
  -5   2   3   -0.13    0.31
   4  -2  -3    1.27    0.25
  -4  -2   3    1.31    0.28
  -4   2   3    1.69    0.26
   4   2  -3    1.49    0.27
  -4   2   3    1.14    0.26
  -3  -2   3   12.69    0.58
   3  -2  -3   12.96    0.76
  -3  -2   3   12.60    0.76
  -3   2   3   11.70    0.74
  -3   2   3   12.78    0.57
  -3   2   3   12.34    0.77
   3   2  -3   12.58    0.76
  -2  -2   3    4.15    0.29
   2  -2  -3    4.48    0.29
  -2  -2   3    4.27    0.22
  -2   2   3    4.08    0.30
   2   2  -3    4.40    0.29
  -2   2   3    4.13    0.28
  -2   2   3    4.32    0.21
  -1  -2   3   12.37    0.68
   1  -2  -3   12.41    0.72
  -1  -2   3   12.87    0.56
  -1  -2   3   13.05    0.71
   1   2  -3   12.24    0.72
  -1   2   3   13.53    0.67
  -1   2   3   13.10    0.71
  -1   2   3   13.33    0.72
   0  -2   3  115.92    4.58
   0  -2  -3  103.03    5.90
   0   2   3  112.88    5.90
   0   2   3   93.30    5.81
   0   2  -3  115.32    5.79
  -1   2  -3    0.15    0.04
   1   2   3    0.18    0.06
   1   2   3    0.18    0.05
  -1   2  -3    0.12    0.04
   2  -2   3   55.52    2.96
  -2  -2  -3   53.70    2.94
  -2   2  -3   51.03    2.93
   2   2   3   54.70    2.97
  -2   2  -3   55.76    2.98
  -3  -2  -3    4.12    0.35
   3  -2   3    4.50    0.31
  -3   2  -3    4.41    0.33
   3   2   3    4.34    0.34
   4  -2   3    3.55    0.33
  -4  -2  -3    3.40    0.37
  -4   2  -3    4.05    0.37
   4   2   3    3.63    0.35
  -5  -2  -3    0.03    0.32
   5   2   3    0.07    0.27
   5  -3  -3    0.11    0.29
  -5  -3   3    0.30    0.34
   5   3  -3    0.20    0.30
  -5   3   3    0.04    0.29
   4  -3  -3    7.28    0.53
  -4  -3   3    6.61    0.56
  -4   3   3    6.70    0.52
  -4   3   3    6.55    0.55
  -3  -3   3    0.00    0.10
   3  -3  -3    0.16    0.13
  -3  -3   3   -0.12    0.15
  -3   3   3    0.01    0.13
   3   3  -3    0.03    0.14
  -3   3   3   -0.01    0.15
  -3   3   3    0.08    0.08
   2  -3  -3  111.84    6.23
  -2  -3   3  115.02    4.84
  -2  -3   3  116.21    6.14
   2   3  -3  112.50    6.23
  -2   3   3  117.86    6.13
  -2   3   3  113.63    4.83
  -2   3   3  110.67    6.23
  -1  -3   3    8.62    0.49
  -1  -3   3    7.96    0.46
   1  -3  -3    7.89    0.49
  -1  -3   3    8.93    0.39
  -1   3   3    8.63    0.46
  -1   3   3    9.01    0.48
   1   3  -3    8.73    0.49
  -1   3   3    8.45    0.49
   0  -3  -3    0.79    0.10
   0  -3   3    0.52    0.05
   0  -3   3    0.56    0.06
   0   3  -3    0.42    0.05
   0   3   3    0.45    0.08
   0   3  -3    0.55    0.05
   0   3  -3    0.36    0.06
   0   3   3    0.33    0.08
  -1   3  -3    0.32    0.05
   1   3   3    0.38    0.07
   1   3   3    0.32    0.07
  -1   3  -3    0.23    0.05
  -2  -3  -3   76.51    4.28
   2  -3   3   77.48    4.33
   2   3   3   82.46    4.34
  -2   3  -3   80.23    4.27
  -2   3  -3   79.55    4.34
   3  -3   3    0.11    0.11
  -3  -3  -3   -0.05    0.15
  -3   3  -3    0.01    0.12
  -3   3  -3    0.13    0.15
   3   3   3    0.27    0.14
  -4  -3  -3    6.22    0.53
   4   3   3    6.34    0.50
  -5  -3  -3    0.00    0.32
   5   3   3   -0.21    0.27
  -5  -4   3    0.56    0.37
   5   4  -3    0.45    0.32
  -5   4   3    0.58    0.31
  -5   4   3    1.31    0.38
   4  -4  -3    0.92    0.24
  -4  -4   3    0.67    0.16
  -4  -4   3    1.03    0.27
  -4   4   3    0.86    0.23
  -4   4   3    0.63    0.26
   4   4  -3    0.82    0.25
   3  -4  -3    2.63    0.25
  -3  -4   3    2.45    0.27
  -3  -4   3    2.30    0.19
  -3   4   3    2.27    0.26
  -3   4   3    2.47    0.23
   3   4  -3    2.07    0.25
  -3   4   3    2.06    0.17
  -2  -4   3   25.22    1.08
   2  -4  -3   25.05    1.38
  -2  -4   3   24.48    1.37
   2   4  -3   24.14    1.39
  -2   4   3   24.50    1.30
  -2   4   3   24.55    1.35
  -2   4   3   24.43    1.39
  -1  -4   3    2.74    0.16
  -1  -4   3    2.97    0.20
  -1  -4   3    2.46    0.18
   1  -4  -3    2.82    0.19
   1  -4  -3    2.85    0.17
  -1   4   3    2.89    0.21
  -1   4   3    2.81    0.18
   1   4  -3    2.50    0.19
   1   4  -3    2.57    0.19
  -1   4   3    2.90    0.19
   0  -4   3  356.30   18.80
   0  -4   3  356.98   14.87
   0  -4  -3  362.28   19.14
   0   4   3  336.55   19.16
   0   4  -3  341.84   19.09
   0   4  -3  380.68   18.80
   0   4   3  351.50   18.87
   0   4  -3  319.66   18.23
   1   4   3   16.55    0.96
   1   4   3   16.69    0.94
  -1   4  -3   17.25    0.93
  -1   4  -3   17.70    0.95
   2  -4   3   19.22    1.14
  -2  -4  -3   22.28    1.16
  -2   4  -3   17.79    1.13
   2   4   3   20.43    1.15
  -2   4  -3   21.66    1.16
   2   4   3   22.64    1.17
  -3  -4  -3    4.56    0.40
   3  -4   3    5.07    0.34
   3   4   3    5.27    0.38
  -3   4  -3    4.91    0.39
  -3   4  -3    5.09    0.36
  -4  -4  -3    4.25    0.44
   4   4   3    4.52    0.43
  -4   4  -3    4.34    0.42
  -5  -4  -3   -0.03    0.32
   5   4   3   -0.09    0.28
  -5  -5   3    0.39    0.38
  -5   5   3    0.55    0.36
   5   5  -3    0.76    0.32
  -4  -5   3    2.42    0.34
   4  -5  -3    2.81    0.31
  -4   5   3    2.50    0.29
   4   5  -3    2.87    0.34
  -4   5   3    2.03    0.33
  -3  -5   3    0.04    0.16
   3  -5  -3    0.33    0.15
  -3  -5   3    0.26    0.13
  -3   5   3    0.11    0.10
  -3   5   3    0.28    0.17
  -3   5   3    0.27    0.10
  -3   5   3    0.22    0.14
   3   5  -3    0.16    0.16
   2  -5  -3   23.57    1.34
  -2  -5   3   23.37    1.33
  -2  -5   3   23.78    1.05
   2   5  -3   23.61    1.34
  -2   5   3   25.14    1.31
  -2   5   3   24.49    1.26
  -2   5   3   22.21    1.34
   1  -5  -3   51.01    2.56
   1  -5  -3   48.50    2.69
  -1  -5   3   48.51    2.10
  -1  -5   3   50.71    2.65
  -1  -5   3   47.26    2.57
  -1   5   3   47.22    2.70
  -1   5   3   51.41    2.65
   1   5  -3   46.95    2.65
   0  -5   3    0.11    0.06
   0  -5   3    0.24    0.04
   0  -5   3    0.09    0.06
   0  -5  -3    0.18    0.09
   0   5   3    0.12    0.10
   0   5  -3    0.14    0.05
   0   5   3    0.15    0.09
   0   5  -3    0.01    0.06
   0   5  -3    0.17    0.05
  -1  -5  -3   97.71    5.19
  -1   5  -3   97.81    5.09
   1   5   3   90.90    5.11
  -1   5  -3   94.34    4.95
  -1   5  -3   97.29    5.18
   1   5   3   91.09    5.19
  -2  -5  -3   23.40    1.25
   2   5   3   23.39    1.26
  -2   5  -3   21.32    1.21
   2   5   3   21.10    1.24
  -2   5  -3   21.80    1.24
  -3  -5  -3    1.03    0.21
  -3   5  -3    0.90    0.19
   3   5   3    1.53    0.21
  -4  -5  -3    3.00    0.38
   4   5   3    2.69    0.34
  -4   5  -3    2.85    0.36
  -5  -5  -3    0.18    0.34
   5   5   3    0.12    0.30
  -5  -6   3    0.84    0.40
   5   6  -3    0.20    0.32
  -5   6   3    0.50    0.37
  -4  -6   3    0.26    0.27
   4  -6  -3    0.83    0.23
  -4   6   3    0.47    0.26
   4   6  -3    0.76    0.25
  -4   6   3    0.38    0.22
  -3  -6   3   31.80    1.80
  -3  -6   3   33.10    1.41
   3  -6  -3   31.84    1.81
  -3   6   3   29.87    1.69
  -3   6   3   32.86    1.82
  -3   6   3   29.97    1.77
   3   6  -3   33.65    1.82
  -3   6   3   33.09    1.39
  -2  -6   3    7.71    0.40
  -2  -6   3    7.96    0.50
   2  -6  -3    7.66    0.49
   2   6  -3    7.99    0.51
  -2   6   3    7.72    0.45
  -2   6   3    8.31    0.51
  -2   6   3    8.34    0.48
  -1  -6   3   34.82    1.87
   1  -6  -3   34.65    1.78
  -1  -6   3   34.51    1.46
  -1  -6   3   34.66    1.84
   1  -6  -3   34.54    1.87
  -1   6   3   31.68    1.88
   1   6  -3   30.45    1.84
  -1   6   3   35.50    1.85
   1   6  -3   33.04    1.87
   0  -6  -3   52.39    2.84
   0  -6  -3   54.96    2.98
   0  -6   3   56.19    2.95
   0   6   3   55.07    2.98
   0   6  -3   51.89    2.83
   0   6  -3   51.10    2.95
   0   6  -3   57.66    2.91
   0   6   3   52.46    2.94
  -1  -6  -3   19.18    1.08
  -1   6  -3   19.81    1.04
   1   6   3   19.21    1.07
  -1   6  -3   15.91    1.06
   1   6   3   20.27    1.06
  -1   6  -3   19.06    1.02
  -2  -6  -3    4.47    0.32
   2   6   3    3.98    0.32
  -2   6  -3    4.01    0.27
  -2   6  -3    3.69    0.28
   2   6   3    4.03    0.32
  -3  -6  -3   20.61    1.20
   3   6   3   20.90    1.19
  -3   6  -3   19.73    1.18
  -4  -6  -3    0.84    0.30
   4   6   3    0.83    0.26
  -4   6  -3    1.00    0.27
  -5  -6  -3   -0.14    0.35
   5   6   3   -0.03    0.31
  -5  -7   3    0.41    0.40
   5   7  -3    0.21    0.33
  -5   7   3    0.38    0.38
  -4  -7   3    0.05    0.27
  -4   7   3   -0.01    0.27
   4   7  -3    0.00    0.23
  -4   7   3    0.26    0.23
   3  -7  -3   -0.01    0.15
  -3  -7   3   -0.03    0.18
  -3   7   3    0.05    0.11
  -3   7   3    0.09    0.16
   3   7  -3   -0.04    0.17
  -3   7   3    0.08    0.19
  -2  -7   3    0.01    0.13
   2  -7  -3    0.22    0.11
  -2  -7   3    0.19    0.12
  -2   7   3    0.09    0.12
  -2   7   3    0.20    0.14
  -2   7   3    0.13    0.10
   2   7  -3    0.09    0.13
  -1  -7   3   25.50    1.39
  -1  -7   3   25.60    1.37
   1  -7  -3   26.42    1.39
   1   7  -3   25.03    1.39
   1   7  -3   24.25    1.36
  -1   7   3   22.73    1.40
  -1   7   3   23.82    1.38
   0  -7   3    5.20    0.30
   0  -7  -3    5.36    0.35
   0   7  -3    4.74    0.31
   0   7   3    4.69    0.34
   0   7   3    5.00    0.35
   0   7  -3    4.64    0.31
   0   7  -3    4.93    0.32
  -1  -7  -3   49.36    2.72
  -1   7  -3   46.67    2.65
   1   7   3   48.80    2.71
  -1   7  -3   51.42    2.58
   1   7   3   52.50    2.67
  -1   7  -3   45.21    2.70
   2   7   3    1.98    0.22
  -2   7  -3    2.31    0.22
  -2   7  -3    2.32    0.21
   2   7   3    2.31    0.24
  -3  -7  -3    1.78    0.28
   3   7   3    1.88    0.26
  -3   7  -3    1.64    0.24
  -4  -7  -3    0.40    0.30
  -4   7  -3    0.18    0.26
   4   7   3    0.31    0.26
  -5  -7  -3    0.50    0.40
   5   7   3    0.17    0.36
  -5  -8   3    0.46    0.41
   5   8  -3   -0.05    0.33
  -5   8   3    0.38    0.40
  -4  -8   3    2.35    0.38
   4   8  -3    2.21    0.34
  -4   8   3    2.48    0.39
   3  -8  -3   11.11    0.68
  -3  -8   3   10.74    0.72
  -3   8   3   11.34    0.69
  -3   8   3   10.56    0.73
   3   8  -3    9.96    0.70
  -2  -8   3    3.43    0.33
   2  -8  -3    3.39    0.30
  -2   8   3    3.94    0.32
  -2   8   3    4.29    0.36
  -2   8   3    3.99    0.29
   2   8  -3    3.98    0.33
  -1  -8   3    3.97    0.34
   1  -8  -3    4.94    0.32
  -1  -8   3    4.91    0.32
  -1   8   3    4.03    0.35
   1   8  -3    4.65    0.32
   1   8  -3    4.70    0.31
  -1   8   3    4.18    0.36
   0  -8   3   37.54    2.04
   0  -8  -3   39.57    2.07
   0   8   3   37.47    2.04
   0   8  -3   36.20    2.05
   0   8  -3   37.39    2.02
   0   8   3   34.66    2.07
   0   8  -3   36.62    1.97
  -1  -8  -3    6.96    0.53
  -1   8  -3    7.13    0.47
   1   8   3    8.24    0.51
   1   8   3    8.00    0.51
  -1   8  -3    7.80    0.49
  -1   8  -3    8.55    0.48
  -2  -8  -3    0.33    0.17
   2   8   3    0.05    0.15
  -2   8  -3    0.21    0.13
   2   8   3    0.10    0.16
  -2   8  -3    0.07    0.13
  -3  -8  -3    5.60    0.52
  -3   8  -3    6.33    0.46
   3   8   3    6.09    0.49
  -3   8  -3    5.99    0.43
  -4  -8  -3    0.42    0.32
   4   8   3    0.44    0.29
  -4   8  -3    0.07    0.27
  -4  -9   3    0.51    0.32
   4   9  -3    0.72    0.28
  -4   9   3    1.27    0.36
  -3  -9   3    0.22    0.23
  -3   9   3    0.41    0.25
   3   9  -3    0.30    0.20
  -3   9   3    0.03    0.20
  -2  -9   3   17.10    0.99
   2  -9  -3   16.66    0.98
  -2  -9   3   16.61    1.00
  -2   9   3   17.30    0.99
   2   9  -3   17.18    0.98
   2   9  -3   16.23    0.99
  -2   9   3   16.38    1.02
  -1  -9   3    8.47    0.61
  -1  -9   3    9.95    0.59
   1  -9  -3    9.70    0.60
   1   9  -3   10.92    0.60
   1   9  -3   10.02    0.59
  -1   9   3   10.13    0.64
  -1   9   3    8.50    0.62
   0  -9   3    0.29    0.08
   0  -9  -3    0.05    0.14
   0   9   3    0.09    0.15
   0   9   3    0.05    0.15
   0   9  -3    0.12    0.11
   0   9  -3    0.05    0.11
  -1  -9  -3    1.45    0.25
   1   9   3    2.17    0.24
   1   9   3    2.21    0.24
  -1   9  -3    2.20    0.23
  -1   9  -3    2.45    0.22
  -2  -9  -3   21.31    1.31
   2   9   3   21.93    1.30
  -2   9  -3   23.32    1.29
  -2   9  -3   22.51    1.23
   2   9   3   22.55    1.30
  -3  -9  -3    0.14    0.22
  -3  -9  -3    0.19    0.25
   3   9   3    0.00    0.21
  -3   9  -3    0.25    0.20
  -3   9  -3    0.13    0.16
  -4  -9  -3    2.15    0.43
  -4   9  -3    2.55    0.37
   4   9   3    2.93    0.41
  -4 -10   3    0.18    0.35
   4  10  -3    0.28    0.27
  -4  10   3    0.22    0.35
  -3 -10   3    0.48    0.26
  -3 -10   3    0.10    0.25
   3  10  -3    0.55    0.23
  -3  10   3    0.63    0.28
  -2 -10   3    3.63    0.39
   2 -10  -3    5.01    0.36
  -2 -10   3    4.67    0.43
   2  10  -3    5.27    0.40
  -2  10   3    4.14    0.41
  -2  10   3    4.88    0.42
   2  10  -3    3.95    0.38
  -1 -10   3    3.24    0.31
   1 -10  -3    3.26    0.30
  -1 -10   3    3.81    0.35
   1  10  -3    3.42    0.29
  -1  10   3    3.87    0.37
   1  10  -3    3.39    0.32
  -1  10   3    3.66    0.37
   0 -10  -3   41.74    2.21
   0  10  -3   37.69    2.19
   0  10   3   39.65    2.22
   0  10  -3   38.46    2.16
   0  10   3   39.93    2.19
  -1 -10  -3    1.77    0.28
   1  10   3    1.64    0.25
  -1  10  -3    1.80    0.24
  -1  10  -3    1.78    0.22
   1  10   3    1.94    0.25
  -2 -10  -3    2.89    0.35
   2  10   3    2.81    0.32
  -2  10  -3    3.56    0.33
   2  10   3    3.10    0.35
  -2  10  -3    2.80    0.28
  -3 -10  -3    0.17    0.26
  -3 -10  -3    0.60    0.30
  -3  10  -3    0.07    0.18
   3  10   3    0.42    0.24
  -3  10  -3    0.48    0.22
  -4 -10  -3   -0.03    0.37
  -4 -10  -3    0.26    0.32
  -4  10  -3    0.51    0.31
   4  10   3    0.47    0.33
  -4 -11   3    0.74    0.36
  -4 -11   3    1.43    0.41
  -4  11   3    2.07    0.44
   4  11  -3    1.20    0.34
  -3 -11   3    0.24    0.29
  -3 -11   3   -0.07    0.25
  -3  11   3    0.19    0.30
   3  11  -3    0.43    0.25
  -2 -11   3    5.73    0.52
  -2 -11   3    7.42    0.56
  -2  11   3    5.24    0.54
   2  11  -3    8.48    0.54
   2  11  -3    7.51    0.52
  -2  11   3    6.60    0.55
   1 -11  -3    0.19    0.15
  -1 -11   3    0.00    0.16
  -1 -11   3    0.26    0.16
  -1  11   3    0.26    0.22
   1  11  -3    0.04    0.17
  -1  11   3    0.22    0.21
   1  11  -3    0.29    0.16
   0 -11  -3    2.20    0.26
   0  11   3    1.93    0.27
   0  11  -3    2.00    0.24
   0  11   3    2.29    0.27
  -1 -11  -3    6.53    0.52
   1  11   3    5.32    0.49
   1  11   3    5.12    0.47
  -1  11  -3    6.43    0.47
  -1  11  -3    6.66    0.45
  -2 -11  -3    1.70    0.31
  -2 -11  -3    1.33    0.30
   2  11   3    1.53    0.30
  -2  11  -3    1.69    0.25
  -2  11  -3    1.05    0.21
   2  11   3    1.79    0.28
  -3 -11  -3    0.54    0.34
  -3 -11  -3   -0.20    0.29
   3  11   3    0.26    0.27
  -3  11  -3    0.20    0.20
  -3  11  -3    0.56    0.25
  -4 -11  -3    0.30    0.35
  -4 -11  -3   -0.35    0.40
   4  11   3    0.26    0.36
  -4 -12   3   -0.40    0.33
  -4 -12   3    0.11    0.39
  -4  12   3    0.81    0.42
   4  12  -3   -0.16    0.32
  -3 -12   3    1.25    0.36
  -3 -12   3    1.01    0.33
   3  12  -3    1.09    0.31
  -3  12   3    0.95    0.36
  -2 -12   3    0.46    0.25
   2  12  -3    0.37    0.22
   2  12  -3    0.56    0.24
  -2  12   3   -0.26    0.27
   1 -12  -3    4.03    0.37
  -1 -12   3    4.48    0.41
   1  12  -3    4.50    0.42
  -1  12   3    4.53    0.43
  -1  12   3    4.52    0.43
   0 -12  -3    3.67    0.34
   0  12   3    3.34    0.34
   0  12   3    3.22    0.35
   0  12  -3    3.51    0.33
  -1 -12  -3    1.16    0.25
  -1  12  -3    1.41    0.27
   1  12   3    1.16    0.26
   1  12   3    1.67    0.28
  -2 -12  -3    2.78    0.39
  -2 -12  -3    2.18    0.35
  -2  12  -3    1.63    0.29
  -2  12  -3    2.22    0.27
   2  12   3    2.12    0.34
   2  12   3    2.68    0.38
  -3 -12  -3    2.12    0.44
  -3 -12  -3    2.29    0.43
   3  12   3    2.37    0.40
  -3 -13   3   -0.06    0.34
   3  13  -3    0.07    0.30
  -3  13   3    0.06    0.36
  -2 -13   3    2.82    0.38
   2  13  -3    3.57    0.38
  -2  13   3    2.03    0.41
  -1 -13   3    4.24    0.44
   1  13  -3    5.57    0.48
  -1  13   3    5.08    0.52
   0 -13  -3    0.24    0.21
   0 -13   3   -0.02    0.18
   0  13  -3   -0.08    0.21
   0  13   3    0.09    0.22
   0  13   3   -0.19    0.24
  -1 -13  -3    4.80    0.42
  -1  13  -3    4.58    0.43
   1  13   3    4.28    0.44
   1  13   3    4.01    0.44
  -2 -13  -3    0.15    0.29
  -2 -13  -3    0.00    0.31
  -2  13  -3   -0.27    0.24
   2  13   3   -0.13    0.30
   2  13   3    0.35    0.30
  -3 -13  -3    0.13    0.35
  -3 -13  -3    0.50    0.41
   3  13   3    0.46    0.35
  -3 -14   3   -0.27    0.37
  -3  14   3   -0.24    0.39
   3  14  -3    0.17    0.35
  -2 -14   3    0.23    0.31
  -2  14   3   -0.61    0.32
   2  14  -3    0.19    0.31
  -1 -14   3    0.26    0.25
  -1  14   3    0.21    0.30
   1  14  -3    0.25    0.27
   0 -14   3    0.44    0.22
   0  14  -3    0.80    0.27
   0  14   3    0.69    0.30
   0  14   3    0.70    0.26
  -1 -14  -3    0.14    0.24
  -1  14  -3    0.68    0.28
   1  14   3    0.46    0.31
   1  14   3    0.37    0.28
  -2 -14  -3    0.36    0.33
  -2 -14  -3   -0.16    0.35
   2  14   3    0.03    0.33
   2  14   3    0.39    0.35
  -3 -14  -3    1.73    0.51
   3  14   3    1.08    0.42
  -2 -15   3    0.63    0.34
  -2  15   3   -0.07    0.38
   2  15  -3    0.19    0.35
  -1 -15   3    1.33    0.31
  -1  15   3    1.31    0.38
   1  15  -3    1.35    0.35
   0 -15   3    0.00    0.22
   0  15  -3   -0.20    0.28
   0  15   3   -0.18    0.32
   1  15   3    1.07    0.34
  -1  15  -3    0.79    0.32
   1  15   3    1.12    0.38
  -2 -15  -3    0.62    0.42
   2  15   3    1.18    0.41
   2  15   3    0.77    0.39
  -1 -16   3    0.33    0.30
  -1  16   3    0.05    0.36
   1  16  -3    0.16    0.34
   0  16   3    0.68    0.37
   0  16  -3    0.40    0.33
   1  16   3    0.60    0.39
  -5   0   4   -0.19    0.31
   5   0  -4    0.01    0.29
  -4   0   4    0.77    0.24
   4   0  -4    0.89    0.24
   3   0  -4    0.01    0.13
  -3   0   4    0.11    0.09
  -3   0   4   -0.09    0.13
  -3   0   4   -0.03    0.14
  -2   0   4   95.16    5.29
  -2   0   4   99.63    4.17
   2   0  -4  101.00    5.38
  -2   0   4   97.32    5.38
   1   0  -4    0.06    0.05
  -1   0   4    0.11    0.05
  -1   0   4    0.08    0.05
  -1   0   4    0.03    0.04
   0   0   4   51.19    2.56
   0   0   4   51.31    1.99
   0   0  -4   38.13    2.56
   1   0   4   -0.02    0.04
  -2   0  -4   35.56    1.91
   2   0   4   34.44    1.93
   3   0   4    0.11    0.12
  -3   0  -4   -0.13    0.12
   4   0   4   13.79    0.84
  -4   0  -4   13.89    0.87
   5  -1  -4    0.38    0.30
  -5  -1   4    0.32    0.33
  -5   1   4    0.13    0.31
   5   1  -4   -0.14    0.28
   4  -1  -4    6.73    0.53
  -4  -1   4    6.59    0.54
   4   1  -4    6.53    0.53
  -4   1   4    6.85    0.52
  -3  -1   4    2.62    0.20
   3  -1  -4    2.74    0.27
  -3  -1   4    2.44    0.25
   3   1  -4    2.61    0.25
  -3   1   4    2.58    0.24
  -3   1   4    2.40    0.25
  -3   1   4    2.41    0.18
  -2  -1   4   13.49    0.73
  -2  -1   4   12.67    0.57
   2  -1  -4   12.70    0.74
  -2   1   4   12.61    0.74
  -2   1   4   12.55    0.57
   2   1  -4   12.95    0.74
  -2   1   4   12.73    0.73
  -1  -1   4    1.44    0.11
  -1  -1   4    1.51    0.12
  -1  -1   4    1.29    0.09
  -1  -1   4    1.45    0.10
   1  -1  -4    1.63    0.11
  -1   1   4    1.33    0.09
   1   1  -4    1.53    0.12
  -1   1   4    1.51    0.11
  -1   1   4    1.43    0.12
   0  -1  -4  113.93    5.89
   0  -1   4  108.12    5.78
   0  -1   4  129.15    4.57
   0   1   4   93.74    5.79
   0   1  -4   94.77    5.87
   1  -1   4    1.67    0.11
   1  -1   4    1.62    0.08
   1   1   4    1.68    0.12
  -1   1  -4    1.72    0.12
   1   1   4    1.74    0.13
  -2  -1  -4  125.54    6.89
   2  -1   4  128.08    6.98
   2   1   4  124.67    6.99
  -2   1  -4  134.47    6.89
  -3  -1  -4    6.67    0.47
   3  -1   4    6.91    0.43
   3   1   4    6.55    0.44
  -3   1  -4    6.98    0.46
  -4  -1  -4    0.30    0.21
   4  -1   4   -0.14    0.17
   4   1   4    0.03    0.18
  -4   1  -4    0.09    0.20
   5  -2  -4    2.65    0.38
  -5  -2   4    2.81    0.44
  -5   2   4    2.78    0.41
   5   2  -4    2.78    0.42
  -4  -2   4    0.77    0.26
   4  -2  -4    0.90    0.23
  -4   2   4    0.93    0.24
   4   2  -4    0.96    0.24
  -4   2   4    0.40    0.23
  -3  -2   4   15.54    0.87
   3  -2  -4   14.29    0.87
  -3  -2   4   15.02    0.67
  -3   2   4   14.43    0.66
  -3   2   4   15.03    0.88
  -3   2   4   14.35    0.85
   3   2  -4   14.23    0.87
  -2  -2   4    3.54    0.27
   2  -2  -4    3.49    0.26
  -2  -2   4    3.60    0.20
  -2   2   4    4.10    0.25
  -2   2   4    3.56    0.19
   2   2  -4    3.24    0.26
  -2   2   4    3.85    0.27
  -1  -2   4    0.59    0.06
  -1  -2   4    0.66    0.06
  -1  -2   4    0.74    0.08
   1  -2  -4    0.33    0.07
   1   2  -4    0.41    0.07
  -1   2   4    0.65    0.07
  -1   2   4    0.72    0.08
   0  -2   4    1.92    0.10
   0   2   4    1.66    0.15
   0   2   4    2.11    0.14
   1  -2   4  126.13    5.32
  -1   2  -4  126.88    6.85
   1   2   4  123.41    6.86
   1   2   4  121.50    6.76
  -1   2  -4  131.79    6.75
   2  -2   4    7.12    0.42
  -2  -2  -4    7.50    0.45
   2   2   4    7.56    0.45
  -2   2  -4    7.30    0.45
  -2   2  -4    7.38    0.44
   3  -2   4    2.62    0.23
  -3  -2  -4    2.70    0.27
   3   2   4    2.72    0.25
  -3   2  -4    2.69    0.26
  -4  -2  -4    3.46    0.36
   4   2   4    3.46    0.34
  -5  -2  -4    0.50    0.33
  -5  -3   4    0.21    0.34
   5  -3  -4   -0.07    0.28
   5   3  -4    0.49    0.31
  -5   3   4   -0.16    0.29
  -4  -3   4   -0.23    0.22
  -4  -3   4   -0.02    0.14
   4  -3  -4   -0.04    0.20
  -4   3   4   -0.11    0.19
   4   3  -4    0.13    0.22
  -4   3   4   -0.03    0.22
  -3  -3   4   11.22    0.71
   3  -3  -4   11.37    0.71
  -3  -3   4   12.38    0.55
  -3   3   4   11.34    0.53
  -3   3   4   11.26    0.72
   3   3  -4   11.98    0.72
  -3   3   4   11.59    0.69
  -2  -3   4   20.15    0.89
   2  -3  -4   20.39    1.14
  -2  -3   4   19.84    1.13
  -2   3   4   20.07    0.88
  -2   3   4   19.90    1.06
  -2   3   4   20.99    1.12
   2   3  -4   20.55    1.15
  -2   3   4   19.69    1.15
   1  -3  -4  103.08    5.61
   1  -3  -4  107.48    5.34
  -1  -3   4  101.75    5.52
  -1  -3   4   96.26    5.35
  -1  -3   4  101.97    4.36
   1   3  -4   98.69    5.61
  -1   3   4  107.18    5.52
  -1   3   4  105.96    5.61
   0  -3   4   19.46    0.82
   0  -3  -4   19.32    1.07
   0   3  -4   18.42    1.00
   0   3  -4   18.77    1.02
   0   3   4   18.43    1.06
   1  -3   4    1.84    0.10
   1   3   4    1.96    0.15
  -1   3  -4    1.72    0.12
   1   3   4    1.84    0.15
  -1   3  -4    1.87    0.12
   2  -3   4   15.27    0.85
  -2  -3  -4   15.13    0.87
   2   3   4   15.01    0.87
  -2   3  -4   15.72    0.87
  -2   3  -4   15.15    0.85
   3  -3   4   40.01    2.16
  -3  -3  -4   36.59    2.16
  -3   3  -4   40.15    2.15
   3   3   4   38.52    2.18
  -3   3  -4   39.88    2.19
  -4  -3  -4    1.34    0.27
   4   3   4    1.32    0.24
  -5  -3  -4    3.54    0.45
   5   3   4    2.45    0.37
   5  -4  -4    3.66    0.44
  -5  -4   4    3.46    0.49
  -5   4   4    3.84    0.43
   5   4  -4    3.80    0.45
  -5   4   4    4.33    0.50
  -4  -4   4    0.00    0.15
  -4  -4   4    0.16    0.24
   4  -4  -4    0.00    0.20
   4   4  -4    0.20    0.22
  -4   4   4    0.06    0.24
  -4   4   4    0.04    0.20
   3  -4  -4   13.89    0.85
  -3  -4   4   14.29    0.66
  -3  -4   4   13.92    0.85
   3   4  -4   14.51    0.86
  -3   4   4   15.08    0.83
  -3   4   4   13.83    0.64
  -3   4   4   13.90    0.86
  -2  -4   4   25.72    1.41
   2  -4  -4   25.93    1.42
  -2  -4   4   25.11    1.11
   2   4  -4   24.92    1.42
  -2   4   4   24.45    1.42
  -2   4   4   24.82    1.39
  -2   4   4   26.08    1.33
  -1  -4   4   21.64    1.15
   1  -4  -4   22.62    1.21
   1  -4  -4   22.19    1.14
  -1  -4   4   21.59    0.94
   1   4  -4   21.14    1.20
  -1   4   4   21.19    1.21
  -1   4   4   20.97    1.19
   0  -4  -4    1.46    0.14
   0  -4   4    0.81    0.07
   0  -4   4    0.75    0.08
   0   4  -4    1.02    0.08
   0   4   4    1.12    0.13
   0   4  -4    0.99    0.10
   0   4   4    0.84    0.12
   0   4  -4    0.92    0.07
  -1  -4  -4   27.51    1.50
   1   4   4   26.11    1.50
  -1   4  -4   26.79    1.46
   1   4   4   26.86    1.48
  -1   4  -4   27.82    1.48
  -2  -4  -4    2.19    0.20
  -2   4  -4    2.07    0.17
  -2   4  -4    2.00    0.19
   2   4   4    1.92    0.19
   2   4   4    2.33    0.21
  -3  -4  -4   12.99    0.81
   3   4   4   12.97    0.80
  -3   4  -4   13.32    0.80
  -3   4  -4   13.50    0.78
  -4  -4  -4    1.28    0.29
   4   4   4    1.57    0.27
  -5  -4  -4   -0.07    0.32
   5   4   4    0.21    0.29
  -5  -5   4    0.11    0.37
   5   5  -4    0.00    0.31
  -5   5   4   -0.12    0.29
  -5   5   4   -0.25    0.34
   4  -5  -4    2.95    0.32
  -4  -5   4    2.84    0.25
  -4  -5   4    2.48    0.34
  -4   5   4    2.97    0.31
   4   5  -4    1.77    0.31
  -4   5   4    2.43    0.34
  -3  -5   4    8.92    0.46
  -3  -5   4    9.82    0.61
   3  -5  -4    9.52    0.59
  -3   5   4    9.28    0.57
  -3   5   4    9.36    0.44
  -3   5   4    8.51    0.51
   3   5  -4    8.57    0.60
  -3   5   4    8.95    0.61
  -2  -5   4    0.01    0.11
   2  -5  -4    0.17    0.10
  -2  -5   4   -0.04    0.09
  -2   5   4    0.11    0.12
   2   5  -4    0.13    0.11
  -2   5   4    0.14    0.10
  -2   5   4    0.15    0.07
  -1  -5   4   14.73    0.83
  -1  -5   4   15.39    0.86
   1  -5  -4   15.95    0.82
  -1  -5   4   15.67    0.69
   1  -5  -4   15.66    0.87
  -1   5   4   15.01    0.86
  -1   5   4   15.88    0.88
   1   5  -4   16.04    0.87
   1   5  -4   14.13    0.85
   0  -5  -4   22.96    1.27
   0  -5   4   22.47    0.97
   0  -5   4   22.74    1.21
   0   5  -4   23.83    1.21
   0   5  -4   20.76    1.19
   0   5  -4   22.20    1.23
   0   5   4   22.43    1.25
   0   5   4   21.52    1.26
  -1  -5  -4    0.99    0.13
  -1   5  -4    0.85    0.08
   1   5   4    0.84    0.12
  -1   5  -4    0.97    0.10
   1   5   4    1.01    0.13
  -2   5  -4   27.32    1.48
  -2   5  -4   26.50    1.51
   2   5   4   27.65    1.51
   2   5   4   27.40    1.53
  -3  -5  -4   10.37    0.68
  -3   5  -4   10.44    0.66
   3   5   4   10.71    0.67
  -4  -5  -4    0.05    0.25
   4   5   4    0.57    0.24
  -4   5  -4    0.42    0.25
  -5  -5  -4    0.58    0.36
   5   5   4    1.05    0.35
  -5  -6   4    0.78    0.39
   5   6  -4    0.38    0.31
  -5   6   4    0.14    0.37
  -4  -6   4    0.66    0.19
   4  -6  -4    0.52    0.22
  -4  -6   4    0.66    0.28
  -4   6   4    0.28    0.22
   4   6  -4    0.36    0.25
  -4   6   4    0.54    0.28
  -3  -6   4    0.72    0.16
   3  -6  -4    0.82    0.18
  -3  -6   4    0.55    0.19
   3   6  -4    0.51    0.19
  -3   6   4    1.14    0.19
  -3   6   4    0.98    0.13
  -3   6   4    1.00    0.21
  -3   6   4    0.72    0.14
  -2  -6   4   36.32    1.58
   2  -6  -4   35.64    2.03
  -2  -6   4   36.28    2.00
  -2   6   4   36.69    1.99
  -2   6   4   36.23    1.91
  -2   6   4   36.98    2.04
   2   6  -4   36.61    2.03
  -1  -6   4    6.33    0.33
  -1  -6   4    6.93    0.40
   1  -6  -4    6.86    0.40
   1  -6  -4    6.28    0.37
  -1  -6   4    6.35    0.39
   1   6  -4    6.39    0.40
  -1   6   4    6.01    0.42
  -1   6   4    6.45    0.41
   1   6  -4    6.17    0.39
   0  -6   4   37.66    1.95
   0  -6   4   35.69    1.55
   0  -6  -4   39.06    2.01
   0   6  -4   37.16    1.95
   0   6   4   35.74    1.98
   0   6  -4   33.83    1.98
   0   6  -4   33.95    1.90
   0   6   4   35.79    2.01
  -1  -6  -4    0.37    0.13
  -1   6  -4    0.21    0.09
   1   6   4    0.35    0.11
  -1   6  -4    0.08    0.07
  -1   6  -4    0.28    0.10
   1   6   4    0.24    0.11
   2   6   4   19.82    1.13
   2   6   4   19.36    1.12
  -2   6  -4   19.14    1.10
  -2   6  -4   20.03    1.08
  -3  -6  -4    7.30    0.54
  -3   6  -4    6.89    0.50
   3   6   4    7.50    0.52
  -4  -6  -4    9.56    0.75
   4   6   4   10.41    0.72
  -4   6  -4   10.14    0.72
  -5  -6  -4    0.00    0.36
   5   6   4   -0.14    0.34
  -5  -7   4   -0.03    0.38
  -5   7   4    0.12    0.38
   5   7  -4    0.07    0.33
   4  -7  -4    1.78    0.28
  -4  -7   4    1.35    0.32
  -4   7   4    1.68    0.34
  -4   7   4    1.34    0.27
   4   7  -4    1.90    0.31
  -3  -7   4    0.60    0.17
  -3  -7   4    0.58    0.21
   3  -7  -4    0.61    0.18
  -3   7   4    0.82    0.22
  -3   7   4    0.56    0.18
   3   7  -4    0.74    0.20
   2  -7  -4    2.38    0.25
  -2  -7   4    2.66    0.27
  -2  -7   4    2.63    0.21
  -2   7   4    2.94    0.22
  -2   7   4    3.13    0.28
   2   7  -4    2.70    0.28
  -2   7   4    2.91    0.27
  -1  -7   4    1.81    0.17
  -1  -7   4    1.66    0.15
  -1  -7   4    1.73    0.18
   1  -7  -4    1.81    0.18
   1   7  -4    1.48    0.15
  -1   7   4    1.43    0.20
   1   7  -4    1.61    0.16
  -1   7   4    1.53    0.19
   0  -7  -4   26.78    1.42
   0  -7   4   25.31    1.36
   0   7  -4   24.40    1.38
   0   7  -4   22.90    1.33
   0   7   4   24.43    1.41
   0   7   4   25.67    1.40
   0   7  -4   25.31    1.36
  -1  -7  -4    2.85    0.26
   1   7   4    2.48    0.24
  -1   7  -4    2.58    0.21
  -1   7  -4    1.94    0.19
   1   7   4    2.49    0.23
  -1   7  -4    1.85    0.19
  -2  -7  -4   31.93    1.78
  -2   7  -4   30.94    1.75
  -2   7  -4   31.66    1.69
   2   7   4   30.95    1.76
   2   7   4   31.83    1.77
  -3  -7  -4   -0.06    0.20
  -3   7  -4    0.12    0.17
   3   7   4    0.21    0.18
  -4  -7  -4    0.30    0.30
  -4   7  -4    0.27    0.26
   4   7   4    0.50    0.28
  -5  -7  -4    0.20    0.39
   5   7   4   -0.47    0.35
  -5  -8   4    0.28    0.41
   5   8  -4    0.54    0.34
  -5   8   4    0.85    0.42
  -4  -8   4    0.79    0.33
  -4   8   4    0.70    0.33
   4   8  -4    0.80    0.27
  -3  -8   4    3.00    0.33
   3  -8  -4    2.94    0.30
  -3   8   4    2.92    0.30
   3   8  -4    3.03    0.31
  -3   8   4    2.91    0.35
  -2  -8   4    9.31    0.62
   2  -8  -4    9.46    0.61
  -2   8   4   10.05    0.65
   2   8  -4    9.73    0.62
  -2   8   4   10.77    0.63
  -1  -8   4    1.90    0.21
  -1  -8   4    2.11    0.20
   1  -8  -4    2.42    0.23
  -1   8   4    1.62    0.22
   1   8  -4    2.19    0.21
   1   8  -4    1.83    0.19
  -1   8   4    2.21    0.24
   0  -8   4    1.56    0.11
   0  -8   4    1.24    0.13
   0  -8  -4    1.63    0.20
   0   8   4    1.18    0.19
   0   8  -4    1.05    0.13
   0   8  -4    1.02    0.15
   0   8   4    1.15    0.18
   0   8  -4    1.21    0.13
  -1  -8  -4    4.79    0.43
  -1   8  -4    5.37    0.38
  -1   8  -4    6.53    0.38
   1   8   4    5.81    0.41
   1   8   4    5.84    0.41
  -2  -8  -4    4.99    0.42
   2   8   4    4.69    0.40
   2   8   4    5.39    0.41
  -2   8  -4    4.90    0.35
  -2   8  -4    4.52    0.36
  -3  -8  -4    0.37    0.24
  -3   8  -4    0.34    0.19
  -3   8  -4    0.53    0.18
   3   8   4    0.49    0.22
  -4  -8  -4    4.06    0.50
  -4   8  -4    4.47    0.44
   4   8   4    4.27    0.46
  -4  -9   4    0.01    0.32
   4   9  -4    0.19    0.27
  -4   9   4    0.21    0.33
  -3  -9   4    3.21    0.37
   3  -9  -4    3.30    0.33
  -3   9   4    3.38    0.34
   3   9  -4    3.14    0.33
  -3   9   4    3.51    0.38
  -2  -9   4    0.43    0.18
  -2  -9   4    0.82    0.19
   2  -9  -4    0.70    0.16
  -2   9   4    0.59    0.19
   2   9  -4    0.58    0.18
  -2   9   4    0.46    0.21
   1  -9  -4   42.35    2.36
  -1  -9   4   39.19    2.35
  -1  -9   4   44.18    2.32
   1   9  -4   47.29    2.35
   1   9  -4   43.86    2.31
  -1   9   4   35.97    2.34
  -1   9   4   42.89    2.38
   0  -9   4    0.44    0.07
   0  -9  -4    0.54    0.16
   0  -9   4    0.42    0.11
   0   9  -4    0.33    0.11
   0   9  -4    0.18    0.13
   0   9   4    0.20    0.16
   0   9   4    0.31    0.16
   0   9  -4    0.25    0.11
  -1  -9  -4    0.32    0.19
  -1   9  -4    0.58    0.15
  -1   9  -4    0.71    0.16
   1   9   4    0.48    0.17
   1   9   4    0.63    0.17
  -2  -9  -4    0.91    0.24
  -2   9  -4    0.82    0.18
   2   9   4    1.07    0.23
   2   9   4    0.80    0.22
  -2   9  -4    1.20    0.19
  -3  -9  -4    7.73    0.58
  -3  -9  -4    5.72    0.59
   3   9   4    7.75    0.57
  -3   9  -4    6.45    0.49
  -3   9  -4    6.95    0.51
  -4  -9  -4    0.19    0.35
  -4   9  -4    0.37    0.28
   4   9   4    0.55    0.32
  -4 -10   4    0.21    0.35
  -4  10   4    0.53    0.36
   4  10  -4   -0.13    0.27
  -3 -10   4    1.61    0.32
  -3 -10   4    1.38    0.29
  -3  10   4    1.19    0.29
   3  10  -4    1.37    0.27
  -3  10   4    1.80    0.33
  -2 -10   4    1.32    0.23
  -2 -10   4    1.57    0.25
   2 -10  -4    1.50    0.21
   2  10  -4    1.13    0.22
  -2  10   4    0.99    0.26
  -2  10   4    1.27    0.25
   1 -10  -4    0.64    0.17
  -1 -10   4    0.84    0.17
  -1 -10   4    0.75    0.18
  -1  10   4    0.69    0.23
   1  10  -4    0.73    0.16
  -1  10   4    1.13    0.23
   1  10  -4    0.84    0.17
   0 -10  -4    3.11    0.28
   0 -10   4    2.20    0.20
   0  10  -4    2.07    0.22
   0  10   4    2.27    0.26
   0  10   4    2.38    0.28
  -1 -10  -4   18.88    1.20
  -1  10  -4   21.42    1.17
   1  10   4   17.34    1.16
   1  10   4   19.85    1.18
  -1  10  -4   22.34    1.12
  -2 -10  -4    0.06    0.24
  -2  10  -4    0.01    0.16
   2  10   4   -0.12    0.20
  -2  10  -4    0.63    0.18
   2  10   4    0.26    0.23
  -3 -10  -4    1.94    0.34
  -3 -10  -4    1.55    0.36
  -3  10  -4    1.87    0.25
   3  10   4    2.25    0.34
  -3  10  -4    2.17    0.28
  -4 -10  -4   -0.23    0.37
  -4 -10  -4   -0.28    0.31
   4  10   4    0.23    0.34
  -4 -11   4    0.68    0.39
  -4 -11   4   -0.30    0.34
   4  11  -4    0.73    0.33
  -4  11   4    1.76    0.44
  -3 -11   4    0.72    0.31
  -3 -11   4    0.48    0.27
   3  11  -4    0.60    0.27
  -3  11   4    1.11    0.34
  -2 -11   4    0.16    0.21
  -2 -11   4    0.76    0.23
   2 -11  -4    0.33    0.18
  -2  11   4   -0.07    0.24
  -2  11   4    0.80    0.25
   2  11  -4    0.51    0.21
   1 -11  -4    3.57    0.36
  -1 -11   4    4.17    0.36
  -1  11   4    4.72    0.44
   1  11  -4    4.53    0.38
  -1  11   4    5.26    0.45
   0 -11   4    9.80    0.60
   0 -11  -4   10.79    0.66
   0  11   4   10.30    0.68
   0  11  -4   10.20    0.63
   0  11   4    8.99    0.65
  -1 -11  -4    0.31    0.23
  -1  11  -4   -0.14    0.18
   1  11   4   -0.11    0.20
  -1  11  -4    0.08    0.16
   1  11   4   -0.03    0.20
  -2 -11  -4    0.73    0.29
  -2  11  -4    1.04    0.21
  -2  11  -4    1.55    0.24
   2  11   4    1.45    0.30
   2  11   4    1.26    0.28
  -3 -11  -4    2.90    0.42
  -3 -11  -4    3.46    0.48
   3  11   4    2.68    0.44
   3  11   4    2.64    0.38
  -4 -11  -4    0.19    0.42
  -4 -11  -4   -0.01    0.34
   4  11   4    0.43    0.38
  -4 -12   4    0.11    0.39
  -4  12   4    1.03    0.45
   4  12  -4    0.13    0.33
  -3 -12   4   -0.43    0.30
  -3  12   4    0.41    0.34
   3  12  -4    0.22    0.27
  -2 -12   4    1.45    0.29
   2  12  -4    1.87    0.30
  -2  12   4    0.86    0.31
  -1 -12   4    0.09    0.18
   1 -12  -4    0.11    0.18
   1  12  -4    0.03    0.19
  -1  12   4    0.01    0.25
  -1  12   4    0.15    0.22
   0 -12   4    2.10    0.23
   0 -12  -4    2.05    0.28
   0  12   4    2.12    0.31
   0  12  -4    1.90    0.25
   0  12   4    2.07    0.29
  -1 -12  -4    5.93    0.50
   1  12   4    5.37    0.50
  -1  12  -4    5.75    0.45
  -1  12  -4    5.36    0.47
   1  12   4    5.26    0.48
  -2 -12  -4    0.41    0.27
  -2  12  -4    0.85    0.22
   2  12   4    1.01    0.32
   2  12   4    0.83    0.29
  -3 -12  -4    0.32    0.35
  -3 -12  -4   -0.04    0.36
   3  12   4    0.86    0.37
   3  12   4    0.54    0.33
  -3 -13   4    0.44    0.35
  -3  13   4    0.39    0.38
   3  13  -4    0.48    0.31
  -2 -13   4    0.31    0.27
   2  13  -4    0.29    0.27
  -2  13   4   -0.32    0.30
  -1 -13   4    0.10    0.21
   1  13  -4   -0.07    0.22
  -1  13   4   -0.35    0.26
  -1  13   4    0.01    0.22
   0 -13   4    2.76    0.28
   0 -13  -4    2.97    0.32
   0  13  -4    3.06    0.33
   0  13   4    2.61    0.36
   0  13   4    2.88    0.34
  -1 -13  -4    0.22    0.24
   1  13   4    0.00    0.25
   1  13   4    0.01    0.27
  -1  13  -4    0.17    0.24
  -2 -13  -4    0.51    0.35
  -2 -13  -4    1.10    0.34
   2  13   4    0.73    0.32
   2  13   4    0.25    0.33
  -3 -13  -4    0.99    0.37
  -3 -13  -4    0.81    0.43
   3  13   4    0.32    0.36
   3  13   4    1.06    0.42
  -3 -14   4    0.07    0.37
   3  14  -4    0.04    0.34
  -3  14   4   -0.76    0.40
  -2 -14   4    1.80    0.35
  -2  14   4    0.75    0.38
   2  14  -4    2.12    0.37
  -1 -14   4   -0.02    0.23
  -1  14   4    0.03    0.30
   1  14  -4    0.17    0.26
   0 -14   4    0.36    0.20
   0 -14  -4    0.41    0.24
   0  14  -4    0.58    0.26
   0  14   4    0.18    0.26
   0  14   4    0.27    0.29
  -1 -14  -4    1.99    0.31
  -1  14  -4    1.71    0.33
   1  14   4    1.82    0.35
   1  14   4    1.86    0.36
  -2 -14  -4   -0.12    0.36
  -2 -14  -4    0.19    0.32
   2  14   4    0.24    0.35
   2  14   4   -0.08    0.35
  -3 -14  -4    0.12    0.46
   3  14   4   -0.05    0.42
   3  14   4   -0.06    0.38
  -2 -15   4   -0.22    0.31
   2  15  -4    0.37    0.35
  -2  15   4    0.29    0.39
  -1 -15   4    0.28    0.27
   1  15  -4    0.72    0.31
  -1  15   4    0.82    0.36
   0  15  -4    0.37    0.28
   0  15   4    0.02    0.33
   1  15   4    0.36    0.35
   1  15   4   -0.42    0.29
  -2 -15  -4    0.57    0.34
  -2 -15  -4    1.33    0.45
   2  15   4    1.40    0.43
   2  15   4    0.15    0.39
  -1 -16   4    0.79    0.31
  -1  16   4    0.24    0.37
   1  16  -4    0.84    0.36
   0  16  -4   -0.07    0.31
   0  16   4    0.12    0.37
   1  16   4    1.96    0.45
  -5   0   5    0.24    0.33
   5   0  -5    0.07    0.29
  -4   0   5   -0.12    0.21
   4   0  -5    0.14    0.21
  -3   0   5    4.33    0.35
  -3   0   5    4.38    0.33
  -3   0   5    4.00    0.26
   3   0  -5    4.65    0.35
  -2   0   5   -0.03    0.08
   2   0  -5   -0.05    0.08
  -2   0   5    0.19    0.10
  -2   0   5    0.00    0.07
  -1   0   5   19.07    1.03
  -1   0   5   18.68    0.81
  -1   0   5   19.24    1.05
   1   0  -5   17.95    1.04
   0   0   5    0.29    0.06
   0   0   5    0.07    0.04
   0   0   5    0.09    0.03
   0   0  -5    0.19    0.06
   1   0   5  243.40   13.24
   2   0   5   -0.12    0.07
  -2   0  -5   -0.04    0.08
  -3   0  -5    7.45    0.49
   3   0   5    7.22    0.46
   4   0   5   -0.14    0.17
  -4   0  -5   -0.09    0.20
   5  -1  -5    2.80    0.41
  -5  -1   5    3.25    0.45
   5   1  -5    2.87    0.41
  -5   1   5    3.18    0.44
  -4  -1   5   -0.03    0.21
  -4  -1   5   -0.02    0.13
   4  -1  -5    0.01    0.20
  -4   1   5    0.17    0.21
   4   1  -5    0.01    0.21
  -3  -1   5   28.33    1.19
  -3  -1   5   26.61    1.52
   3  -1  -5   25.85    1.55
   3   1  -5   26.70    1.55
  -3   1   5   27.23    1.55
  -3   1   5   27.77    1.19
  -3   1   5   28.01    1.52
  -2  -1   5  100.35    4.23
   2  -1  -5   98.12    5.45
  -2  -1   5  101.57    5.36
  -2   1   5   99.45    4.23
   2   1  -5  100.00    5.45
  -2   1   5   95.10    5.45
  -2   1   5  101.95    5.36
  -1  -1   5    0.23    0.06
  -1  -1   5    0.19    0.06
   1  -1  -5    0.28    0.06
  -1  -1   5    0.17    0.05
  -1   1   5    0.20    0.05
  -1   1   5    0.24    0.07
  -1   1   5    0.26    0.06
   1   1  -5    0.29    0.06
   0  -1   5   23.26    0.92
   0  -1  -5   21.84    1.19
   0   1  -5   19.65    1.17
   0   1   5   18.39    1.17
   0   1   5   23.66    1.18
   1  -1   5   33.23    1.44
   1   1   5   34.19    1.84
   1   1   5   34.54    1.87
   2  -1   5    1.18    0.12
  -2  -1  -5    1.25    0.14
  -2   1  -5    1.25    0.13
   2   1   5    1.32    0.13
   3  -1   5   22.92    1.31
  -3  -1  -5   24.26    1.33
   3   1   5   23.46    1.32
  -3   1  -5   23.01    1.32
  -4  -1  -5    0.13    0.21
   4   1   5    0.12    0.18
   5  -2  -5    0.12    0.30
  -5  -2   5   -0.24    0.33
   5   2  -5   -0.21    0.30
  -5   2   5   -0.04    0.29
   4  -2  -5    4.31    0.42
  -4  -2   5    4.50    0.41
  -4  -2   5    4.34    0.30
  -4   2   5    3.15    0.35
  -4   2   5    3.64    0.39
   4   2  -5    4.42    0.43
   3  -2  -5   11.40    0.69
  -3  -2   5   10.85    0.53
  -3  -2   5   10.76    0.69
  -3   2   5   10.97    0.68
   3   2  -5   11.47    0.70
  -3   2   5   11.22    0.52
  -3   2   5   12.22    0.71
   2  -2  -5   18.32    1.02
  -2  -2   5   18.09    1.00
  -2  -2   5   17.64    0.79
  -2   2   5   17.21    0.78
  -2   2   5   18.82    1.00
  -2   2   5   17.56    1.02
   2   2  -5   17.39    1.02
  -1  -2   5   36.46    1.97
  -1  -2   5   36.99    1.56
   1  -2  -5   36.22    2.00
  -1  -2   5   36.61    1.90
  -1   2   5   36.15    2.00
   1   2  -5   36.09    2.00
  -1   2   5   36.07    1.97
   0  -2   5   41.24    1.73
   0  -2  -5   41.80    2.24
   0   2   5   42.31    2.23
   0   2   5   36.84    2.20
   1  -2   5    0.86    0.07
   1   2   5    0.98    0.11
   1   2   5    0.90    0.09
  -1   2  -5    0.92    0.08
  -1   2  -5    0.92    0.08
  -2  -2  -5   55.74    3.12
   2  -2   5   58.68    3.14
  -2   2  -5   58.99    3.16
  -2   2  -5   57.79    3.11
   2   2   5   56.54    3.16
  -3  -2  -5    1.14    0.19
   3  -2   5    0.82    0.13
  -3   2  -5    0.69    0.16
   3   2   5    1.04    0.17
  -4  -2  -5    2.82    0.34
   4   2   5    2.94    0.30
   5  -3  -5    0.27    0.30
  -5  -3   5    0.50    0.37
   5   3  -5    0.17    0.32
  -5   3   5    0.35    0.30
  -4  -3   5   -0.06    0.23
  -4  -3   5   -0.06    0.14
   4  -3  -5    0.15    0.21
  -4   3   5    0.22    0.23
  -4   3   5   -0.02    0.20
   4   3  -5   -0.08    0.21
  -3  -3   5   -0.05    0.15
   3  -3  -5    0.14    0.14
  -3  -3   5    0.07    0.11
  -3   3   5    0.03    0.10
   3   3  -5    0.04    0.15
  -3   3   5    0.06    0.16
  -3   3   5    0.14    0.13
  -2  -3   5  143.97    7.50
  -2  -3   5  140.16    5.92
   2  -3  -5  139.52    7.62
  -2  -3   5  137.56    7.25
  -2   3   5  143.80    7.49
  -2   3   5  138.41    5.92
   2   3  -5  135.23    7.62
  -2   3   5  136.88    7.62
  -1  -3   5    0.20    0.07
   1  -3  -5    0.27    0.07
  -1  -3   5    0.23    0.07
  -1  -3   5    0.13    0.06
   1  -3  -5    0.21    0.04
  -1   3   5    0.20    0.07
  -1   3   5    0.20    0.08
   1   3  -5    0.19    0.07
   0  -3   5  289.63   12.32
   0  -3  -5  300.14   15.86
   0   3   5  283.84   15.87
   1  -3   5    5.48    0.25
  -1   3  -5    5.33    0.30
   1   3   5    5.77    0.33
   1   3   5    5.20    0.34
  -2  -3  -5    5.47    0.36
   2   3   5    5.36    0.35
   2   3   5    5.05    0.35
  -2   3  -5    5.36    0.33
  -2   3  -5    5.55    0.34
  -3  -3  -5    6.04    0.45
   3   3   5    5.85    0.43
  -3   3  -5    6.51    0.42
  -4  -3  -5    2.02    0.31
   4   3   5    1.86    0.27
  -5  -3  -5    0.11    0.31
   5  -4  -5    0.39    0.30
  -5  -4   5    0.07    0.35
  -5   4   5    0.26    0.34
   5   4  -5    0.69    0.33
  -5   4   5    0.52    0.31
  -4  -4   5    6.65    0.41
   4  -4  -5    7.58    0.55
  -4  -4   5    6.08    0.57
  -4   4   5    7.19    0.53
  -4   4   5    7.12    0.58
   4   4  -5    6.97    0.56
  -3  -4   5    0.86    0.14
   3  -4  -5    0.78    0.17
  -3  -4   5    0.62    0.18
  -3   4   5    0.88    0.17
  -3   4   5    0.83    0.12
  -3   4   5    0.87    0.20
   3   4  -5    1.00    0.20
  -3   4   5    0.91    0.10
  -2  -4   5   14.98    0.68
   2  -4  -5   14.85    0.86
  -2  -4   5   14.22    0.81
  -2  -4   5   14.86    0.86
  -2   4   5   15.78    0.79
  -2   4   5   15.36    0.85
  -2   4   5   14.74    0.87
   2   4  -5   14.59    0.86
  -1  -4   5    0.46    0.08
   1  -4  -5    0.48    0.09
  -1  -4   5    0.31    0.07
  -1  -4   5    0.32    0.08
   1  -4  -5    0.43    0.06
   1   4  -5    0.41    0.08
  -1   4   5    0.54    0.09
  -1   4   5    0.45    0.10
   0  -4  -5   46.04    2.31
   0  -4   5   41.71    1.78
   0   4   5   40.54    2.30
   0   4   5   42.55    2.28
   0   4  -5   39.98    2.18
   0   4  -5   40.02    2.24
   0   4  -5   41.13    2.27
  -1  -4  -5    5.76    0.36
   1  -4   5    5.32    0.26
   1   4   5    5.90    0.35
  -1   4  -5    5.45    0.31
   1   4   5    5.59    0.35
   2   4   5   46.47    2.51
   2   4   5   43.60    2.48
  -2   4  -5   44.80    2.46
  -2   4  -5   46.89    2.50
  -3  -4  -5    1.51    0.23
  -3   4  -5    1.31    0.21
   3   4   5    1.31    0.20
  -4  -4  -5    1.12    0.28
   4   4   5    1.30    0.26
  -5  -4  -5    0.34    0.34
  -5  -5   5    0.76    0.39
   5   5  -5    1.25    0.36
  -5   5   5    0.90    0.32
  -5   5   5    1.24    0.39
  -4  -5   5    0.15    0.26
   4  -5  -5    0.28    0.22
  -4  -5   5    0.17    0.17
   4   5  -5    0.03    0.23
  -4   5   5    0.33    0.25
  -4   5   5    0.24    0.22
  -3  -5   5   13.47    0.63
  -3  -5   5   12.28    0.80
   3  -5  -5   13.58    0.80
  -3   5   5   12.53    0.61
  -3   5   5   12.86    0.78
  -3   5   5   14.06    0.82
   2  -5  -5   13.93    0.76
  -2  -5   5   12.82    0.60
  -2  -5   5   12.39    0.75
  -2   5   5   12.41    0.77
   2   5  -5   13.03    0.76
  -1  -5   5    0.14    0.08
   1  -5  -5    0.30    0.07
   1  -5  -5    0.48    0.10
  -1  -5   5    0.15    0.08
   1   5  -5    0.21    0.08
  -1   5   5    0.35    0.10
  -1   5   5    0.20    0.10
   0  -5   5    8.40    0.46
   0  -5  -5    8.66    0.52
   0  -5   5    8.90    0.39
   0   5   5    8.97    0.52
   0   5  -5    7.41    0.47
   0   5   5    8.84    0.52
   0   5  -5    8.16    0.47
   0   5  -5    8.35    0.46
  -1  -5  -5   18.39    1.02
   1   5   5   16.68    1.01
  -1   5  -5   17.95    0.99
  -1   5  -5   17.79    0.97
   1   5   5   18.31    1.00
   2   5   5    5.65    0.39
  -2   5  -5    5.98    0.34
   2   5   5    5.36    0.39
  -2   5  -5    5.43    0.36
  -3  -5  -5    2.18    0.28
  -3   5  -5    2.25    0.25
   3   5   5    2.02    0.25
  -4  -5  -5    0.38    0.27
   4   5   5    0.29    0.24
  -5  -5  -5    0.03    0.34
   5   5   5   -0.06    0.31
  -5  -6   5    1.24    0.41
  -5   6   5    0.86    0.39
   5   6  -5    0.73    0.35
  -5   6   5    1.11    0.33
   4  -6  -5    0.53    0.24
  -4  -6   5   -0.13    0.26
  -4  -6   5    0.12    0.19
  -4   6   5    0.33    0.27
   4   6  -5    0.15    0.25
  -4   6   5   -0.11    0.21
   3  -6  -5    2.16    0.26
  -3  -6   5    2.58    0.29
  -3  -6   5    2.38    0.22
   3   6  -5    2.55    0.29
  -3   6   5    2.39    0.25
  -3   6   5    2.52    0.29
  -3   6   5    2.60    0.21
  -2  -6   5    0.95    0.13
   2  -6  -5    1.05    0.15
  -2  -6   5    0.85    0.16
  -2   6   5    1.35    0.19
  -2   6   5    1.04    0.15
   2   6  -5    0.87    0.16
  -1  -6   5  159.09    8.30
   1  -6  -5  159.28    8.32
   1  -6  -5  159.51    7.93
  -1  -6   5  152.66    6.47
  -1  -6   5  150.04    8.18
   1   6  -5  159.47    8.31
   1   6  -5  142.47    8.18
  -1   6   5  149.48    8.20
  -1   6   5  139.29    8.33
   0  -6  -5    8.42    0.50
   0  -6   5    7.83    0.37
   0  -6   5    7.91    0.44
   0   6  -5    7.68    0.45
   0   6   5    7.96    0.50
   0   6   5    7.66    0.50
   0   6  -5    7.61    0.45
   0   6  -5    7.84    0.44
  -1  -6  -5   19.02    1.12
   1   6   5   20.06    1.10
  -1   6  -5   19.31    1.06
  -1   6  -5   20.18    1.06
   1   6   5   18.75    1.11
   2   6   5    2.81    0.26
  -2   6  -5    2.48    0.22
   2   6   5    2.87    0.26
  -3  -6  -5    3.35    0.36
   3   6   5    3.88    0.37
  -3   6  -5    3.61    0.34
  -4  -6  -5    0.25    0.28
   4   6   5    0.12    0.26
  -4   6  -5    0.24    0.26
  -5  -6  -5    1.36    0.42
   5   6   5    1.25    0.38
  -5  -7   5    1.57    0.44
   5   7  -5    0.86    0.35
  -5   7   5    1.31    0.43
  -4  -7   5    0.17    0.28
  -4  -7   5    0.10    0.20
   4  -7  -5    0.29    0.23
  -4   7   5    0.32    0.29
  -4   7   5    0.22    0.23
   4   7  -5    0.45    0.26
  -3  -7   5    5.97    0.50
  -3  -7   5    6.77    0.41
   3  -7  -5    6.78    0.48
  -3   7   5    6.83    0.52
  -3   7   5    7.01    0.48
   3   7  -5    6.02    0.50
  -2  -7   5    0.18    0.14
   2  -7  -5    0.37    0.13
  -2  -7   5    0.37    0.13
  -2   7   5    0.32    0.15
   2   7  -5    0.35    0.15
  -2   7   5    0.29    0.16
   1  -7  -5    2.99    0.24
  -1  -7   5    2.49    0.19
  -1  -7   5    2.46    0.21
  -1  -7   5    2.45    0.23
   1   7  -5    2.30    0.20
  -1   7   5    2.63    0.26
  -1   7   5    2.71    0.26
   1   7  -5    2.71    0.22
   0  -7   5    5.78    0.34
   0  -7   5    5.79    0.30
   0  -7  -5    7.01    0.41
   0   7  -5    5.39    0.36
   0   7  -5    5.82    0.35
   0   7  -5    5.65    0.34
   0   7   5    6.11    0.41
   0   7   5    5.75    0.41
  -1  -7  -5   19.63    1.14
   1   7   5   20.75    1.12
  -1   7  -5   16.25    1.09
   1   7   5   20.54    1.11
  -1   7  -5   20.80    1.06
  -2  -7  -5    0.72    0.18
   2   7   5    0.57    0.17
  -2   7  -5    0.58    0.12
   2   7   5    0.71    0.18
  -3  -7  -5    8.04    0.61
  -3   7  -5    8.63    0.56
   3   7   5    8.07    0.59
  -4  -7  -5    1.13    0.33
  -4   7  -5    0.40    0.26
   4   7   5    0.82    0.30
  -5  -7  -5    0.05    0.38
   5   7   5    0.03    0.36
  -5  -8   5   -0.01    0.40
  -5   8   5    0.34    0.42
   5   8  -5   -0.24    0.32
  -4  -8   5    3.72    0.45
  -4   8   5    3.27    0.37
   4   8  -5    3.10    0.39
  -4   8   5    3.62    0.44
  -3  -8   5    4.15    0.33
   3  -8  -5    4.11    0.38
  -3  -8   5    4.03    0.38
  -3   8   5    4.56    0.42
  -3   8   5    3.79    0.39
   3   8  -5    3.98    0.40
  -2  -8   5    2.53    0.22
   2  -8  -5    3.14    0.28
  -2  -8   5    2.70    0.27
  -2   8   5    3.09    0.28
   2   8  -5    2.80    0.27
  -2   8   5    2.90    0.30
   1  -8  -5   43.68    2.52
  -1  -8   5   46.50    2.47
  -1  -8   5   47.25    1.97
   1   8  -5   47.92    2.51
   1   8  -5   43.23    2.47
  -1   8   5   43.83    2.54
   0  -8  -5    0.19    0.14
   0  -8   5    0.26    0.08
   0   8  -5    0.23    0.11
   0   8  -5    0.10    0.09
   0   8   5    0.47    0.16
   0   8   5    0.22    0.15
   0   8  -5    0.14    0.08
  -1  -8  -5    6.90    0.59
  -1   8  -5    9.90    0.54
  -1   8  -5    8.72    0.55
   1   8   5    9.83    0.58
   1   8   5    9.28    0.58
  -2  -8  -5    6.50    0.50
  -2   8  -5    6.79    0.43
   2   8   5    6.79    0.49
   2   8   5    6.29    0.50
  -2   8  -5    6.89    0.45
  -3  -8  -5    0.42    0.25
  -3   8  -5    0.31    0.18
   3   8   5    0.18    0.22
  -4  -8  -5    0.14    0.33
   4   8   5   -0.09    0.29
  -4   8  -5    0.04    0.27
  -4  -9   5   -0.01    0.32
  -4   9   5    0.12    0.34
   4   9  -5    0.07    0.27
  -3  -9   5    0.04    0.23
   3  -9  -5    0.04    0.19
  -3   9   5    0.38    0.25
  -3   9   5    0.10    0.22
   3   9  -5    0.04    0.21
  -2  -9   5    1.84    0.24
   2  -9  -5    1.91    0.23
  -2  -9   5    2.17    0.25
   2   9  -5    1.84    0.24
  -2   9   5    1.90    0.26
  -2   9   5    1.89    0.28
   1  -9  -5    5.82    0.47
  -1  -9   5    7.39    0.45
  -1  -9   5    6.75    0.47
   1   9  -5    7.24    0.45
  -1   9   5    6.49    0.51
   1   9  -5    7.90    0.46
  -1   9   5    7.42    0.52
   0  -9   5   27.31    1.73
   0  -9  -5   34.18    1.80
   0   9   5   32.83    1.81
   0   9  -5   32.50    1.77
   0   9  -5   31.90    1.71
   0   9   5   32.81    1.78
  -1  -9  -5    0.60    0.21
   1   9   5    0.92    0.20
   1   9   5    0.88    0.20
  -1   9  -5    1.05    0.18
  -1   9  -5    1.34    0.18
  -2  -9  -5    2.92    0.34
  -2   9  -5    3.33    0.28
   2   9   5    2.79    0.33
  -2   9  -5    2.50    0.26
   2   9   5    2.87    0.32
  -3  -9  -5    0.99    0.28
  -3  -9  -5    0.81    0.30
  -3   9  -5    0.60    0.20
   3   9   5    1.20    0.28
  -3   9  -5    0.63    0.21
  -4  -9  -5    3.21    0.48
   4   9   5    2.84    0.43
  -4 -10   5    2.03    0.42
   4  10  -5    2.47    0.38
  -4  10   5    3.01    0.47
   3 -10  -5    0.27    0.21
  -3 -10   5   -0.03    0.25
  -3 -10   5    0.27    0.26
  -3  10   5    0.69    0.29
   3  10  -5    0.16    0.23
  -3  10   5    0.01    0.25
  -2 -10   5    2.36    0.29
  -2 -10   5    2.76    0.29
   2 -10  -5    2.80    0.28
   2  10  -5    2.72    0.29
  -2  10   5    2.29    0.31
  -2  10   5    1.99    0.31
  -1 -10   5    1.07    0.17
   1 -10  -5    0.52    0.18
   1  10  -5    0.71    0.15
  -1  10   5    1.05    0.25
   1  10  -5    0.95    0.17
  -1  10   5    0.95    0.24
   0 -10  -5    1.79    0.24
   0 -10   5    1.57    0.16
   0  10  -5    1.39    0.21
   0  10   5    1.57    0.24
   0  10  -5    1.43    0.18
   0  10   5    1.66    0.25
  -1 -10  -5   10.10    0.71
   1  10   5    9.20    0.67
   1  10   5    9.55    0.67
  -1  10  -5   10.91    0.65
  -1  10  -5   10.79    0.63
  -2 -10  -5    6.13    0.61
  -2  10  -5    8.58    0.52
   2  10   5    7.84    0.62
   2  10   5    7.95    0.59
  -2  10  -5    7.22    0.52
  -3 -10  -5    0.49    0.28
  -3 -10  -5    0.47    0.32
   3  10   5    0.70    0.29
  -3  10  -5    0.21    0.20
   3  10   5    0.57    0.30
  -4 -10  -5   -0.14    0.33
  -4 -10  -5   -0.34    0.38
   4  10   5    0.22    0.36
  -4 -11   5    0.21    0.37
  -4 -11   5   -1.19    0.32
  -4  11   5    0.35    0.41
   4  11  -5    0.01    0.31
  -3 -11   5    2.51    0.35
  -3 -11   5    2.84    0.38
  -3  11   5    2.76    0.42
   3  11  -5    2.47    0.34
  -2 -11   5    7.45    0.53
   2 -11  -5    7.59    0.52
  -2  11   5    5.26    0.57
  -2  11   5    6.25    0.57
   2  11  -5    7.48    0.54
   1 -11  -5    3.40    0.35
  -1 -11   5    4.42    0.36
  -1  11   5    4.95    0.45
   1  11  -5    4.74    0.38
  -1  11   5    4.88    0.45
   0 -11   5    1.47    0.18
   0 -11  -5    1.80    0.25
   0  11  -5    1.41    0.20
   0  11   5    1.31    0.25
   0  11   5    1.17    0.24
  -1 -11  -5    3.26    0.36
   1  11   5    2.69    0.33
  -1  11  -5    2.91    0.30
  -1  11  -5    3.43    0.30
   1  11   5    2.40    0.31
  -2 -11  -5   -0.07    0.25
   2  11   5    0.05    0.24
  -2  11  -5    0.08    0.18
   2  11   5    0.13    0.27
  -3 -11  -5    1.93    0.41
  -3 -11  -5    1.57    0.37
   3  11   5    1.26    0.34
   3  11   5    1.70    0.38
  -4 -11  -5    0.11    0.35
  -4 -11  -5    0.49    0.45
   4  11   5    0.38    0.39
  -4 -12   5   -0.23    0.39
  -4  12   5    0.94    0.46
   4  12  -5    0.16    0.33
  -3 -12   5    0.33    0.32
  -3  12   5    0.21    0.35
   3  12  -5    0.06    0.27
  -2 -12   5    0.15    0.23
  -2  12   5   -0.29    0.25
   2  12  -5    0.25    0.24
  -2  12   5   -0.18    0.27
  -1 -12   5    7.82    0.53
   1 -12  -5    6.09    0.54
  -1  12   5    8.26    0.62
  -1  12   5    8.15    0.59
   1  12  -5    8.09    0.56
   0 -12  -5    0.13    0.20
   0 -12   5    0.17    0.14
   0  12  -5    0.21    0.18
   0  12   5    0.16    0.24
   0  12   5    0.34    0.22
  -1 -12  -5    2.39    0.30
  -1  12  -5    1.92    0.27
   1  12   5    1.80    0.31
   1  12   5    1.26    0.29
  -1  12  -5    1.54    0.24
  -2 -12  -5    1.28    0.32
   2  12   5    1.04    0.31
   2  12   5    1.41    0.35
  -3 -12  -5    0.62    0.36
  -3 -12  -5    0.87    0.40
   3  12   5    0.74    0.40
   3  12   5    0.73    0.36
  -3 -13   5    2.78    0.43
   3  13  -5    2.69    0.41
  -3  13   5    1.37    0.45
  -2 -13   5    0.34    0.27
   2  13  -5    0.74    0.28
  -2  13   5   -0.27    0.31
  -1 -13   5   -0.02    0.20
   1 -13  -5   -0.08    0.20
  -1  13   5    0.15    0.28
  -1  13   5    0.43    0.25
   1  13  -5    0.31    0.22
   0 -13   5    0.02    0.15
   0 -13  -5    0.04    0.22
   0  13   5    0.24    0.27
   0  13   5    0.07    0.24
   0  13  -5   -0.01    0.20
  -1 -13  -5    3.76    0.38
   1  13   5    3.50    0.42
   1  13   5    3.16    0.40
  -2 -13  -5    0.23    0.31
   2  13   5    0.37    0.34
   2  13   5   -0.05    0.30
  -3 -13  -5    0.38    0.44
  -3 -13  -5    0.31    0.36
   3  13   5    0.64    0.38
   3  13   5    0.37    0.43
  -3 -14   5    0.70    0.38
   3  14  -5    0.53    0.35
  -3  14   5   -0.88    0.41
  -2 -14   5    2.35    0.37
  -2  14   5    1.47    0.42
   2  14  -5    1.91    0.37
  -1 -14   5    1.14    0.25
   1  14  -5    0.83    0.28
  -1  14   5    0.46    0.32
   0 -14  -5    0.07    0.23
   0  14   5    0.19    0.30
   0  14   5    0.17    0.26
   0  14  -5   -0.03    0.24
  -1 -14  -5    0.25    0.25
   1  14   5    0.26    0.31
   1  14   5    0.52    0.30
  -2 -14  -5    0.45    0.40
  -2 -14  -5    0.17    0.33
   2  14   5    0.26    0.34
   2  14   5    0.06    0.37
  -2 -15   5    0.84    0.34
   2  15  -5    1.31    0.38
  -2  15   5    0.58    0.41
  -1 -15   5    0.13    0.24
  -1  15   5    0.47    0.35
   1  15  -5    0.24    0.30
   0  15  -5    1.91    0.33
   0  15   5    2.04    0.35
   0  15   5    1.68    0.39
  -1 -15  -5    0.66    0.29
   1  15   5    0.27    0.36
   1  15   5    0.39    0.33
  -2 -15  -5    0.31    0.44
  -2 -15  -5    0.48    0.34
   2  15   5    0.26    0.39
   2  15   5    0.64    0.41
   1  16  -5    0.64    0.35
  -1  16   5    0.10    0.37
   0  16   5   -0.12    0.36
   1  16   5   -0.07    0.39
   1  16   5    0.33    0.36
   5   0  -6   -0.24    0.29
  -5   0   6    0.07    0.33
   4   0  -6    3.44    0.38
  -4   0   6    4.00    0.29
  -4   0   6    4.16    0.39
  -3   0   6   -0.19    0.10
   3   0  -6    0.10    0.15
  -3   0   6    0.06    0.15
  -3   0   6   -0.07    0.13
  -2   0   6   56.78    3.10
  -2   0   6   56.65    3.05
  -2   0   6   55.72    2.41
   2   0  -6   55.93    3.10
  -1   0   6    0.33    0.07
  -1   0   6    0.28    0.06
  -1   0   6    0.35    0.06
   1   0  -6    0.27    0.06
   0   0   6  330.63   16.14
   0   0   6  321.37   12.55
   0   0  -6  278.70   16.16
   0   0   6  254.92   15.87
   1   0   6    0.13    0.06
   1   0   6    0.13    0.04
   1   0   6    0.08    0.05
   2   0   6    7.25    0.44
  -2   0  -6    7.80    0.45
  -3   0  -6    0.04    0.14
   3   0   6   -0.18    0.11
  -5  -1   6    0.54    0.35
   5  -1  -6    0.25    0.31
  -5   1   6    0.71    0.33
   5   1  -6    0.22    0.31
  -4  -1   6    4.55    0.32
   4  -1  -6    4.58    0.44
  -4  -1   6    4.44    0.44
  -4   1   6    4.70    0.43
   4   1  -6    4.73    0.44
   3  -1  -6   -0.10    0.13
  -3  -1   6   -0.04    0.13
  -3  -1   6   -0.01    0.11
  -3   1   6    0.05    0.10
  -3   1   6   -0.12    0.13
   3   1  -6    0.09    0.15
  -3   1   6    0.20    0.16
  -2  -1   6  120.63    6.44
  -2  -1   6  120.99    6.22
   2  -1  -6  115.64    6.55
  -2  -1   6  119.63    6.54
  -2  -1   6  119.71    5.09
  -2   1   6  118.75    5.08
  -2   1   6  121.14    6.44
   2   1  -6  123.74    6.55
  -2   1   6  117.11    6.55
  -1  -1   6   26.69    1.43
   1  -1  -6   26.08    1.45
  -1  -1   6   27.72    1.45
  -1  -1   6   25.81    1.13
  -1   1   6   25.64    1.13
   1   1  -6   26.45    1.37
   1   1  -6   25.61    1.45
  -1   1   6   26.41    1.45
  -1   1   6   25.73    1.43
   0  -1  -6    2.95    0.21
   0  -1   6    3.03    0.15
   0   1   6    2.73    0.20
   0   1   6    3.14    0.18
   0   1  -6    2.26    0.18
   1  -1   6   15.67    0.68
   1   1   6   15.48    0.86
   1   1   6   15.99    0.88
  -2  -1  -6   46.67    2.48
   2  -1   6   45.50    2.50
  -2   1  -6   45.12    2.47
   2   1   6   45.01    2.50
  -3  -1  -6    0.33    0.15
   3  -1   6    0.37    0.12
   3   1   6    0.26    0.14
  -3   1  -6    0.30    0.14
  -4  -1  -6    6.04    0.50
   4   1   6    6.28    0.47
   5  -2  -6    0.07    0.30
  -5  -2   6    0.01    0.33
   5   2  -6    0.46    0.32
  -5   2   6    0.38    0.32
  -4  -2   6    1.88    0.20
  -4  -2   6    1.59    0.29
   4  -2  -6    1.54    0.27
  -4   2   6    1.42    0.27
   4   2  -6    1.65    0.28
  -4   2   6    1.10    0.25
  -3  -2   6   28.13    1.59
  -3  -2   6   27.89    1.25
   3  -2  -6   28.63    1.62
   3   2  -6   27.62    1.62
  -3   2   6   28.40    1.62
  -3   2   6   29.89    1.59
  -3   2   6   28.54    1.24
  -2  -2   6   57.17    2.97
  -2  -2   6   55.51    3.09
   2  -2  -6   58.20    3.14
  -2  -2   6   57.43    2.44
  -2   2   6   57.58    3.09
  -2   2   6   56.56    2.44
  -2   2   6   54.46    3.14
   2   2  -6   59.02    3.14
  -1  -2   6   20.84    1.09
  -1  -2   6   20.48    0.87
   1  -2  -6   19.55    1.11
   1   2  -6   19.99    1.05
  -1   2   6   19.38    1.12
   1   2  -6   18.77    1.11
  -1   2   6   20.74    1.09
   0  -2  -6   20.36    1.07
   0  -2   6   18.80    0.82
   0   2   6   17.99    1.05
   0   2   6   18.23    1.05
   1  -2   6   12.17    0.53
   1   2   6   11.70    0.69
  -1   2  -6   12.47    0.66
  -2  -2  -6    0.51    0.12
  -2   2  -6    0.44    0.09
   2   2   6    0.57    0.11
  -3  -2  -6   25.95    1.46
   3   2   6   25.87    1.46
  -3   2  -6   25.68    1.45
  -4  -2  -6    0.05    0.22
   4   2   6    0.45    0.21
   5  -3  -6    0.58    0.32
  -5  -3   6    1.13    0.38
   5   3  -6    1.36    0.35
  -5   3   6    1.06    0.33
   4  -3  -6    0.47    0.23
  -4  -3   6    0.43    0.17
  -4  -3   6    0.60    0.25
  -4   3   6    0.52    0.22
  -4   3   6    0.49    0.25
   4   3  -6    0.61    0.25
   3  -3  -6    1.85    0.23
  -3  -3   6    2.40    0.19
  -3  -3   6    2.23    0.25
  -3   3   6    2.27    0.25
   3   3  -6    1.90    0.24
  -3   3   6    2.24    0.22
  -3   3   6    2.66    0.18
  -2  -3   6    4.81    0.33
  -2  -3   6    4.93    0.27
   2  -3  -6    4.98    0.33
  -2  -3   6    4.85    0.29
  -2   3   6    4.80    0.26
  -2   3   6    5.11    0.33
   2   3  -6    5.01    0.34
  -2   3   6    4.65    0.34
   1  -3  -6  101.80    5.34
  -1  -3   6   98.18    4.15
   1  -3  -6   97.85    5.07
  -1  -3   6   96.17    5.08
  -1  -3   6   94.05    5.25
  -1   3   6   99.71    5.34
  -1   3   6   99.44    5.25
   1   3  -6   94.22    5.08
   0  -3  -6   12.64    0.72
   0  -3   6   12.34    0.55
   0   3   6   12.33    0.71
   0   3   6   11.90    0.71
   1  -3   6  200.39    8.44
   1   3   6  191.73   10.88
  -1   3  -6  199.78   10.69
   1   3   6  206.75   10.74
   2   3   6    0.13    0.10
   2   3   6    0.06    0.10
  -2   3  -6    0.02    0.08
  -2   3  -6    0.00    0.09
  -3  -3  -6    0.43    0.17
   3   3   6    0.17    0.15
  -4  -3  -6    0.64    0.25
   4   3   6    0.51    0.22
  -5  -4   6    0.07    0.35
   5  -4  -6    0.52    0.32
   5   4  -6    0.57    0.33
  -5   4   6    0.39    0.31
  -5   4   6   -0.01    0.33
  -4  -4   6    0.12    0.25
  -4  -4   6    0.22    0.17
   4  -4  -6    0.37    0.23
   4   4  -6    0.30    0.22
  -4   4   6    0.30    0.24
  -4   4   6    0.31    0.21
   3  -4  -6   24.13    1.39
  -3  -4   6   24.53    1.08
  -3  -4   6   23.67    1.38
  -3   4   6   23.89    1.36
   3   4  -6   24.44    1.40
  -3   4   6   24.47    1.41
  -3   4   6   24.63    1.07
  -2  -4   6    0.10    0.10
  -2  -4   6    0.12    0.08
   2  -4  -6    0.10    0.10
  -2  -4   6    0.12    0.11
  -2   4   6    0.09    0.12
  -2   4   6    0.19    0.10
   2   4  -6    0.10    0.10
   1  -4  -6   35.12    1.92
  -1  -4   6   35.62    1.50
   1  -4  -6   35.31    1.82
  -1  -4   6   35.18    1.83
  -1  -4   6   33.17    1.88
   1   4  -6   33.25    1.83
  -1   4   6   35.24    1.93
  -1   4   6   34.58    1.89
   1   4  -6   34.76    1.91
   0  -4   6   41.83    1.83
   0  -4  -6   47.42    2.37
   0   4   6   44.09    2.34
   0   4   6   40.74    2.36
   0   4  -6   39.47    2.24
   1  -4   6   44.01    1.91
  -1  -4  -6   45.34    2.47
   1   4   6   46.68    2.44
   1   4   6   43.43    2.47
   2   4   6    0.41    0.13
   2   4   6    0.40    0.12
  -2   4  -6    0.55    0.11
  -2   4  -6    0.64    0.09
  -3  -4  -6   22.34    1.29
  -3   4  -6   22.64    1.29
   3   4   6   22.30    1.29
  -4  -4  -6    0.53    0.26
   4   4   6    0.27    0.23
  -5  -4  -6    0.85    0.36
   5  -5  -6    0.00    0.30
  -5  -5   6   -0.44    0.34
  -5   5   6    0.11    0.31
  -5   5   6   -0.20    0.34
   5   5  -6   -0.11    0.32
  -4  -5   6    2.97    0.26
   4  -5  -6    3.02    0.34
  -4  -5   6    2.45    0.36
  -4   5   6    2.80    0.36
   4   5  -6    2.51    0.34
  -4   5   6    3.03    0.32
  -3  -5   6    0.00    0.17
  -3  -5   6    0.04    0.14
   3  -5  -6    0.02    0.15
   3   5  -6   -0.07    0.16
  -3   5   6    0.28    0.18
  -3   5   6    0.22    0.16
  -3   5   6   -0.10    0.12
   2  -5  -6   24.86    1.39
  -2  -5   6   24.77    1.37
  -2  -5   6   23.82    1.08
  -2   5   6   24.48    1.40
   2   5  -6   23.72    1.39
  -2   5   6   25.45    1.36
   1  -5  -6   65.31    3.34
  -1  -5   6   63.53    3.45
   1  -5  -6   70.41    3.53
  -1  -5   6   64.47    2.74
  -1   5   6   61.89    3.47
   1   5  -6   63.12    3.51
  -1   5   6   63.95    3.53
   1   5  -6   59.87    3.35
   0  -5  -6    0.63    0.13
   0  -5   6    0.55    0.08
   0   5  -6    0.53    0.09
   0   5  -6    0.61    0.07
   0   5  -6    0.65    0.06
   0   5   6    0.78    0.13
   0   5   6    0.65    0.14
  -1  -5  -6   37.09    2.11
   1  -5   6   37.85    1.62
   1   5   6   40.70    2.08
   1   5   6   37.48    2.10
  -1   5  -6   36.51    2.04
  -2   5  -6   21.34    1.21
   2   5   6   21.61    1.24
   2   5   6   22.33    1.23
  -3  -5  -6    2.92    0.34
   3   5   6    4.66    0.37
  -3   5  -6    4.05    0.35
  -4  -5  -6    1.30    0.31
   4   5   6    1.08    0.27
  -5  -5  -6    0.88    0.38
  -5  -6   6    0.47    0.39
  -5   6   6    0.52    0.39
  -5   6   6    0.12    0.31
   5   6  -6    0.03    0.32
  -4  -6   6    1.93    0.35
  -4  -6   6    1.99    0.25
   4  -6  -6    2.83    0.34
  -4   6   6    2.61    0.31
  -4   6   6    2.81    0.37
   4   6  -6    2.04    0.34
   3  -6  -6    1.94    0.25
  -3  -6   6    1.84    0.25
  -3  -6   6    1.92    0.21
  -3   6   6    2.15    0.19
  -3   6   6    2.28    0.24
   3   6  -6    1.72    0.25
  -3   6   6    2.06    0.28
  -2  -6   6    2.84    0.27
   2  -6  -6    2.99    0.26
  -2  -6   6    2.63    0.21
  -2   6   6    2.81    0.28
  -2   6   6    2.83    0.26
   2   6  -6    2.67    0.26
  -1  -6   6    9.01    0.51
  -1  -6   6    8.93    0.51
   1  -6  -6    8.99    0.55
  -1  -6   6    8.49    0.43
   1  -6  -6    9.00    0.50
  -1   6   6    8.64    0.55
  -1   6   6    8.75    0.54
   1   6  -6    8.48    0.52
   0  -6   6   78.47    3.32
   0  -6  -6   84.08    4.29
   0  -6   6   78.28    4.18
   0   6  -6   73.14    4.18
   0   6  -6   72.73    4.07
   0   6  -6   78.69    4.25
   0   6   6   81.89    4.23
   0   6   6   76.41    4.28
  -1  -6  -6    1.10    0.18
  -1   6  -6    1.04    0.10
   1   6   6    1.26    0.17
  -1   6  -6    0.79    0.11
  -1   6  -6    1.20    0.14
   1   6   6    1.40    0.17
  -2   6  -6   25.61    1.46
   2   6   6   26.91    1.48
   2   6   6   26.18    1.49
  -3  -6  -6    1.21    0.25
   3   6   6    1.04    0.23
  -3   6  -6    0.98    0.20
  -4  -6  -6    0.15    0.28
   4   6   6    0.31    0.27
  -4   6  -6    0.42    0.25
  -5  -6  -6    0.27    0.38
  -5  -7   6    0.23    0.40
  -5   7   6    0.74    0.41
   5   7  -6    0.34    0.35
  -4  -7   6    4.66    0.36
   4  -7  -6    5.21    0.49
  -4  -7   6    5.05    0.48
   4   7  -6    4.32    0.45
  -4   7   6    4.66    0.43
  -4   7   6    5.08    0.50
   3  -7  -6    0.26    0.18
  -3  -7   6    0.07    0.16
  -3  -7   6   -0.08    0.18
   3   7  -6   -0.06    0.19
  -3   7   6    0.30    0.21
  -3   7   6    0.08    0.18
   2  -7  -6   32.26    1.72
  -2  -7   6   29.80    1.69
  -2  -7   6   29.51    1.34
   2   7  -6   30.54    1.71
  -2   7   6   29.44    1.73
  -2   7   6   30.62    1.69
  -1  -7   6    1.44    0.15
   1  -7  -6    1.26    0.18
  -1  -7   6    1.44    0.15
  -1  -7   6    1.54    0.16
  -1   7   6    1.41    0.20
   1   7  -6    1.46    0.16
  -1   7   6    1.17    0.19
   1   7  -6    1.49    0.15
   0  -7   6    0.32    0.06
   0  -7   6    0.24    0.09
   0  -7  -6    0.41    0.14
   0   7   6    0.29    0.15
   0   7   6    0.44    0.15
   0   7  -6    0.30    0.07
   0   7  -6    0.29    0.07
   0   7  -6    0.33    0.11
  -1  -7  -6   -0.09    0.14
   1   7   6    0.26    0.14
  -1   7  -6   -0.17    0.09
  -1   7  -6    0.21    0.11
   1   7   6    0.22    0.14
  -2  -7  -6   22.79    1.28
  -2   7  -6   20.61    1.23
   2   7   6   22.75    1.27
   2   7   6   21.86    1.27
  -3  -7  -6    1.13    0.27
  -3   7  -6    0.93    0.20
   3   7   6    1.25    0.26
  -4  -7  -6    1.37    0.36
   4   7   6    1.50    0.34
  -4   7  -6    1.49    0.32
  -5  -8   6   -0.14    0.39
   5   8  -6   -0.33    0.32
  -5   8   6   -0.32    0.41
   4  -8  -6    0.91    0.28
  -4  -8   6    1.42    0.35
  -4   8   6    1.26    0.28
   4   8  -6    1.13    0.31
  -4   8   6    1.32    0.36
  -3  -8   6    2.20    0.30
   3  -8  -6    1.67    0.27
  -3  -8   6    2.35    0.24
   3   8  -6    2.43    0.30
  -3   8   6    3.05    0.35
  -3   8   6    2.43    0.29
  -2  -8   6    4.11    0.37
  -2  -8   6    4.34    0.32
   2  -8  -6    5.03    0.38
  -2   8   6    4.42    0.42
   2   8  -6    5.20    0.39
  -2   8   6    5.41    0.40
   1  -8  -6    0.75    0.17
  -1  -8   6    0.88    0.14
  -1  -8   6    0.73    0.13
  -1  -8   6    0.94    0.14
  -1   8   6    0.86    0.19
  -1   8   6    0.31    0.17
   1   8  -6    0.81    0.13
   1   8  -6    0.90    0.14
   0  -8   6   17.74    0.98
   0  -8  -6   18.78    1.05
   0   8   6   18.03    1.05
   0   8  -6   17.32    0.98
   0   8   6   17.81    1.04
   0   8  -6   17.60    1.00
  -1  -8  -6    9.40    0.75
  -1   8  -6   13.76    0.70
   1   8   6   13.24    0.75
   1   8   6   11.59    0.74
  -1   8  -6   11.79    0.70
  -2  -8  -6    6.50    0.51
   2   8   6    7.08    0.51
  -2   8  -6    6.76    0.42
  -2   8  -6    6.42    0.46
   2   8   6    6.27    0.50
  -3  -8  -6    2.96    0.35
  -3  -8  -6    3.55    0.41
   3   8   6    3.70    0.37
  -4  -8  -6   -0.31    0.33
   4   8   6    0.31    0.32
  -4  -9   6    0.60    0.35
   4   9  -6    0.12    0.28
  -4   9   6    1.07    0.38
  -4   9   6    0.37    0.29
   3  -9  -6    0.29    0.21
  -3  -9   6    0.00    0.23
  -3  -9   6    0.15    0.19
  -3   9   6    0.14    0.23
  -3   9   6    0.22    0.26
   3   9  -6    0.18    0.21
  -2  -9   6    6.72    0.49
   2  -9  -6    7.53    0.51
  -2  -9   6    7.57    0.50
  -2  -9   6    6.94    0.41
  -2   9   6    6.52    0.54
  -2   9   6    6.84    0.54
   2   9  -6    7.26    0.50
  -1  -9   6   20.41    1.08
  -1  -9   6   19.36    1.09
   1  -9  -6   15.78    1.11
   1   9  -6   18.63    1.08
  -1   9   6   18.46    1.13
  -1   9   6   19.50    1.14
   1   9  -6   21.42    1.10
   0  -9  -6    1.31    0.21
   0  -9   6    1.25    0.13
   0   9   6    1.27    0.21
   0   9  -6    1.07    0.14
   0   9   6    1.06    0.22
   0   9  -6    0.91    0.17
  -1  -9  -6   16.46    1.19
  -1   9  -6   21.06    1.15
   1   9   6   21.20    1.19
  -1   9  -6   23.87    1.13
   1   9   6   17.88    1.17
  -2  -9  -6    4.15    0.41
   2   9   6    4.39    0.41
   2   9   6    3.81    0.37
  -2   9  -6    3.67    0.35
  -3  -9  -6   -0.02    0.28
  -3  -9  -6    0.43    0.26
   3   9   6    0.05    0.25
   3   9   6    0.56    0.25
  -3   9  -6    0.35    0.20
  -4  -9  -6    0.07    0.31
  -4  -9  -6    0.15    0.37
   4   9   6    0.30    0.35
  -4 -10   6    0.16    0.34
  -4  10   6    0.70    0.39
   4  10  -6    0.12    0.30
  -3 -10   6    5.74    0.48
  -3 -10   6    5.22    0.49
   3 -10  -6    4.95    0.49
  -3  10   6    6.00    0.58
  -3  10   6    6.11    0.50
   3  10  -6    5.43    0.51
  -2 -10   6    0.12    0.20
   2 -10  -6    0.47    0.19
  -2 -10   6   -0.01    0.18
  -2  10   6    0.44    0.24
  -2  10   6   -0.12    0.22
   2  10  -6    0.02    0.18
   1 -10  -6    0.53    0.20
  -1 -10   6    1.43    0.18
  -1  10   6    1.36    0.26
   1  10  -6    1.43    0.19
  -1  10   6    1.05    0.25
   0 -10   6    0.03    0.10
   0 -10  -6    0.06    0.17
   0  10   6    0.15    0.19
   0  10  -6    0.15    0.12
   0  10  -6    0.18    0.15
   0  10   6    0.19    0.19
  -1 -10  -6    4.81    0.42
  -1  10  -6    3.93    0.35
  -1  10  -6    4.43    0.36
   1  10   6    4.31    0.41
   1  10   6    3.82    0.39
  -2 -10  -6    0.17    0.25
   2  10   6    0.18    0.25
   2  10   6   -0.08    0.22
  -2  10  -6    0.10    0.17
  -3 -10  -6    5.19    0.53
  -3 -10  -6    3.78    0.45
   3  10   6    4.19    0.46
   3  10   6    5.52    0.53
  -4 -10  -6   -0.01    0.34
  -4 -10  -6   -0.31    0.40
   4  10   6    0.42    0.37
  -4 -11   6   -0.21    0.36
   4  11  -6    0.34    0.32
  -4  11   6    0.60    0.42
  -3 -11   6    0.29    0.28
   3  11  -6   -0.25    0.24
  -3  11   6   -0.28    0.28
  -3  11   6    0.33    0.32
   2 -11  -6    1.85    0.27
  -2 -11   6    1.83    0.27
  -2  11   6    1.13    0.30
   2  11  -6    1.59    0.26
  -2  11   6    1.55    0.31
   1 -11  -6    7.79    0.63
  -1 -11   6    9.47    0.59
  -1  11   6    9.65    0.68
   1  11  -6    9.86    0.62
  -1  11   6   10.83    0.69
   0 -11  -6    2.03    0.27
   0 -11   6    1.61    0.17
   0  11   6    1.93    0.27
   0  11  -6    1.48    0.20
   0  11   6    1.87    0.28
  -1 -11  -6    2.39    0.32
   1  11   6    2.21    0.32
   1  11   6    2.04    0.30
  -1  11  -6    2.53    0.27
  -1  11  -6    2.46    0.28
  -2 -11  -6    0.49    0.27
   2  11   6    0.50    0.27
  -2  11  -6    0.49    0.20
   2  11   6    0.97    0.31
  -3 -11  -6   -0.21    0.32
  -3 -11  -6    0.10    0.35
   3  11   6    0.65    0.33
   3  11   6    0.39    0.37
  -4 -11  -6    0.34    0.38
  -4 -11  -6    0.18    0.45
   4  11   6    0.54    0.41
  -4 -12   6    0.43    0.40
  -4  12   6    1.04    0.47
   4  12  -6   -0.04    0.34
  -3 -12   6    3.55    0.43
  -3  12   6    2.84    0.47
   3  12  -6    3.61    0.42
  -2 -12   6    0.37    0.24
   2 -12  -6    0.18    0.21
  -2  12   6   -0.18    0.28
  -2  12   6    0.45    0.28
   2  12  -6    0.11    0.24
  -1 -12   6    0.71    0.20
   1 -12  -6    0.55    0.22
   1  12  -6    1.13    0.22
  -1  12   6    0.99    0.27
  -1  12   6    1.15    0.29
   0 -12   6   13.32    0.78
   0 -12  -6   14.53    0.87
   0  12   6   13.64    0.87
   0  12   6   13.82    0.89
   0  12  -6   12.88    0.82
  -1 -12  -6    0.29    0.22
  -1  12  -6    0.36    0.19
   1  12   6    0.37    0.26
   1  12   6    0.29    0.25
  -2 -12  -6    1.44    0.33
   2  12   6    1.60    0.38
   2  12   6    2.60    0.37
  -3 -12  -6    0.43    0.41
  -3 -12  -6    0.41    0.35
   3  12   6    0.04    0.38
   3  12   6    0.17    0.35
  -3 -13   6    0.04    0.32
  -3  13   6   -0.21    0.39
   3  13  -6   -0.03    0.31
  -2 -13   6    2.09    0.32
  -2  13   6    1.64    0.40
  -2  13   6    1.70    0.39
   2  13  -6    2.24    0.34
   1 -13  -6   -0.14    0.21
  -1 -13   6    0.06    0.19
  -1  13   6   -0.15    0.27
   1  13  -6   -0.08    0.22
  -1  13   6    0.20    0.25
   0 -13  -6   -0.04    0.22
   0  13   6    0.07    0.27
   0  13   6    0.35    0.26
   0  13  -6    0.20    0.20
  -1 -13  -6    0.65    0.26
   1  13   6    0.15    0.28
   1  13   6    0.54    0.30
  -2 -13  -6    2.58    0.42
   2  13   6    3.33    0.43
   2  13   6    2.06    0.43
  -3 -13  -6   -0.53    0.41
  -3 -13  -6    0.70    0.35
   3  13   6    0.53    0.40
   3  13   6    0.21    0.44
  -3 -14   6    0.43    0.35
  -3  14   6   -0.46    0.41
   3  14  -6    0.08    0.34
  -2 -14   6    1.22    0.31
  -2  14   6    0.68    0.39
   2  14  -6    0.61    0.32
  -1 -14   6   -0.08    0.21
  -1  14   6   -0.30    0.26
   1  14  -6    0.12    0.25
  -1  14   6   -0.10    0.30
   0 -14  -6    4.73    0.44
   0  14  -6    4.78    0.47
   0  14   6    4.81    0.50
   0  14   6    4.91    0.48
  -1 -14  -6    0.33    0.26
   1  14   6    0.04    0.30
   1  14   6   -0.21    0.31
  -2 -14  -6    0.31    0.34
   2  14   6   -0.37    0.36
   2  14   6    0.40    0.36
  -2 -15   6    0.17    0.30
   2  15  -6   -0.10    0.33
  -2  15   6   -0.42    0.39
  -1  15   6    0.33    0.34
   1  15  -6    0.65    0.30
   0  15   6    0.29    0.30
   0  15   6    0.20    0.34
  -1 -15  -6    0.91    0.30
   1  15   6    1.10    0.40
   1  15   6    0.98    0.36
  -2 -15  -6    1.64    0.48
  -2 -15  -6    0.91    0.37
   2  15   6    1.25    0.44
   2  15   6    1.27    0.43
   1  16  -6    0.39    0.32
  -1  16   6    0.48    0.39
   0  16   6   -0.21    0.36
   1  16   6    0.38    0.41
   1  16   6    0.47    0.37
   5   0  -7    1.17    0.34
  -5   0   7    1.77    0.39
  -4   0   7    0.12    0.22
  -4   0   7    0.14    0.16
   4   0  -7    0.07    0.20
   3   0  -7   17.88    1.03
  -3   0   7   17.82    0.80
  -3   0   7   17.59    1.01
  -3   0   7   16.62    1.03
  -2   0   7   -0.07    0.08
  -2   0   7    0.16    0.11
  -2   0   7    0.16    0.09
   2   0  -7    0.10    0.09
   1   0  -7   23.81    1.33
  -1   0   7   24.53    1.31
  -1   0   7   23.50    1.33
  -1   0   7   24.31    1.04
   0   0   7    0.01    0.06
   0   0  -7    0.02    0.06
   0   0   7    0.08    0.05
   0   0   7    0.04    0.04
   1   0   7  261.00   11.71
   1   0   7  287.90   14.84
   1   0   7  282.12   15.06
  -2   0  -7   -0.04    0.08
   2   0   7   -0.14    0.08
   3   0   7   22.07    1.23
  -3   0  -7   21.65    1.24
  -5  -1   7   -0.01    0.34
   5  -1  -7   -0.07    0.29
   5   1  -7   -0.35    0.30
  -5   1   7    0.17    0.31
   4  -1  -7    3.48    0.38
  -4  -1   7    4.49    0.40
  -4  -1   7    3.98    0.27
   4   1  -7    3.35    0.38
  -4   1   7    3.01    0.35
  -4   1   7    3.27    0.37
  -4   1   7    4.04    0.27
   3  -1  -7   12.44    0.78
  -3  -1   7   12.77    0.77
  -3  -1   7   12.96    0.60
   3   1  -7   12.53    0.78
  -3   1   7   12.63    0.79
  -3   1   7   12.92    0.60
  -3   1   7   12.82    0.76
   2  -1  -7    0.47    0.11
  -2  -1   7    0.59    0.12
  -2  -1   7    0.35    0.10
  -2  -1   7    0.80    0.12
  -2  -1   7    0.45    0.06
   2   1  -7    0.64    0.12
  -2   1   7    0.61    0.10
  -2   1   7    0.41    0.12
  -2   1   7    0.40    0.10
  -1  -1   7   64.04    3.34
  -1  -1   7   62.02    3.40
   1  -1  -7   61.62    3.40
  -1  -1   7   61.13    2.65
   1   1  -7   61.25    3.39
   1   1  -7   63.18    3.23
  -1   1   7   60.15    3.40
  -1   1   7   60.31    2.64
  -1   1   7   64.64    3.34
   0  -1   7   18.61    0.80
   0  -1  -7   18.80    1.04
   0   1  -7   17.57    1.02
   0   1   7   19.07    1.02
   0   1   7   18.22    1.03
   1  -1   7    0.12    0.05
   1   1   7    0.16    0.08
   1   1   7    0.21    0.06
  -2  -1  -7    2.91    0.23
   2  -1   7    2.66    0.19
   2   1   7    2.59    0.22
  -2   1  -7    2.75    0.21
  -3  -1  -7   10.46    0.67
   3  -1   7   10.80    0.65
  -3   1  -7   10.91    0.66
   3   1   7   11.12    0.66
  -5  -2   7    0.42    0.35
   5  -2  -7    0.30    0.31
  -5   2   7    0.81    0.32
   5   2  -7    0.13    0.30
   4  -2  -7   -0.10    0.21
  -4  -2   7    0.30    0.23
  -4  -2   7    0.03    0.16
  -4   2   7    0.26    0.17
  -4   2   7    0.01    0.21
   4   2  -7    0.30    0.23
  -4   2   7    0.08    0.23
   3  -2  -7    8.60    0.59
  -3  -2   7    9.37    0.46
  -3  -2   7    8.87    0.58
   3   2  -7    9.10    0.59
  -3   2   7    9.80    0.45
  -3   2   7    9.02    0.57
  -3   2   7    8.82    0.60
  -2  -2   7    2.69    0.22
  -2  -2   7    2.49    0.17
  -2  -2   7    2.56    0.19
   2  -2  -7    2.49    0.22
  -2   2   7    2.39    0.23
  -2   2   7    2.69    0.22
  -2   2   7    2.40    0.17
   2   2  -7    2.59    0.23
  -1  -2   7   35.75    2.00
   1  -2  -7   37.03    2.04
  -1  -2   7   37.53    1.59
   1   2  -7   37.97    1.94
   1   2  -7   38.01    2.04
  -1   2   7   36.94    2.01
  -1   2   7   36.69    2.04
  -1   2   7   35.98    1.59
   0  -2   7   68.43    2.90
   0  -2  -7   67.82    3.75
   0   2  -7   66.65    3.72
   0   2   7   70.36    3.74
   1  -2   7   85.85    3.62
   1   2   7   85.40    4.60
   1   2   7   85.03    4.67
  -2   2  -7   16.30    0.88
   2   2   7   15.20    0.90
  -3  -2  -7    0.66    0.17
   3   2   7    0.63    0.16
  -4  -2  -7    8.04    0.63
   4   2   7    9.15    0.63
  -5  -3   7    0.28    0.36
   5  -3  -7   -0.26    0.29
  -5   3   7    0.16    0.31
   5   3  -7    0.24    0.31
  -4  -3   7    9.84    0.69
  -4  -3   7    9.63    0.52
   4  -3  -7    9.62    0.68
   4   3  -7    9.27    0.68
  -4   3   7    9.14    0.69
  -4   3   7    9.88    0.66
   3  -3  -7    4.66    0.38
  -3  -3   7    4.92    0.32
  -3  -3   7    4.72    0.39
  -3   3   7    4.95    0.37
   3   3  -7    5.27    0.40
  -3   3   7    4.93    0.30
  -3   3   7    5.13    0.41
   2  -3  -7    7.86    0.49
  -2  -3   7    7.74    0.44
  -2  -3   7    7.98    0.39
  -2  -3   7    7.59    0.48
  -2   3   7    8.40    0.48
  -2   3   7    7.85    0.38
  -2   3   7    7.48    0.50
   2   3  -7    8.05    0.49
   1  -3  -7    1.19    0.12
  -1  -3   7    1.21    0.11
  -1  -3   7    1.23    0.11
   1   3  -7    1.16    0.11
   1   3  -7    1.03    0.12
  -1   3   7    1.16    0.12
  -1   3   7    1.17    0.13
   0  -3   7   23.02    1.00
   0  -3  -7   24.45    1.31
   0   3   7   23.54    1.29
   0   3   7   21.61    1.29
   1  -3   7   12.82    0.58
  -1  -3  -7   13.37    0.76
   1   3   7   13.59    0.75
   1   3   7   13.22    0.77
   2   3   7   57.33    3.24
  -2   3  -7   60.66    3.18
   2   3   7   58.67    3.20
  -3  -3  -7    0.33    0.18
   3   3   7    0.65    0.17
  -4  -3  -7    0.15    0.23
   4   3   7    0.25    0.22
   5  -4  -7    0.05    0.30
  -5  -4   7   -0.02    0.35
   5   4  -7    0.19    0.33
  -5   4   7    0.29    0.31
  -5   4   7   -0.16    0.32
   4  -4  -7    0.47    0.24
  -4  -4   7    0.17    0.25
  -4  -4   7    0.43    0.18
  -4   4   7    0.45    0.26
   4   4  -7    0.48    0.25
  -4   4   7    0.20    0.22
  -3  -4   7    0.48    0.15
  -3  -4   7    0.34    0.18
   3  -4  -7    0.51    0.16
   3   4  -7    0.36    0.18
  -3   4   7    0.45    0.16
  -3   4   7    0.35    0.13
  -3   4   7    0.27    0.18
  -2  -4   7   38.17    2.12
  -2  -4   7   41.23    2.20
  -2  -4   7   38.98    1.74
   2  -4  -7   41.38    2.24
  -2   4   7   42.19    2.20
  -2   4   7   38.76    2.24
   2   4  -7   41.23    2.24
  -1  -4   7    2.23    0.18
   1  -4  -7    2.56    0.16
  -1  -4   7    2.30    0.17
   1  -4  -7    2.89    0.21
  -1   4   7    2.44    0.20
   1   4  -7    2.05    0.17
  -1   4   7    2.24    0.21
   1   4  -7    2.26    0.18
   0  -4   7   13.71    0.62
   0  -4  -7   14.51    0.82
   0   4   7   14.67    0.81
   0   4   7   13.47    0.81
   0   4  -7   13.82    0.76
  -1  -4  -7    0.44    0.12
   1  -4   7    0.37    0.06
   1   4   7    0.47    0.11
   1   4   7    0.41    0.12
  -2   4  -7   14.58    0.82
   2   4   7   14.14    0.84
   2   4   7   14.28    0.83
  -3  -4  -7    4.78    0.42
   3   4   7    5.32    0.41
  -4  -4  -7    6.20    0.56
   4   4   7    6.81    0.54
  -5  -5   7    0.47    0.37
   5  -5  -7    0.09    0.31
  -5   5   7   -0.21    0.31
   5   5  -7   -0.06    0.33
  -5   5   7   -0.07    0.35
  -4  -5   7    2.07    0.34
  -4  -5   7    1.73    0.23
   4  -5  -7    1.84    0.30
   4   5  -7    1.08    0.28
  -4   5   7    1.59    0.28
  -4   5   7    1.49    0.30
  -3  -5   7   10.52    0.69
  -3  -5   7   10.26    0.54
   3  -5  -7   11.28    0.70
   3   5  -7   10.99    0.70
  -3   5   7   11.37    0.68
  -3   5   7   10.89    0.71
  -3   5   7   10.84    0.54
   2  -5  -7    2.30    0.23
  -2  -5   7    1.97    0.18
  -2  -5   7    2.19    0.22
  -2   5   7    2.24    0.23
  -2   5   7    2.59    0.25
   2   5  -7    2.26    0.22
  -1  -5   7   40.21    1.74
   1  -5  -7   41.23    2.24
   1  -5  -7   39.73    2.11
  -1  -5   7   39.29    2.18
  -1   5   7   42.26    2.24
   1   5  -7   38.21    2.12
   1   5  -7   38.90    2.21
  -1   5   7   42.10    2.20
   0  -5   7    3.82    0.21
   0  -5  -7    3.55    0.29
   0   5   7    4.09    0.30
   0   5   7    3.67    0.29
   0   5  -7    3.53    0.22
   0   5  -7    3.59    0.24
  -1  -5  -7    0.44    0.14
   1  -5   7    0.42    0.07
   1   5   7    0.51    0.13
   1   5   7    0.48    0.14
   2   5   7   33.77    1.93
   2   5   7   35.64    1.91
  -2   5  -7   34.21    1.91
  -3  -5  -7   10.07    0.70
  -3   5  -7   10.84    0.67
   3   5   7   10.81    0.69
  -4  -5  -7    1.58    0.33
   4   5   7    1.22    0.29
  -5  -5  -7    0.50    0.37
   5  -6  -7    0.77    0.35
  -5  -6   7    0.80    0.42
   5   6  -7    0.92    0.36
  -5   6   7    1.24    0.35
  -5   6   7    1.17    0.41
  -4  -6   7   -0.03    0.27
  -4  -6   7    0.28    0.20
   4  -6  -7    0.41    0.24
   4   6  -7   -0.05    0.24
  -4   6   7    0.29    0.28
  -4   6   7    0.32    0.24
  -3  -6   7    6.88    0.50
  -3  -6   7    7.06    0.40
   3  -6  -7    6.43    0.49
  -3   6   7    5.47    0.47
   3   6  -7    6.83    0.50
  -3   6   7    6.71    0.52
  -3   6   7    7.32    0.39
  -2  -6   7    4.86    0.36
   2  -6  -7    5.14    0.37
  -2  -6   7    4.57    0.30
  -2   6   7    5.10    0.39
  -2   6   7    5.26    0.37
   2   6  -7    4.77    0.36
   1  -6  -7    0.14    0.08
  -1  -6   7    0.29    0.09
  -1  -6   7    0.36    0.09
  -1  -6   7    0.26    0.10
   1  -6  -7    0.29    0.13
   1   6  -7    0.25    0.09
  -1   6   7    0.35    0.14
   1   6  -7    0.23    0.10
  -1   6   7    0.36    0.14
   0  -6   7    2.84    0.19
   0  -6  -7    3.11    0.27
   0   6  -7    2.71    0.18
   0   6   7    2.91    0.28
   0   6  -7    2.66    0.22
   0   6   7    3.20    0.29
   0   6  -7    2.93    0.19
  -1  -6  -7   64.39    3.64
   1  -6   7   67.65    2.81
   1   6   7   63.99    3.58
   1   6   7   67.14    3.63
  -2  -6  -7    0.47    0.16
  -2   6  -7    0.18    0.10
   2   6   7    0.31    0.16
   2   6   7    0.14    0.16
  -3  -6  -7    4.56    0.45
   3   6   7    4.66    0.44
  -3   6  -7    4.46    0.38
  -4  -6  -7   -0.08    0.29
   4   6   7    0.55    0.28
  -5  -7   7   -0.02    0.39
  -5   7   7    0.01    0.39
  -5   7   7   -0.06    0.32
   5   7  -7    0.02    0.33
  -4  -7   7    0.76    0.23
   4  -7  -7    0.49    0.26
  -4  -7   7    0.32    0.30
  -4   7   7    0.65    0.31
  -4   7   7    0.76    0.26
   4   7  -7    0.36    0.27
  -3  -7   7    1.97    0.23
   3  -7  -7    2.52    0.29
  -3  -7   7    2.44    0.29
  -3   7   7    2.48    0.27
  -3   7   7    2.71    0.32
   3   7  -7    1.45    0.26
   2  -7  -7    1.18    0.19
  -2  -7   7    1.12    0.16
  -2  -7   7    1.03    0.18
  -2   7   7    1.24    0.20
  -2   7   7    0.91    0.20
   2   7  -7    0.93    0.18
  -1  -7   7   15.44    0.65
  -1  -7   7   15.60    0.80
  -1  -7   7   13.32    0.80
   1  -7  -7   13.73    0.84
   1   7  -7   11.75    0.81
  -1   7   7   15.05    0.85
   0  -7  -7    1.11    0.17
   0  -7   7    1.30    0.13
   0   7  -7    1.07    0.14
   0   7   7    1.38    0.19
   0   7   7    1.59    0.20
   0   7  -7    0.96    0.11
   0   7  -7    1.11    0.10
  -1  -7  -7    1.20    0.23
   1   7   7    1.25    0.20
  -1   7  -7    1.72    0.18
   1   7   7    1.98    0.21
  -1   7  -7    0.86    0.13
  -2  -7  -7    3.63    0.36
   2   7   7    3.15    0.32
   2   7   7    3.96    0.35
  -2   7  -7    3.24    0.25
  -3  -7  -7   12.73    0.88
   3   7   7   14.09    0.87
  -4  -7  -7    0.00    0.32
   4   7   7    0.52    0.31
  -5  -8   7    1.02    0.45
  -5   8   7    0.03    0.43
   5   8  -7    0.40    0.35
  -4  -8   7   -0.15    0.30
  -4  -8   7    0.20    0.23
   4  -8  -7    0.01    0.25
   4   8  -7    0.09    0.28
  -4   8   7    0.87    0.34
  -4   8   7   -0.08    0.27
   3  -8  -7    3.48    0.35
  -3  -8   7    3.45    0.28
  -3  -8   7    2.64    0.33
  -3   8   7    3.07    0.36
   3   8  -7    2.90    0.33
  -3   8   7    3.15    0.33
   2  -8  -7   23.80    1.28
  -2  -8   7   23.09    1.00
  -2  -8   7   22.33    1.24
  -2   8   7   21.70    1.29
  -2   8   7   22.76    1.26
   2   8  -7   17.83    1.25
  -1  -8   7    1.01    0.14
  -1  -8   7    0.84    0.14
  -1  -8   7    0.88    0.14
   1  -8  -7    0.44    0.18
  -1   8   7    0.87    0.20
   1   8  -7    1.01    0.15
  -1   8   7    0.67    0.20
   0  -8  -7    0.97    0.18
   0  -8   7    0.62    0.13
   0   8   7    0.88    0.19
   0   8  -7    0.66    0.10
   0   8  -7    0.92    0.15
   0   8   7    0.79    0.19
   1   8   7   11.76    0.65
  -1   8  -7    9.63    0.58
   1   8   7    8.42    0.63
  -2  -8  -7    3.07    0.34
   2   8   7    3.76    0.36
   2   8   7    3.22    0.33
  -2   8  -7    2.84    0.28
  -3  -8  -7    0.86    0.27
  -3  -8  -7    0.98    0.30
   3   8   7    1.20    0.29
  -4  -8  -7    0.62    0.38
   4   8   7    0.74    0.34
  -4  -9   7    1.47    0.37
  -4   9   7    0.98    0.32
   4   9  -7    1.21    0.32
  -4   9   7    1.09    0.39
   3  -9  -7    1.36    0.27
  -3  -9   7    1.32    0.23
  -3  -9   7    1.00    0.27
  -3   9   7    0.99    0.30
  -3   9   7    1.10    0.28
   3   9  -7    1.22    0.26
  -2  -9   7    2.79    0.25
  -2  -9   7    3.55    0.33
  -2  -9   7    3.39    0.33
   2  -9  -7    3.52    0.35
  -2   9   7    3.53    0.35
   2   9  -7    3.42    0.31
  -2   9   7    2.91    0.35
  -1  -9   7    0.97    0.16
  -1  -9   7    0.82    0.14
   1  -9  -7    0.10    0.18
  -1   9   7    0.80    0.23
  -1   9   7    0.79    0.21
   1   9  -7    0.75    0.15
   0  -9  -7    7.48    0.51
   0   9  -7    6.59    0.46
   0   9   7    7.89    0.52
   0   9   7    7.36    0.52
   0   9  -7    6.49    0.43
  -1  -9  -7    0.46    0.21
  -1   9  -7    0.52    0.16
  -1   9  -7    0.34    0.15
   1   9   7    0.20    0.18
   1   9   7    0.44    0.19
  -2  -9  -7    9.86    0.73
   2   9   7    9.94    0.70
   2   9   7   10.19    0.71
  -2   9  -7   10.83    0.64
  -3  -9  -7    0.72    0.32
  -3  -9  -7    1.04    0.30
  -3   9  -7    0.87    0.23
   3   9   7    0.92    0.30
   3   9   7    1.53    0.30
  -4  -9  -7   -0.33    0.38
  -4  -9  -7   -0.11    0.32
   4   9   7    0.31    0.35
  -4 -10   7   -0.01    0.34
  -4  10   7    0.52    0.40
   4  10  -7   -0.12    0.29
   3 -10  -7   -0.13    0.22
  -3 -10   7   -0.29    0.24
  -3 -10   7    0.21    0.26
  -3  10   7    0.16    0.29
   3  10  -7    0.27    0.24
  -3  10   7   -0.01    0.27
   2 -10  -7   14.04    0.82
  -2 -10   7   12.82    0.79
   2  10  -7   13.25    0.80
  -2  10   7   10.25    0.84
  -2  10   7   12.82    0.84
   1 -10  -7    2.69    0.33
  -1 -10   7    4.00    0.29
  -1  10   7    3.25    0.34
  -1  10   7    2.30    0.33
   1  10  -7    3.79    0.31
   0 -10  -7    8.79    0.56
   0 -10   7    7.16    0.44
   0  10  -7    7.45    0.48
   0  10   7    7.96    0.57
   0  10  -7    7.41    0.50
   0  10   7    8.03    0.56
  -1 -10  -7    0.17    0.22
   1  10   7   -0.01    0.20
   1  10   7   -0.30    0.19
  -1  10  -7    0.00    0.16
  -2 -10  -7    1.98    0.33
  -2  10  -7    2.13    0.26
   2  10   7    2.93    0.37
   2  10   7    2.43    0.33
  -3 -10  -7    1.15    0.35
  -3 -10  -7    1.44    0.38
   3  10   7    0.93    0.34
   3  10   7    1.80    0.38
  -4 -10  -7    1.17    0.46
  -4 -10  -7    0.77    0.38
   4  10   7    1.09    0.41
  -4 -11   7    0.56    0.38
  -4  11   7    1.44    0.46
   4  11  -7    0.40    0.33
  -3 -11   7    0.30    0.28
   3 -11  -7    0.28    0.26
  -3  11   7    0.05    0.32
   3  11  -7    0.04    0.26
  -3  11   7   -0.30    0.30
  -2 -11   7    0.11    0.20
   2 -11  -7    0.08    0.21
  -2  11   7   -0.22    0.25
  -2  11   7    0.09    0.26
   2  11  -7    0.14    0.21
   1 -11  -7    1.39    0.26
  -1 -11   7    1.81    0.21
  -1  11   7    1.49    0.29
  -1  11   7    1.66    0.30
   1  11  -7    1.77    0.23
   0 -11  -7   11.04    0.70
   0  11   7   11.01    0.71
   0  11  -7   10.14    0.64
   0  11  -7   10.09    0.66
   0  11   7   10.04    0.72
  -1 -11  -7    0.46    0.24
   1  11   7    0.35    0.24
   1  11   7    0.94    0.26
  -1  11  -7    0.55    0.19
  -2 -11  -7    1.45    0.33
  -2  11  -7    2.60    0.29
   2  11   7    1.78    0.37
   2  11   7    2.88    0.37
  -3 -11  -7    0.06    0.33
  -3 -11  -7    0.40    0.38
   3  11   7    0.44    0.37
   3  11   7    0.17    0.33
  -3 -12   7   -0.11    0.29
  -3  12   7    0.42    0.38
   3  12  -7    0.57    0.30
   2 -12  -7   -0.08    0.23
  -2 -12   7   -0.08    0.21
  -2  12   7   -0.61    0.28
   2  12  -7   -0.33    0.22
  -2  12   7    0.38    0.30
   1 -12  -7   -0.16    0.21
  -1 -12   7    0.12    0.16
  -1  12   7   -0.19    0.25
   1  12  -7    0.09    0.19
  -1  12   7    0.12    0.26
   0 -12  -7    3.11    0.33
   0  12   7    2.99    0.35
   0  12   7    3.24    0.38
   0  12  -7    2.74    0.28
  -1 -12  -7    2.47    0.32
   1  12   7    2.00    0.33
   1  12   7    2.52    0.36
  -1  12  -7    2.12    0.28
  -2 -12  -7    0.10    0.28
   2  12   7   -0.57    0.31
   2  12   7    0.03    0.30
  -3 -12  -7    0.17    0.34
  -3 -12  -7    0.31    0.41
   3  12   7    0.24    0.41
   3  12   7   -0.48    0.35
  -3 -13   7    0.54    0.34
  -3  13   7   -0.28    0.41
   3  13  -7    0.62    0.32
  -2 -13   7    0.08    0.25
   2  13  -7   -0.20    0.26
  -2  13   7   -0.02    0.32
  -2  13   7    0.05    0.33
  -1 -13   7    2.36    0.26
   1 -13  -7    1.83    0.31
  -1  13   7    2.10    0.36
  -1  13   7    2.03    0.34
   1  13  -7    2.29    0.30
   0 -13  -7    0.07    0.23
   0  13   7    0.16    0.26
   0  13   7   -0.03    0.27
  -1 -13  -7    0.14    0.23
   1  13   7   -0.15    0.28
   1  13   7    0.43    0.28
  -2 -13  -7    0.11    0.32
   2  13   7    0.23    0.33
   2  13   7   -0.18    0.35
  -3 -13  -7    0.63    0.35
  -3 -13  -7    0.19    0.45
   3  13   7    0.50    0.41
   3  13   7    0.05    0.44
  -3 -14   7    0.06    0.34
  -3  14   7   -1.26    0.40
   3  14  -7    0.04    0.34
  -2 -14   7    0.23    0.27
   2  14  -7    0.33    0.30
  -2  14   7   -0.16    0.36
   1 -14  -7   -0.22    0.24
  -1  14   7   -0.06    0.29
  -1  14   7   -0.41    0.30
   1  14  -7   -0.14    0.24
   0 -14  -7    0.57    0.27
   0  14   7    0.65    0.31
   0  14   7    0.76    0.32
  -1 -14  -7    0.93    0.29
   1  14   7    0.84    0.36
   1  14   7    0.85    0.34
  -2 -14  -7    0.14    0.34
   2  14   7   -0.06    0.36
   2  14   7   -0.44    0.36
  -2 -15   7    0.34    0.28
   2  15  -7    0.11    0.34
  -2  15   7   -0.23    0.39
   1  15  -7    0.17    0.28
  -1  15   7   -0.14    0.32
  -1  15   7    0.34    0.36
   0 -15  -7    2.12    0.34
   0  15   7    2.18    0.42
   0  15   7    1.76    0.38
  -1 -15  -7    0.55    0.30
   1  15   7    0.88    0.37
   1  15   7    0.87    0.38
  -2 -15  -7    0.35    0.35
   2  15   7    0.25    0.42
   2  15   7    0.18    0.41
  -1  16   7   -0.05    0.37
   0  16   7    0.05    0.34
   0  16   7    0.47    0.39
   1  16   7    0.53    0.38
   1  16   7    0.27    0.42
   5   0  -8    0.20    0.31
  -5   0   8   -0.16    0.32
  -4   0   8   10.13    0.73
   4   0  -8   10.64    0.74
  -4   0   8   11.94    0.56
  -3   0   8   -0.11    0.14
  -3   0   8    0.12    0.16
  -3   0   8   -0.08    0.12
   3   0  -8    0.15    0.15
  -2   0   8   16.16    0.94
  -2   0   8   16.75    0.74
   2   0  -8   15.89    0.94
  -2   0   8   16.57    0.92
  -1   0   8    0.28    0.07
  -1   0   8    0.25    0.08
   1   0  -8    0.18    0.07
  -1   0   8    0.23    0.07
   0   0   8    7.97    0.32
   0   0  -8    6.21    0.41
   0   0   8    5.49    0.40
   0   0   8    7.53    0.39
   1   0   8    0.00    0.05
   1   0   8    0.07    0.05
   1   0   8    0.02    0.05
  -2   0  -8   78.65    4.16
   2   0   8   75.58    3.27
   2   0   8   77.06    4.21
   3   0   8   -0.06    0.13
  -3   0  -8    0.20    0.15
  -5  -1   8    0.85    0.37
   5  -1  -8    0.48    0.31
   5   1  -8    0.40    0.33
  -5   1   8    0.11    0.32
   4  -1  -8    0.10    0.22
  -4  -1   8    0.03    0.22
  -4  -1   8    0.12    0.17
  -4   1   8   -0.01    0.22
  -4   1   8    0.00    0.16
  -4   1   8    0.29    0.22
   4   1  -8    0.12    0.21
   3  -1  -8    6.93    0.50
  -3  -1   8    7.41    0.40
  -3   1   8    7.33    0.39
  -3   1   8    7.39    0.52
   3   1  -8    7.54    0.51
  -3   1   8    7.61    0.49
   2  -1  -8   20.00    1.17
  -2  -1   8   20.76    0.91
  -2  -1   8   19.29    1.14
  -2  -1   8   21.45    1.17
  -2   1   8   20.99    1.15
  -2   1   8   20.45    0.91
   2   1  -8   20.71    1.17
  -2   1   8   21.20    1.17
  -1  -1   8    4.27    0.27
   1  -1  -8    4.47    0.28
  -1  -1   8    4.24    0.23
  -1  -1   8    4.40    0.28
   1   1  -8    3.99    0.27
   1   1  -8    4.38    0.25
  -1   1   8    4.52    0.28
  -1   1   8    4.48    0.23
  -1   1   8    4.43    0.27
   0  -1   8  120.59    5.10
   0  -1  -8  126.09    6.57
   0   1   8  119.28    5.10
   0   1  -8  113.31    6.55
   0   1   8  122.23    6.56
   1  -1   8   19.21    0.87
   1   1   8   20.87    1.10
   1   1   8   20.11    1.12
   2   1   8    2.75    0.23
  -2   1  -8    2.68    0.21
  -3  -1  -8    1.09    0.20
   3   1   8    1.22    0.18
   5  -2  -8    0.09    0.32
  -5  -2   8   -0.53    0.32
   5   2  -8    0.05    0.31
  -5   2   8    0.14    0.31
  -4  -2   8    3.15    0.35
   4  -2  -8    3.46    0.36
  -4  -2   8    3.56    0.27
  -4   2   8    2.90    0.33
   4   2  -8    2.72    0.35
  -4   2   8    2.97    0.25
  -4   2   8    2.76    0.35
   3  -2  -8   18.76    1.12
  -3  -2   8   20.14    1.11
  -3  -2   8   19.96    0.88
  -3   2   8   18.24    1.13
   3   2  -8   18.54    1.13
  -3   2   8   19.32    0.87
  -3   2   8   19.45    1.10
  -2  -2   8    3.28    0.25
   2  -2  -8    3.18    0.25
  -2  -2   8    3.37    0.22
  -2   2   8    2.95    0.20
   2   2  -8    2.99    0.25
  -2   2   8    3.27    0.24
  -2   2   8    2.87    0.26
  -1  -2   8  123.80    5.21
  -1  -2   8  125.72    6.58
   1  -2  -8  127.22    6.70
   1   2  -8  117.39    6.69
   1   2  -8  121.30    6.38
  -1   2   8  120.58    5.21
  -1   2   8  128.21    6.59
  -1   2   8  117.23    6.70
   0  -2  -8   17.37    0.92
   0  -2   8   15.77    0.71
   0   2   8   15.68    0.91
   0   2  -8   15.61    0.89
   0   2   8   16.05    0.90
   1  -2   8   19.43    0.86
  -1  -2  -8   20.78    1.12
   1   2   8   20.05    1.10
   1   2   8   19.32    1.12
   2   2   8   19.51    1.03
  -2   2  -8   16.53    1.00
  -3  -2  -8    0.02    0.16
   3   2   8    0.06    0.15
  -5  -3   8    0.83    0.38
   5  -3  -8    0.95    0.34
  -5   3   8    0.74    0.34
   5   3  -8    1.23    0.35
  -5   3   8    1.10    0.38
   4  -3  -8    1.08    0.26
  -4  -3   8    1.10    0.27
  -4  -3   8    1.34    0.21
  -4   3   8    0.83    0.25
  -4   3   8    1.18    0.19
   4   3  -8    1.22    0.28
  -4   3   8    0.81    0.26
  -3  -3   8   24.56    1.42
   3  -3  -8   25.07    1.44
  -3  -3   8   25.31    1.12
  -3   3   8   24.55    1.40
   3   3  -8   24.43    1.44
  -3   3   8   26.12    1.45
  -3   3   8   25.04    1.11
  -2  -3   8    4.06    0.26
  -2  -3   8    4.29    0.31
  -2  -3   8    4.42    0.27
   2  -3  -8    4.78    0.32
  -2   3   8    4.90    0.26
  -2   3   8    4.61    0.31
   2   3  -8    4.36    0.32
  -2   3   8    4.07    0.33
  -1  -3   8    2.75    0.18
  -1  -3   8    2.59    0.19
   1  -3  -8    3.14    0.22
  -1   3   8    2.61    0.22
   1   3  -8    2.77    0.19
   1   3  -8    2.78    0.20
  -1   3   8    3.00    0.22
   0  -3  -8    0.31    0.11
   0  -3   8    0.26    0.07
   0   3   8    0.73    0.13
   0   3   8    0.33    0.10
  -1  -3  -8   36.63    2.08
   1  -3   8   36.65    1.60
   1   3   8   40.19    2.05
   1   3   8   36.75    2.08
   2   3   8    0.07    0.11
   2   3   8    0.15    0.12
  -3  -3  -8   11.64    0.73
   3   3   8   11.65    0.72
  -4  -3  -8    0.06    0.24
  -5  -4   8    0.74    0.37
   5  -4  -8    0.38    0.32
  -5   4   8    0.34    0.35
   5   4  -8    0.31    0.33
  -5   4   8    0.30    0.32
  -4  -4   8    1.69    0.31
   4  -4  -8    1.51    0.29
  -4  -4   8    2.40    0.24
  -4   4   8    1.40    0.28
   4   4  -8    1.74    0.30
  -4   4   8    1.68    0.31
  -3  -4   8   12.53    0.80
   3  -4  -8   13.96    0.81
  -3  -4   8   13.27    0.64
   3   4  -8   13.10    0.81
  -3   4   8   12.93    0.82
  -3   4   8   12.78    0.63
  -2  -4   8   -0.03    0.11
  -2  -4   8   -0.02    0.08
   2  -4  -8    0.30    0.12
  -2  -4   8    0.05    0.11
  -2   4   8    0.16    0.13
   2   4  -8    0.08    0.12
  -2   4   8   -0.03    0.10
  -2   4   8    0.02    0.11
  -1  -4   8   73.21    3.16
  -1  -4   8   72.78    3.99
   1  -4  -8   79.29    4.07
  -1   4   8   77.00    4.07
   1   4  -8   69.45    3.87
   1   4  -8   71.34    4.05
  -1   4   8   75.85    4.01
   0  -4   8    0.20    0.07
   0  -4  -8    0.46    0.12
   0   4   8    0.51    0.13
   0   4   8    0.32    0.12
   1  -4   8   52.22    2.28
  -1  -4  -8   54.12    2.96
   1   4   8   56.19    2.92
   1   4   8   51.87    2.96
  -2   4  -8    0.26    0.10
   2   4   8    0.44    0.13
   2   4   8    0.39    0.15
  -3  -4  -8    0.21    0.18
   3   4   8    0.08    0.18
  -4  -4  -8    0.06    0.26
   4   4   8    0.35    0.25
   5  -5  -8    0.56    0.34
  -5  -5   8    0.51    0.37
  -5   5   8    0.82    0.38
  -5   5   8    0.52    0.34
   5   5  -8    0.55    0.35
  -4  -5   8    0.50    0.27
  -4  -5   8    0.66    0.21
   4  -5  -8    0.73    0.26
  -4   5   8    0.72    0.28
  -4   5   8    0.32    0.25
   4   5  -8    0.71    0.26
   3  -5  -8    8.96    0.60
  -3  -5   8    8.95    0.47
  -3  -5   8    8.55    0.59
  -3   5   8    9.33    0.62
  -3   5   8    8.87    0.46
  -3   5   8    8.69    0.58
   3   5  -8    8.43    0.60
   2  -5  -8   17.29    1.02
  -2  -5   8   17.04    0.99
  -2  -5   8   17.52    0.80
  -2   5   8   18.37    1.03
  -2   5   8   17.05    0.99
   2   5  -8   17.80    1.01
  -1  -5   8    2.53    0.18
   1  -5  -8    2.76    0.25
   1  -5  -8    2.44    0.18
  -1  -5   8    2.29    0.19
  -1   5   8    3.02    0.25
  -1   5   8    2.36    0.24
   1   5  -8    2.32    0.20
   1   5  -8    2.47    0.20
   0  -5  -8   45.46    2.37
   0  -5   8   41.48    1.83
   0   5   8   45.34    2.34
   0   5  -8   38.89    2.24
   0   5   8   41.52    2.36
   1  -5   8    7.14    0.33
  -1  -5  -8    6.79    0.48
   1   5   8    6.68    0.47
   1   5   8    7.66    0.47
  -2   5  -8    0.13    0.10
   2   5   8    0.14    0.15
   2   5   8    0.38    0.15
  -3  -5  -8    2.19    0.30
   3   5   8    2.39    0.29
  -4  -5  -8    1.84    0.35
   4   5   8    2.19    0.34
   5  -6  -8    0.31    0.34
  -5  -6   8    0.14    0.39
   5   6  -8    0.54    0.36
  -5   6   8    0.17    0.38
  -5   6   8   -0.01    0.32
   4  -6  -8    3.19    0.39
  -4  -6   8    3.35    0.41
  -4  -6   8    3.06    0.30
   4   6  -8    2.78    0.38
  -4   6   8    3.18    0.41
  -4   6   8    3.10    0.35
   3  -6  -8    1.68    0.25
  -3  -6   8    1.66    0.25
  -3  -6   8    1.45    0.20
  -3   6   8    1.77    0.28
   3   6  -8    1.51    0.25
  -3   6   8    1.68    0.20
  -3   6   8    1.87    0.24
  -2  -6   8    8.01    0.54
  -2  -6   8    8.32    0.45
   2  -6  -8    9.07    0.56
  -2   6   8    9.17    0.55
   2   6  -8    8.17    0.54
  -2   6   8    8.98    0.57
  -1  -6   8    0.61    0.10
  -1  -6   8    0.67    0.10
   1  -6  -8    0.61    0.10
   1  -6  -8    0.80    0.17
  -1  -6   8    0.51    0.11
  -1   6   8    0.89    0.17
  -1   6   8    0.62    0.16
   1   6  -8    0.45    0.11
   1   6  -8    0.60    0.11
   0  -6   8    7.41    0.36
   0  -6  -8    7.48    0.48
   0   6   8    7.50    0.49
   0   6   8    7.97    0.49
   0   6  -8    6.49    0.43
   0   6  -8    7.17    0.42
  -1  -6  -8    3.91    0.36
   1  -6   8    4.33    0.23
   1   6   8    3.78    0.33
   1   6   8    4.39    0.35
  -2  -6  -8   14.56    0.89
   2   6   8   14.82    0.89
   2   6   8   15.35    0.89
  -2   6  -8   14.35    0.84
  -3  -6  -8    0.65    0.25
   3   6   8    0.45    0.23
  -4  -6  -8    1.95    0.37
   4   6   8    2.00    0.35
  -5  -7   8    0.35    0.40
  -5   7   8   -0.25    0.33
   5   7  -8    0.37    0.36
  -5   7   8    0.08    0.40
  -4  -7   8    0.02    0.22
   4  -7  -8   -0.07    0.25
  -4  -7   8   -0.15    0.29
   4   7  -8   -0.24    0.26
  -4   7   8    0.44    0.31
  -4   7   8    0.07    0.25
   3  -7  -8    0.35    0.20
  -3  -7   8   -0.08    0.17
  -3  -7   8   -0.03    0.20
   3   7  -8    0.24    0.20
  -3   7   8   -0.01    0.17
  -3   7   8    0.04    0.20
  -3   7   8    0.42    0.23
   2  -7  -8   41.91    2.24
  -2  -7   8   37.70    1.74
  -2  -7   8   38.80    2.19
   2   7  -8   39.70    2.22
  -2   7   8   40.10    2.20
  -2   7   8   40.62    2.25
   1  -7  -8    0.65    0.19
  -1  -7   8    1.06    0.14
  -1  -7   8    1.28    0.13
   1   7  -8    1.16    0.16
  -1   7   8    0.90    0.20
  -1   7   8    1.00    0.20
   1   7  -8    1.21    0.15
   0  -7  -8   45.06    2.46
   0  -7   8   43.50    1.90
   0   7   8   44.52    2.46
   0   7  -8   42.10    2.41
   0   7   8   47.86    2.43
   0   7  -8   41.59    2.33
  -1  -7  -8    0.34    0.17
   1   7   8    0.59    0.18
  -1   7  -8    0.71    0.15
   1   7   8    0.13    0.15
  -2  -7  -8    0.14    0.19
   2   7   8    0.13    0.18
   2   7   8    0.12    0.19
  -3  -7  -8    0.61    0.27
   3   7   8    0.70    0.26
  -4  -7  -8    0.64    0.36
   4   7   8    1.44    0.35
  -4  -8   8    1.21    0.35
  -4  -8   8    0.95    0.26
   4  -8  -8    0.75    0.30
  -4   8   8    0.77    0.30
  -4   8   8    1.13    0.36
   4   8  -8    0.51    0.31
  -3  -8   8   -0.02    0.21
   3  -8  -8    0.19    0.21
  -3  -8   8   -0.21    0.18
   3   8  -8    0.03    0.21
  -3   8   8    0.24    0.24
  -3   8   8    0.15    0.22
   2  -8  -8    0.40    0.18
  -2  -8   8   -0.12    0.14
  -2  -8   8    0.06    0.15
  -2   8   8    0.01    0.18
   2   8  -8    0.15    0.16
  -2   8   8    0.14    0.20
  -1  -8   8   14.44    0.67
  -1  -8   8   14.74    0.80
  -1   8   8   11.35    0.85
  -1   8   8   14.14    0.87
   1   8  -8   15.20    0.82
   0  -8   8    3.13    0.24
   0  -8  -8    3.72    0.33
   0   8   8    3.29    0.31
   0   8  -8    2.97    0.23
   0   8   8    3.60    0.34
   0   8  -8    3.40    0.28
  -1  -8  -8    8.15    0.69
  -1   8  -8   13.03    0.64
   1   8   8    8.47    0.67
   1   8   8   12.73    0.70
  -2  -8  -8    3.60    0.38
   2   8   8    3.84    0.38
   2   8   8    3.91    0.37
  -2   8  -8    3.78    0.35
  -3  -8  -8    0.73    0.31
  -3  -8  -8    1.04    0.29
   3   8   8    1.06    0.30
   3   8   8    1.47    0.28
  -4  -8  -8    0.84    0.39
   4   8   8    0.74    0.35
  -4  -9   8    0.20    0.33
   4  -9  -8    0.08    0.28
  -4  -9   8    0.09    0.25
   4   9  -8   -0.30    0.29
  -4   9   8    0.04    0.30
  -4   9   8    0.33    0.36
   3  -9  -8    4.63    0.46
  -3  -9   8    4.42    0.42
  -3  -9   8    3.89    0.33
   3   9  -8    4.00    0.40
  -3   9   8    4.16    0.42
  -3   9   8    4.13    0.46
  -2  -9   8    5.72    0.38
  -2  -9   8    6.53    0.45
   2  -9  -8    6.57    0.49
  -2   9   8    5.64    0.52
  -2   9   8    6.52    0.53
   2   9  -8    6.29    0.47
  -1  -9   8    5.77    0.35
   1  -9  -8    4.20    0.42
  -1  -9   8    5.87    0.36
  -1   9   8    5.04    0.45
   1   9  -8    5.89    0.39
  -1   9   8    5.24    0.48
   0  -9  -8   11.05    0.71
   0   9   8   11.62    0.72
   0   9   8   11.81    0.73
   0   9  -8   10.81    0.65
   0   9  -8   10.78    0.66
  -1  -9  -8    4.74    0.46
  -1   9  -8    5.80    0.39
   1   9   8    5.04    0.45
   1   9   8    4.44    0.43
  -2  -9  -8    0.49    0.27
   2   9   8    0.59    0.25
  -2   9  -8    0.79    0.20
   2   9   8    0.71    0.25
  -3  -9  -8    3.79    0.46
  -3  -9  -8    2.77    0.40
   3   9   8    3.61    0.42
   3   9   8    3.56    0.42
  -4  -9  -8   -0.23    0.34
  -4  -9  -8   -0.41    0.37
   4   9   8   -0.19    0.34
  -4 -10   8    0.45    0.35
  -4  10   8    0.58    0.41
   4  10  -8    0.19    0.32
  -4  10   8   -0.32    0.34
  -3 -10   8    0.64    0.23
   3 -10  -8    0.61    0.26
  -3 -10   8    0.76    0.27
  -3  10   8    1.05    0.33
  -3  10   8    0.39    0.30
   3  10  -8    0.51    0.26
   2 -10  -8    2.22    0.30
  -2 -10   8    2.29    0.24
  -2 -10   8    2.55    0.28
   2  10  -8    2.56    0.28
  -2  10   8    1.88    0.33
  -2  10   8    2.22    0.34
  -1 -10   8   10.71    0.63
   1 -10  -8    8.67    0.70
  -1 -10   8   11.08    0.55
   1  10  -8   11.54    0.66
  -1  10   8   10.65    0.72
  -1  10   8   10.22    0.73
   0 -10  -8    6.66    0.51
   0  10   8    6.29    0.52
   0  10   8    6.72    0.51
   0  10  -8    6.35    0.42
   0  10  -8    6.32    0.45
  -1 -10  -8    8.31    0.64
   1  10   8    8.45    0.63
  -1  10  -8    9.28    0.57
   1  10   8    7.82    0.62
  -2 -10  -8    0.01    0.26
  -2  10  -8    0.37    0.19
   2  10   8   -0.22    0.25
   2  10   8    0.46    0.26
  -3 -10  -8    0.24    0.33
  -3 -10  -8    0.58    0.36
   3  10   8    1.21    0.36
   3  10   8    0.04    0.32
  -4 -10  -8   -0.04    0.37
  -4 -10  -8   -0.64    0.41
   4  10   8   -0.18    0.38
  -4 -11   8   -0.18    0.35
   4  11  -8    0.00    0.32
  -4  11   8    0.72    0.44
  -3 -11   8    1.21    0.31
   3 -11  -8    1.63    0.32
  -3  11   8    1.15    0.36
  -3  11   8    1.19    0.38
   3  11  -8    1.32    0.31
  -2 -11   8    0.71    0.22
   2 -11  -8    0.36    0.24
  -2  11   8    0.36    0.29
   2  11  -8    1.09    0.24
  -2  11   8    0.68    0.29
   1 -11  -8   -0.35    0.20
  -1 -11   8    0.27    0.14
   1  11  -8    0.02    0.16
  -1  11   8    0.36    0.25
  -1  11   8    0.08    0.23
   0 -11  -8    0.40    0.22
   0  11   8    0.80    0.24
   0  11   8    0.30    0.24
   0  11  -8    0.28    0.18
   0  11  -8    0.23    0.14
  -1 -11  -8    4.70    0.46
   1  11   8    4.78    0.49
   1  11   8    5.25    0.51
  -1  11  -8    5.05    0.42
  -2 -11  -8   -0.17    0.25
   2  11   8   -0.01    0.28
   2  11   8   -0.24    0.28
  -3 -11  -8    0.25    0.34
  -3 -11  -8   -0.30    0.37
   3  11   8    0.34    0.38
   3  11   8    0.70    0.37
  -3 -12   8    1.03    0.32
  -3  12   8    0.79    0.41
  -3  12   8    0.47    0.36
   3  12  -8    1.24    0.33
  -2 -12   8    2.14    0.30
   2 -12  -8    2.12    0.34
   2  12  -8    2.43    0.32
  -2  12   8    2.14    0.39
  -2  12   8    1.84    0.37
   1 -12  -8    0.62    0.25
  -1 -12   8    0.93    0.18
  -1  12   8    1.01    0.29
   1  12  -8    0.66    0.21
  -1  12   8    1.15    0.29
   0 -12  -8    0.72    0.24
   0  12   8    0.48    0.27
   0  12   8    0.84    0.27
  -1 -12  -8    0.10    0.22
   1  12   8    0.35    0.27
   1  12   8    0.14    0.27
  -2 -12  -8    2.70    0.42
   2  12   8    4.39    0.46
   2  12   8    2.20    0.44
  -3 -12  -8    0.35    0.35
  -3 -12  -8   -0.11    0.40
   3  12   8    0.24    0.38
   3  12   8   -0.21    0.40
  -3 -13   8    0.81    0.33
   3  13  -8    0.47    0.32
  -3  13   8   -0.46    0.40
   2 -13  -8    0.84    0.30
  -2 -13   8    1.30    0.28
  -2  13   8    1.46    0.39
   2  13  -8    1.68    0.31
  -2  13   8    0.90    0.36
   1 -13  -8    0.08    0.24
  -1  13   8   -0.01    0.28
   1  13  -8    0.12    0.22
  -1  13   8    0.37    0.30
   0 -13  -8    1.83    0.31
   0  13   8    2.26    0.35
   0  13   8    2.26    0.35
  -1 -13  -8    0.38    0.25
   1  13   8    0.22    0.29
   1  13   8   -0.04    0.30
  -2 -13  -8   -0.08    0.32
   2  13   8    0.37    0.36
   2  13   8   -0.27    0.34
  -3 -13  -8    0.55    0.34
  -3 -13  -8   -0.12    0.45
   3  13   8   -0.64    0.43
   3  13   8    0.40    0.42
  -2 -14   8    0.21    0.26
   2  14  -8    0.21    0.30
  -2  14   8    0.53    0.38
  -2  14   8    0.32    0.36
   1 -14  -8    0.60    0.27
   1  14  -8    0.66    0.27
  -1  14   8    0.71    0.32
  -1  14   8    0.93    0.35
   0 -14  -8    0.31    0.27
   0  14   8    0.67    0.31
   0  14   8    0.63    0.34
  -1 -14  -8    0.20    0.27
   1  14   8   -0.09    0.33
   1  14   8    0.00    0.31
  -2 -14  -8    0.06    0.34
   2  14   8    0.09    0.39
   2  14   8    0.26    0.41
   2  15  -8    0.10    0.35
  -2  15   8    0.75    0.43
  -1  15   8    0.49    0.34
  -1  15   8    0.21    0.35
   0 -15  -8    0.06    0.27
   0  15   8    0.24    0.34
   0  15   8    0.20    0.32
  -1 -15  -8    0.70    0.32
   1  15   8    1.11    0.41
   1  15   8    1.11    0.38
  -1  16   8    0.63    0.39
   0  16   8    0.03    0.38
   0  16   8    0.22    0.35
   5   0  -9    0.17    0.32
  -5   0   9    0.17    0.33
  -4   0   9   -0.02    0.22
  -4   0   9   -0.27    0.17
   4   0  -9    0.11    0.22
  -3   0   9   24.64    1.08
  -3   0   9   24.09    1.36
  -3   0   9   23.77    1.39
  -2   0   9   -0.02    0.11
  -2   0   9   -0.02    0.09
  -2   0   9    0.03    0.10
   2   0  -9    0.10    0.10
  -1   0   9   70.51    3.81
  -1   0   9   69.46    2.97
  -1   0   9   70.52    3.75
   1   0  -9   68.04    3.81
   0   0   9    0.05    0.05
   0   0   9    0.08    0.09
   0   0   9    0.03    0.06
   0   0  -9    0.04    0.08
   1   0   9   17.21    0.76
   1   0   9   18.11    0.95
   1   0   9   16.99    0.96
   2   0   9    0.15    0.09
   2   0   9    0.07    0.06
  -2   0  -9   -0.13    0.09
   5  -1  -9    2.38    0.41
  -5  -1   9    2.32    0.43
   5   1  -9    2.24    0.41
  -5   1   9    2.79    0.42
   4  -1  -9    2.25    0.31
  -4  -1   9    2.21    0.31
  -4  -1   9    2.34    0.24
  -4   1   9    2.30    0.30
   4   1  -9    1.95    0.30
  -4   1   9    2.68    0.34
  -4   1   9    2.49    0.24
  -3  -1   9    0.01    0.15
  -3  -1   9   -0.16    0.14
   3  -1  -9   -0.03    0.15
  -3   1   9    0.15    0.14
  -3   1   9   -0.23    0.12
  -3   1   9   -0.19    0.16
   3   1  -9    0.13    0.16
  -2  -1   9   15.66    0.70
  -2  -1   9   15.01    0.89
  -2  -1   9   15.39    0.87
   2  -1  -9   14.99    0.89
   2   1  -9   16.07    0.89
  -2   1   9   15.63    0.87
  -2   1   9   15.40    0.89
  -2   1   9   14.65    0.70
   1  -1  -9   37.79    2.00
  -1  -1   9   36.14    1.99
  -1  -1   9   36.20    1.56
  -1  -1   9   35.77    1.96
  -1   1   9   34.40    1.96
   1   1  -9   37.54    1.89
  -1   1   9   35.86    1.56
  -1   1   9   36.77    2.00
   1   1  -9   35.28    1.99
   0  -1  -9   10.83    0.63
   0  -1   9   10.77    0.49
   0   1   9   11.53    0.63
   0   1   9   10.85    0.62
   0   1   9   10.25    0.49
   0   1  -9   10.83    0.62
   1  -1   9   25.26    1.10
   1   1   9   26.60    1.39
   1   1   9   24.71    1.41
  -2   1  -9   10.01    0.59
   2   1   9   10.35    0.60
  -3  -1  -9    0.16    0.16
   3   1   9    0.37    0.16
  -5  -2   9   -0.51    0.35
   5  -2  -9   -0.04    0.31
   5   2  -9   -0.01    0.32
  -5   2   9   -0.11    0.32
  -4  -2   9    2.35    0.24
   4  -2  -9    1.93    0.30
  -4  -2   9    1.61    0.30
  -4   2   9    2.25    0.23
  -4   2   9    2.19    0.29
  -4   2   9    1.84    0.31
   4   2  -9    2.30    0.31
  -3  -2   9   20.42    1.18
   3  -2  -9   21.13    1.21
  -3  -2   9   21.02    0.94
   3   2  -9   20.71    1.21
  -3   2   9   20.13    1.21
  -3   2   9   19.96    0.93
  -3   2   9   20.91    1.17
  -2  -2   9    9.74    0.46
   2  -2  -9    9.07    0.58
  -2   2   9    9.65    0.56
  -2   2   9    9.56    0.58
  -2   2   9    9.43    0.45
   2   2  -9    9.08    0.57
   1  -2  -9    7.11    0.40
  -1  -2   9    6.59    0.38
  -1  -2   9    6.27    0.32
   1   2  -9    6.00    0.39
  -1   2   9    6.50    0.40
  -1   2   9    6.47    0.32
   1   2  -9    6.39    0.36
  -1   2   9    6.55    0.39
   0  -2  -9   80.36    4.43
   0  -2   9   81.07    4.33
   0  -2   9   80.16    3.44
   0   2  -9   79.80    4.40
   0   2   9   84.88    4.37
   0   2   9   78.30    4.42
   1  -2   9   13.80    0.63
  -1  -2  -9   15.15    0.83
   1   2   9   14.72    0.81
   1   2   9   13.92    0.82
   2   2   9   26.02    1.46
  -3  -2  -9    8.19    0.55
   3   2   9    7.89    0.54
   5  -3  -9    0.33    0.33
  -5  -3   9   -0.12    0.35
  -5   3   9   -0.30    0.32
   5   3  -9    0.31    0.33
  -5   3   9    0.12    0.34
  -4  -3   9    4.40    0.33
   4  -3  -9    4.52    0.46
  -4  -3   9    4.47    0.43
  -4   3   9    4.90    0.35
   4   3  -9    3.92    0.42
  -4   3   9    5.01    0.46
  -4   3   9    4.51    0.45
  -3  -3   9    3.88    0.27
  -3  -3   9    2.93    0.30
   3  -3  -9    3.30    0.33
  -3   3   9    3.46    0.26
   3   3  -9    3.64    0.34
  -3   3   9    3.62    0.33
  -3   3   9    3.42    0.33
  -2  -3   9   44.12    1.91
  -2  -3   9   43.13    2.40
   2  -3  -9   42.76    2.45
  -2   3   9   46.47    2.40
  -2   3   9   43.62    2.45
   2   3  -9   44.35    2.45
  -2   3   9   43.83    1.90
  -1  -3   9    3.63    0.23
   1  -3  -9    4.48    0.28
  -1  -3   9    3.15    0.22
  -1   3   9    3.45    0.27
  -1   3   9    3.75    0.27
   1   3  -9    4.01    0.24
   1   3  -9    3.50    0.25
   0  -3  -9    1.52    0.17
   0  -3   9    1.55    0.12
   0   3   9    1.53    0.18
   0   3   9    1.75    0.17
   0   3  -9    1.67    0.11
   1  -3   9    0.31    0.07
  -1  -3  -9    0.43    0.13
   1   3   9    0.39    0.12
   1   3   9    0.48    0.11
   2   3   9   43.21    2.38
   2   3   9   43.83    2.42
  -3  -3  -9    1.73    0.25
   3   3   9    1.74    0.24
  -5  -4   9    0.18    0.36
   5  -4  -9    0.09    0.33
   5   4  -9    0.17    0.32
  -5   4   9    0.21    0.35
  -5   4   9   -0.05    0.32
   4  -4  -9    5.01    0.49
  -4  -4   9    4.30    0.43
  -4  -4   9    4.83    0.34
  -4   4   9    3.96    0.44
   4   4  -9    4.81    0.48
  -4   4   9    4.52    0.34
  -4   4   9    4.94    0.47
  -3  -4   9    0.31    0.17
  -3  -4   9   -0.01    0.15
   3  -4  -9    0.32    0.17
   3   4  -9    0.08    0.17
  -3   4   9    0.20    0.19
  -3   4   9    0.12    0.14
  -3   4   9    0.20    0.16
   2  -4  -9    8.29    0.54
  -2  -4   9    8.67    0.53
  -2  -4   9    8.43    0.44
  -2   4   9    8.58    0.53
  -2   4   9    7.95    0.43
   2   4  -9    9.35    0.54
  -2   4   9    8.83    0.56
   1  -4  -9    0.27    0.12
  -1  -4   9    0.14    0.09
  -1  -4   9    0.02    0.07
   1   4  -9    0.25    0.08
   1   4  -9    0.08    0.08
  -1   4   9    0.11    0.11
  -1   4   9    0.16    0.11
   0  -4   9  133.41    5.90
   0  -4  -9  148.75    7.60
   0   4   9  128.46    7.59
   0   4   9  145.41    7.49
   1  -4   9    7.11    0.35
  -1  -4  -9    8.04    0.50
   1   4   9    7.60    0.49
   1   4   9    7.56    0.48
   2   4   9    1.48    0.19
   2   4   9    1.38    0.20
  -3  -4  -9    0.26    0.20
   3   4   9    0.17    0.20
  -4  -4  -9    0.46    0.27
  -5  -5   9    1.21    0.41
   5  -5  -9    0.82    0.36
   5   5  -9    1.33    0.38
  -5   5   9    0.65    0.35
  -5   5   9    0.86    0.39
  -4  -5   9    0.79    0.29
  -4  -5   9    1.10    0.22
   4  -5  -9    1.01    0.29
  -4   5   9    0.80    0.29
   4   5  -9    1.02    0.28
  -4   5   9    1.06    0.28
  -3  -5   9    2.69    0.24
  -3  -5   9    2.49    0.29
   3  -5  -9    2.92    0.30
  -3   5   9    2.76    0.28
  -3   5   9    2.56    0.31
   3   5  -9    2.04    0.28
  -3   5   9    2.70    0.23
  -2  -5   9   12.94    0.74
   2  -5  -9   12.75    0.77
  -2  -5   9   12.19    0.61
   2   5  -9   12.38    0.75
  -2   5   9   13.73    0.75
  -2   5   9   11.72    0.77
   1  -5  -9   17.72    1.04
  -1  -5   9   18.37    0.80
  -1  -5   9   17.47    0.98
   1   5  -9   17.27    0.96
  -1   5   9   18.08    1.03
  -1   5   9   18.82    1.02
   1   5  -9   16.94    1.00
   0  -5  -9    0.83    0.14
   0  -5   9    0.49    0.10
   0   5   9    0.50    0.14
   0   5  -9    0.49    0.11
   0   5   9    0.66    0.15
  -1  -5  -9   24.88    1.46
   1  -5   9   26.00    1.11
   1   5   9   26.77    1.46
   1   5   9   24.62    1.44
  -2  -5  -9   19.50    1.06
   2   5   9   16.31    1.05
   2   5   9   18.30    1.05
  -2   5  -9   17.64    1.01
  -3  -5  -9   -0.02    0.21
   3   5   9    0.08    0.21
  -4  -5  -9    2.15    0.37
   4   5   9    2.21    0.34
   5  -6  -9    0.60    0.35
  -5  -6   9    0.01    0.38
  -5   6   9    0.00    0.33
  -5   6   9   -0.31    0.38
   5   6  -9    0.21    0.36
   4  -6  -9    1.22    0.31
  -4  -6   9    1.12    0.32
  -4  -6   9    1.25    0.24
  -4   6   9    1.05    0.33
  -4   6   9    1.60    0.30
   4   6  -9    0.89    0.29
  -3  -6   9   14.57    0.75
  -3  -6   9   15.21    0.94
   3  -6  -9   16.41    0.96
  -3   6   9   15.27    0.93
  -3   6   9   15.80    0.98
  -3   6   9   15.73    0.75
   3   6  -9   15.76    0.96
  -2  -6   9    0.26    0.14
  -2  -6   9    0.15    0.14
   2  -6  -9    0.37    0.16
  -2   6   9    0.30    0.17
  -2   6   9    0.46    0.17
   2   6  -9    0.31    0.14
  -1  -6   9   12.05    0.67
  -1  -6   9   12.45    0.56
   1  -6  -9   11.83    0.65
   1  -6  -9    9.56    0.73
   1   6  -9   12.24    0.69
  -1   6   9   12.41    0.73
   1   6  -9   12.08    0.67
  -1   6   9   11.94    0.73
   0  -6  -9    8.09    0.51
   0  -6   9    6.88    0.38
   0   6   9    7.65    0.51
   0   6   9    8.56    0.52
   0   6  -9    7.46    0.46
   1  -6   9    9.26    0.42
  -1  -6  -9    7.50    0.59
   1   6   9    9.95    0.59
  -2  -6  -9    5.02    0.42
   2   6   9    5.14    0.41
   2   6   9    4.17    0.41
  -3  -6  -9    6.54    0.56
   3   6   9    6.82    0.55
  -4  -6  -9   -0.02    0.31
   4   6   9    0.07    0.29
  -5  -7   9    0.77    0.41
   5  -7  -9    0.96    0.39
  -5   7   9    0.88    0.43
   5   7  -9    0.68    0.39
  -5   7   9    0.73    0.37
   4  -7  -9    0.29    0.27
  -4  -7   9    0.14    0.30
  -4  -7   9    0.10    0.23
  -4   7   9    0.23    0.27
   4   7  -9    0.14    0.27
  -4   7   9    0.07    0.31
  -3  -7   9    0.06    0.18
  -3  -7   9    0.33    0.22
   3  -7  -9    0.26    0.20
   3   7  -9    0.30    0.21
  -3   7   9    0.42    0.22
  -3   7   9    0.63    0.26
  -3   7   9    0.38    0.19
  -2  -7   9    0.02    0.14
  -2  -7   9   -0.13    0.14
   2  -7  -9    0.22    0.16
  -2   7   9    0.45    0.19
  -2   7   9    0.05    0.18
   2   7  -9    0.04    0.14
  -1  -7   9   12.62    0.67
  -1  -7   9   11.82    0.56
  -1   7   9    9.29    0.73
   1   7  -9   12.09    0.68
   1   7  -9   12.28    0.69
  -1   7   9   11.36    0.74
   0  -7  -9    1.70    0.21
   0  -7   9    1.49    0.16
   0   7   9    1.88    0.24
   0   7  -9    1.57    0.15
   0   7  -9    1.51    0.18
   0   7   9    1.96    0.23
   1  -7   9   41.45    1.84
   1   7   9   43.43    2.40
  -1   7  -9   43.50    2.28
  -2  -7  -9    0.53    0.22
   2   7   9    0.38    0.20
   2   7   9    0.24    0.20
  -3  -7  -9    1.59    0.30
  -3  -7  -9    1.41    0.32
   3   7   9    1.50    0.30
  -4  -7  -9    0.28    0.35
   4   7   9    0.35    0.32
   4  -8  -9    0.59    0.29
  -4  -8   9    0.69    0.26
  -4  -8   9    0.29    0.33
  -4   8   9    0.27    0.29
   4   8  -9    0.11    0.30
  -4   8   9    0.46    0.34
  -3  -8   9   11.14    0.76
   3  -8  -9   12.35    0.80
  -3  -8   9   10.98    0.62
  -3   8   9   11.42    0.77
  -3   8   9   11.96    0.81
  -2  -8   9    1.53    0.20
   2  -8  -9    2.18    0.27
  -2  -8   9    1.75    0.22
  -2   8   9    2.07    0.28
   2   8  -9    1.93    0.24
  -2   8   9    1.89    0.27
  -1  -8   9    1.76    0.16
   1  -8  -9    0.71    0.24
  -1  -8   9    1.71    0.18
   1   8  -9    1.58    0.19
  -1   8   9    1.06    0.24
  -1   8   9    1.91    0.26
   1   8  -9    2.04    0.19
   0  -8  -9   23.17    1.31
   0  -8   9   22.66    1.01
   0   8   9   24.00    1.30
   0   8   9   23.87    1.32
   0   8  -9   20.90    1.25
   0   8  -9   21.29    1.23
  -1  -8  -9    6.16    0.57
   1   8   9    9.63    0.59
  -1   8  -9    9.71    0.53
   1   8   9    6.61    0.55
  -2  -8  -9    2.00    0.32
   2   8   9    2.21    0.30
   2   8   9    1.99    0.31
  -3  -8  -9    1.80    0.34
  -3  -8  -9    2.22    0.39
   3   8   9    2.94    0.38
   3   8   9    2.52    0.35
  -4  -8  -9    0.35    0.35
  -4  -8  -9    0.14    0.39
   4   8   9    0.27    0.35
  -4  -9   9    0.19    0.27
  -4  -9   9   -0.17    0.32
   4  -9  -9    0.15    0.29
   4   9  -9   -0.07    0.30
  -4   9   9    0.21    0.37
  -4   9   9    0.50    0.33
  -3  -9   9    0.16    0.24
   3  -9  -9    0.45    0.25
  -3  -9   9    0.09    0.21
   3   9  -9    0.24    0.25
  -3   9   9    0.12    0.27
  -3   9   9   -0.03    0.28
   2  -9  -9    2.04    0.28
  -2  -9   9    1.60    0.21
  -2  -9   9    1.75    0.23
   2   9  -9    1.86    0.25
  -2   9   9    1.81    0.31
  -2   9   9    1.54    0.30
   1  -9  -9    3.21    0.37
  -1  -9   9    4.14    0.29
  -1  -9   9    4.22    0.30
  -1   9   9    3.84    0.39
   1   9  -9    4.03    0.32
  -1   9   9    3.86    0.40
   0  -9  -9    0.73    0.20
   0  -9   9    0.57    0.15
   0   9   9    0.83    0.21
   0   9  -9    0.32    0.15
   0   9  -9    0.48    0.11
   0   9   9    0.39    0.21
  -1  -9  -9    5.23    0.50
  -1   9  -9    6.11    0.43
   1   9   9    6.85    0.51
   1   9   9    5.25    0.48
  -2  -9  -9    4.76    0.49
  -2   9  -9    6.11    0.45
   2   9   9    5.38    0.51
   2   9   9    5.74    0.52
  -3  -9  -9    0.20    0.30
  -3  -9  -9   -0.01    0.33
   3   9   9    0.09    0.31
   3   9   9    0.27    0.28
  -4  -9  -9    1.87    0.49
  -4  -9  -9    1.73    0.42
   4   9   9    1.66    0.42
  -4 -10   9    0.69    0.37
  -4  10   9    0.80    0.42
  -4  10   9    0.04    0.36
   4  10  -9    0.66    0.34
   3 -10  -9    0.23    0.26
  -3 -10   9   -0.12    0.23
  -3 -10   9   -0.04    0.25
   3  10  -9    0.11    0.25
  -3  10   9    0.43    0.32
  -3  10   9    0.15    0.31
   2 -10  -9    1.61    0.29
  -2 -10   9    1.82    0.24
  -2 -10   9    1.68    0.23
   2  10  -9    2.06    0.26
  -2  10   9    0.87    0.30
  -2  10   9    1.44    0.31
  -1 -10   9    0.40    0.13
  -1 -10   9    0.57    0.18
   1 -10  -9    0.12    0.22
  -1  10   9    0.24    0.22
  -1  10   9    0.31    0.25
   1  10  -9    0.52    0.16
   0 -10  -9    9.53    0.66
   0  10   9    9.81    0.67
   0  10  -9    9.45    0.61
   0  10   9   10.12    0.68
  -1 -10  -9    0.10    0.22
  -1  10  -9   -0.06    0.16
   1  10   9    0.10    0.22
   1  10   9    0.09    0.23
  -2 -10  -9    0.97    0.30
   2  10   9    1.27    0.32
   2  10   9    1.93    0.33
  -2  10  -9    1.53    0.24
  -3 -10  -9    0.06    0.35
  -3 -10  -9    0.23    0.36
   3  10   9   -0.03    0.33
   3  10   9    0.14    0.34
  -4 -10  -9   -0.06    0.40
  -4 -11   9    1.55    0.41
  -4  11   9    0.69    0.43
  -4  11   9    1.24    0.48
   4  11  -9    0.92    0.36
  -3 -11   9   -0.15    0.26
   3 -11  -9    0.10    0.27
  -3  11   9   -0.60    0.32
   3  11  -9    0.14    0.27
  -3  11   9   -0.02    0.33
   2 -11  -9    2.13    0.35
  -2 -11   9    2.97    0.30
  -2 -11   9    2.36    0.27
   2  11  -9    3.55    0.34
  -2  11   9    2.22    0.38
  -2  11   9    2.57    0.39
  -1 -11   9    1.81    0.20
   1 -11  -9    1.68    0.30
   1  11  -9    1.94    0.24
  -1  11   9    1.83    0.30
  -1  11   9    2.19    0.33
   0 -11  -9    0.45    0.23
   0  11   9    0.81    0.25
   0  11   9    0.07    0.24
   0  11  -9    0.08    0.17
  -1 -11  -9    2.43    0.31
   1  11   9    2.33    0.35
   1  11   9    2.79    0.36
  -1  11  -9    2.36    0.28
  -2 -11  -9    1.11    0.33
   2  11   9    1.93    0.35
   2  11   9    1.37    0.37
  -3 -11  -9   -0.07    0.35
  -3 -11  -9   -0.44    0.38
   3  11   9    0.34    0.37
   3  11   9    0.06    0.38
  -3 -12   9    1.24    0.32
  -3  12   9    0.57    0.37
   3  12  -9    0.56    0.31
  -3  12   9   -0.13    0.38
  -2 -12   9   -0.25    0.21
   2 -12  -9   -0.42    0.25
  -2  12   9    0.19    0.33
  -2  12   9   -0.34    0.30
   2  12  -9    0.12    0.24
   1 -12  -9    3.86    0.41
   1  12  -9    4.34    0.39
  -1  12   9    3.84    0.42
  -1  12   9    3.57    0.42
   0 -12  -9    0.32    0.23
   0  12   9    0.32    0.26
   0  12   9    0.36    0.26
  -1 -12  -9    0.19    0.22
   1  12   9    0.01    0.27
   1  12   9   -0.01    0.28
  -2 -12  -9    0.79    0.33
   2  12   9    1.04    0.36
   2  12   9    0.18    0.35
  -3 -12  -9    1.19    0.47
  -3 -12  -9    1.19    0.39
   3  12   9    1.06    0.48
   3  12   9    1.57    0.44
  -3 -13   9   -0.25    0.30
   3  13  -9   -0.16    0.32
  -3  13   9   -0.61    0.40
   2 -13  -9   -0.41    0.27
  -2 -13   9    0.44    0.24
  -2  13   9    0.54    0.36
  -2  13   9    0.08    0.34
   2  13  -9    0.36    0.27
   1 -13  -9    6.58    0.58
  -1  13   9    7.26    0.62
   1  13  -9    6.80    0.53
  -1  13   9    6.24    0.62
   0 -13  -9    0.50    0.26
   0  13   9    0.02    0.29
   0  13   9    0.91    0.30
  -1 -13  -9    2.41    0.34
   1  13   9    2.20    0.40
   1  13   9    2.78    0.40
  -2 -13  -9    0.10    0.34
   2  13   9   -0.02    0.36
   2  13   9    0.11    0.37
   2  14  -9    0.47    0.31
  -2  14   9   -0.16    0.37
  -2  14   9    0.18    0.38
   1 -14  -9    0.75    0.29
  -1  14   9    0.53    0.33
  -1  14   9    0.98    0.35
   0 -14  -9    0.01    0.26
   0  14   9    0.24    0.31
   0  14   9   -0.02    0.31
  -1 -14  -9    1.07    0.31
   1  14   9    1.57    0.40
   1  14   9    1.13    0.36
  -2 -14  -9    0.72    0.35
   2  14   9    0.34    0.40
   2  14   9    0.96    0.43
   2  15  -9    0.83    0.36
  -2  15   9    0.30    0.42
  -1  15   9    0.51    0.38
  -1  15   9    0.87    0.36
   0 -15  -9    0.07    0.28
   0  15   9    0.04    0.35
   0  15   9   -0.06    0.33
  -1 -15  -9   -0.05    0.30
   1  15   9    0.51    0.40
   1  15   9    0.04    0.34
   5   0 -10   -0.04    0.31
  -5   0  10   -0.17    0.33
  -4   0  10    1.38    0.22
   4   0 -10    1.48    0.29
  -4   0  10    1.02    0.26
  -3   0  10    0.26    0.18
  -3   0  10    0.11    0.14
   3   0 -10    0.09    0.15
  -3   0  10    0.17    0.15
  -2   0  10   44.04    2.40
  -2   0  10   43.36    2.35
  -2   0  10   42.97    1.87
   2   0 -10   42.42    2.40
  -1   0  10    0.12    0.07
  -1   0  10    0.13    0.08
  -1   0  10    0.06    0.08
   1   0 -10    0.07    0.07
   0   0  10   34.86    2.15
   0   0  10   43.16    1.70
   0   0  10   42.14    2.17
   0   0 -10   38.26    2.18
   1   0  10    0.01    0.06
   1   0  10    0.05    0.05
   1   0  10    0.04    0.07
   2   0  10    0.15    0.07
   2   0  10    0.28    0.09
  -5  -1  10   -0.02    0.35
   5  -1 -10    0.68    0.34
   5   1 -10    0.07    0.32
  -5   1  10    0.01    0.34
  -4  -1  10    5.77    0.52
  -4  -1  10    5.82    0.41
   4  -1 -10    6.14    0.52
  -4   1  10    5.82    0.49
  -4   1  10    6.32    0.54
  -4   1  10    6.17    0.40
   4   1 -10    5.96    0.51
   3  -1 -10    0.20    0.16
  -3  -1  10    0.20    0.16
  -3  -1  10   -0.12    0.14
  -3   1  10    0.07    0.14
   3   1 -10    0.30    0.18
  -3   1  10    0.11    0.15
  -3   1  10    0.56    0.19
  -2  -1  10    0.57    0.14
   2  -1 -10    0.53    0.13
  -2  -1  10    0.51    0.12
  -2  -1  10    0.57    0.12
  -2   1  10    0.63    0.13
   2   1 -10    0.63    0.13
  -2   1  10    0.71    0.12
  -2   1  10    0.71    0.15
  -1  -1  10   25.83    1.35
   1  -1 -10   25.01    1.38
  -1  -1  10   24.97    1.09
  -1  -1  10   24.74    1.38
  -1   1  10   25.39    1.36
  -1   1  10   23.97    1.08
   1   1 -10   24.68    1.38
  -1   1  10   23.76    1.38
   0  -1  10   95.11    4.09
   0  -1 -10   95.40    5.26
   0   1  10   98.57    5.19
   0   1 -10   93.32    5.25
   0   1  10   97.11    4.09
   0   1  10   97.40    5.25
   1  -1  10    0.23    0.07
  -1  -1 -10    0.35    0.11
   1   1  10    0.31    0.08
   1   1  10    0.13    0.07
   1   1  10    0.27    0.08
   2  -1  10   23.97    1.04
   2   1  10   24.85    1.35
   2   1  10   23.72    1.05
  -5  -2  10    1.67    0.41
   5  -2 -10    1.51    0.38
  -5   2  10    1.50    0.38
   5   2 -10    2.03    0.39
  -4  -2  10   -0.19    0.23
   4  -2 -10   -0.22    0.22
  -4  -2  10    0.16    0.19
  -4   2  10   -0.08    0.24
  -4   2  10    0.06    0.22
  -4   2  10   -0.09    0.18
   4   2 -10    0.02    0.24
  -3  -2  10    4.82    0.38
   3  -2 -10    4.13    0.38
  -3  -2  10    4.69    0.32
  -3   2  10    4.34    0.30
  -3   2  10    4.64    0.40
  -3   2  10    4.76    0.37
   3   2 -10    4.75    0.39
   2  -2 -10   12.91    0.75
  -2  -2  10   12.56    0.59
  -2  -2  10   12.12    0.72
  -2   2  10   12.56    0.75
  -2   2  10   12.34    0.59
  -2   2  10   12.47    0.73
   2   2 -10   12.98    0.75
  -1  -2  10    0.70    0.09
   1  -2 -10    0.57    0.11
  -1  -2  10    0.53    0.10
  -1   2  10    0.80    0.12
  -1   2  10    0.61    0.10
  -1   2  10    0.73    0.12
   1   2 -10    0.56    0.10
   1   2 -10    0.71    0.09
   0  -2 -10   29.27    1.58
   0  -2  10   28.34    1.22
   0  -2  10   28.22    1.52
   0   2  10   29.51    1.57
   0   2  10   27.01    1.57
   0   2 -10   27.27    1.55
  -1  -2 -10   45.47    2.45
   1  -2  10   44.05    1.90
   1   2  10   40.56    2.44
   1   2  10   47.29    2.41
   2  -2  10    1.10    0.08
   2   2  10    1.48    0.18
  -3  -2 -10    3.36    0.33
  -5  -3  10    0.32    0.38
   5  -3 -10    0.04    0.33
  -5   3  10    0.19    0.34
  -5   3  10    0.60    0.37
   5   3 -10    0.19    0.33
  -4  -3  10    0.48    0.21
   4  -3 -10    0.79    0.27
  -4  -3  10    0.46    0.26
  -4   3  10    0.56    0.19
  -4   3  10    0.97    0.26
  -4   3  10    0.78    0.29
   4   3 -10    0.57    0.25
  -3  -3  10    1.55    0.22
  -3  -3  10    2.07    0.21
   3  -3 -10    1.91    0.25
  -3   3  10    2.17    0.21
  -3   3  10    1.86    0.23
  -3   3  10    2.07    0.27
   3   3 -10    1.97    0.26
  -2  -3  10    1.51    0.16
  -2  -3  10    1.52    0.17
   2  -3 -10    1.26    0.18
  -2   3  10    1.79    0.20
  -2   3  10    1.59    0.16
   2   3 -10    1.67    0.19
  -2   3  10    1.48    0.17
  -1  -3  10   49.73    2.82
   1  -3 -10   57.24    2.90
  -1  -3  10   52.85    2.25
  -1   3  10   54.10    2.89
   1   3 -10   51.00    2.74
   1   3 -10   50.53    2.87
  -1   3  10   51.45    2.84
   0  -3 -10    3.87    0.30
   0  -3  10    3.37    0.22
   0   3 -10    3.83    0.23
   0   3  10    4.38    0.32
   0   3  10    3.89    0.28
  -1  -3 -10    3.96    0.33
   1  -3  10    3.85    0.22
   1   3  10    4.80    0.30
   1   3  10    4.10    0.32
   2   3  10   -0.07    0.14
   2   3  10    0.06    0.12
  -3  -3 -10   12.67    0.79
   3   3  10   12.14    0.78
  -5  -4  10    0.18    0.37
   5  -4 -10    0.91    0.36
  -5   4  10    0.70    0.35
  -5   4  10    1.04    0.39
   5   4 -10    0.77    0.35
  -4  -4  10    1.97    0.27
  -4  -4  10    2.13    0.34
   4  -4 -10    2.76    0.36
  -4   4  10    2.36    0.35
  -4   4  10    2.24    0.25
  -4   4  10    2.48    0.32
   4   4 -10    1.81    0.32
  -3  -4  10    3.75    0.28
   3  -4 -10    3.97    0.36
  -3  -4  10    3.36    0.33
   3   4 -10    3.71    0.36
  -3   4  10    3.97    0.31
  -3   4  10    3.59    0.35
  -3   4  10    3.64    0.35
  -2  -4  10   12.98    0.61
   2  -4 -10   13.56    0.78
   2   4 -10   12.61    0.77
  -2   4  10   12.82    0.78
  -2   4  10   13.22    0.62
  -2   4  10   12.15    0.75
   1  -4 -10    1.06    0.17
  -1  -4  10    0.80    0.12
  -1  -4  10    0.89    0.10
   1   4 -10    0.84    0.12
  -1   4  10    1.01    0.16
   1   4 -10    0.81    0.12
  -1   4  10    0.92    0.15
   0  -4 -10    2.00    0.20
   0  -4  10    1.48    0.14
   0   4  10    2.35    0.23
   0   4  10    1.94    0.20
  -1  -4 -10   66.98    3.81
   1  -4  10   68.03    2.94
   1   4  10   70.33    3.75
   1   4  10   70.66    3.80
   2   4  10    1.84    0.22
   2   4  10    1.68    0.23
  -3  -4 -10    6.48    0.52
   3   4  10    7.03    0.52
   5  -5 -10    0.12    0.34
  -5  -5  10   -0.30    0.37
  -5   5  10    0.15    0.38
  -5   5  10   -0.01    0.32
   5   5 -10   -0.06    0.34
  -4  -5  10    1.50    0.32
  -4  -5  10    1.13    0.24
   4  -5 -10    1.30    0.30
  -4   5  10    1.09    0.32
   4   5 -10    1.10    0.29
  -4   5  10    1.46    0.29
  -4   5  10    1.30    0.22
  -3  -5  10    7.38    0.44
   3  -5 -10    7.39    0.55
  -3  -5  10    7.54    0.53
  -3   5  10    7.81    0.53
  -3   5  10    7.65    0.57
  -3   5  10    7.40    0.44
   3   5 -10    7.27    0.55
  -2  -5  10    2.39    0.26
   2  -5 -10    3.22    0.30
  -2  -5  10    3.29    0.25
  -2   5  10    3.24    0.29
  -2   5  10    3.11    0.30
   2   5 -10    3.21    0.28
   1  -5 -10   10.26    0.65
  -1  -5  10   10.49    0.58
  -1  -5  10   10.45    0.50
  -1   5  10    9.52    0.64
  -1   5  10   10.52    0.64
   1   5 -10   10.20    0.60
   1   5 -10   10.52    0.59
   0  -5 -10   10.07    0.63
   0  -5  10   10.12    0.48
   0   5  10   11.06    0.64
   0   5  10    9.53    0.62
   0   5 -10    9.80    0.58
  -1  -5 -10   -0.04    0.16
   1  -5  10    0.07    0.08
   1   5  10    0.03    0.14
   1   5  10    0.18    0.16
  -2  -5 -10   20.67    1.19
   2   5  10   19.73    1.19
   2   5  10   20.38    1.17
  -3  -5 -10    2.19    0.32
   3   5  10    2.67    0.32
  -4  -5 -10    0.23    0.30
   5  -6 -10    0.33    0.37
  -5  -6  10    0.21    0.38
  -5   6  10   -0.12    0.34
   5   6 -10    0.22    0.37
  -5   6  10   -0.14    0.39
  -4  -6  10    0.27    0.28
   4  -6 -10    0.11    0.26
  -4  -6  10    0.02    0.23
  -4   6  10    0.29    0.27
   4   6 -10    0.21    0.27
  -4   6  10    0.01    0.29
  -3  -6  10    0.51    0.19
  -3  -6  10    0.24    0.20
   3  -6 -10    0.67    0.22
   3   6 -10    0.38    0.21
  -3   6  10    0.20    0.22
  -3   6  10    0.44    0.18
  -3   6  10    0.27    0.20
  -2  -6  10   13.10    0.79
  -2  -6  10   13.03    0.65
   2  -6 -10   14.72    0.83
  -2   6  10   14.67    0.82
  -2   6  10   12.98    0.84
   2   6 -10   12.51    0.80
  -1  -6  10    0.19    0.12
   1  -6 -10   -0.29    0.15
  -1  -6  10    0.01    0.08
  -1   6  10    0.16    0.17
   1   6 -10    0.04    0.10
  -1   6  10    0.11    0.15
   1   6 -10    0.08    0.10
   0  -6  10   43.71    1.88
   0  -6 -10   45.33    2.43
   0   6 -10   40.85    2.38
   0   6 -10   43.12    2.30
   0   6  10   47.26    2.40
   0   6  10   40.95    2.43
   1  -6  10   16.18    0.74
   1   6  10   17.26    1.00
  -2  -6 -10    5.25    0.45
   2   6  10    5.47    0.43
   2   6  10    4.21    0.43
  -3  -6 -10    2.25    0.35
   3   6  10    2.73    0.33
  -4  -6 -10    2.85    0.44
  -5  -7  10   -0.05    0.40
  -5   7  10    0.36    0.41
   4  -7 -10    3.13    0.40
  -4  -7  10    2.68    0.31
  -4  -7  10    2.93    0.41
   4   7 -10    2.47    0.38
  -4   7  10    2.71    0.37
  -4   7  10    3.19    0.44
  -3  -7  10    1.05    0.25
   3  -7 -10    1.18    0.27
  -3  -7  10    0.68    0.20
  -3   7  10    0.96    0.28
  -3   7  10    0.80    0.22
  -3   7  10    0.94    0.26
   3   7 -10    1.06    0.25
   2  -7 -10    2.17    0.26
  -2  -7  10    1.85    0.20
  -2  -7  10    1.44    0.20
   2   7 -10    1.73    0.22
  -2   7  10    1.61    0.25
  -2   7  10    1.64    0.25
   1  -7 -10   -0.54    0.16
  -1  -7  10   -0.03    0.12
  -1  -7  10    0.05    0.09
  -1   7  10   -0.11    0.16
   1   7 -10   -0.05    0.11
   1   7 -10    0.08    0.11
  -1   7  10    0.03    0.17
   0  -7 -10   12.28    0.75
   0  -7  10   12.31    0.58
   0   7  10   12.52    0.76
   0   7 -10   11.93    0.70
   0   7 -10   11.44    0.69
   0   7  10   12.66    0.76
  -1  -7 -10    1.58    0.28
   1  -7  10    2.56    0.20
  -1   7 -10    2.91    0.27
   1   7  10    2.97    0.30
  -2  -7 -10   13.43    0.88
   2   7  10   13.63    0.87
   2   7  10   13.71    0.87
  -3  -7 -10    0.61    0.28
  -3  -7 -10    0.51    0.30
   3   7  10    0.35    0.27
  -4  -7 -10    0.30    0.36
   4   7  10    0.08    0.32
  -4  -8  10   -0.20    0.31
  -4  -8  10    0.42    0.26
   4  -8 -10    0.53    0.30
  -4   8  10    0.64    0.37
  -4   8  10    0.14    0.31
   4   8 -10   -0.32    0.29
   3  -8 -10    6.07    0.54
  -3  -8  10    5.45    0.49
  -3  -8  10    5.40    0.42
   3   8 -10    5.30    0.50
  -3   8  10    5.84    0.55
  -3   8  10    5.60    0.55
  -3   8  10    5.55    0.40
  -2  -8  10    3.04    0.26
  -2  -8  10    3.13    0.32
   2  -8 -10    3.64    0.35
  -2   8  10    3.73    0.37
  -2   8  10    3.45    0.36
   2   8 -10    3.14    0.31
   1  -8 -10    0.41    0.22
  -1  -8  10    1.17    0.13
  -1  -8  10    0.94    0.16
   1   8 -10    1.10    0.16
  -1   8  10    1.10    0.23
  -1   8  10    0.56    0.22
   1   8 -10    1.04    0.18
   0  -8 -10    5.36    0.43
   0  -8  10    5.16    0.32
   0   8  10    5.22    0.44
   0   8  10    5.80    0.43
   0   8 -10    4.96    0.37
  -1  -8 -10    1.55    0.27
   1   8  10    0.87    0.23
  -1   8 -10    1.99    0.22
   1   8  10    2.17    0.28
  -2  -8 -10    2.30    0.35
   2   8  10    2.22    0.33
   2   8  10    2.32    0.33
  -3  -8 -10    0.35    0.32
  -3  -8 -10    0.58    0.31
   3   8  10    1.06    0.29
   3   8  10    0.61    0.31
  -4  -8 -10    0.71    0.42
  -4  -8 -10    0.80    0.40
   4   8  10    1.31    0.38
  -4  -9  10    0.23    0.33
  -4  -9  10    0.24    0.28
   4  -9 -10    0.66    0.33
   4   9 -10    0.52    0.33
  -4   9  10    0.27    0.35
  -4   9  10    0.26    0.39
   3  -9 -10    5.74    0.53
  -3  -9  10    4.84    0.48
  -3  -9  10    3.79    0.35
  -3   9  10    5.17    0.48
   3   9 -10    4.96    0.45
  -3   9  10    4.33    0.50
  -2  -9  10    0.35    0.17
   2  -9 -10    0.35    0.21
  -2  -9  10    0.33    0.18
   2   9 -10    0.26    0.19
  -2   9  10    0.45    0.27
  -2   9  10    0.39    0.24
   1  -9 -10    5.55    0.52
  -1  -9  10    6.19    0.39
  -1  -9  10    6.59    0.39
   1   9 -10    6.78    0.44
  -1   9  10    6.20    0.51
  -1   9  10    5.94    0.54
   0  -9 -10    2.41    0.28
   0  -9  10    2.35    0.21
   0   9 -10    2.36    0.24
   0   9  10    2.17    0.28
   0   9  10    2.48    0.31
  -1  -9 -10    0.09    0.22
   1   9  10    0.09    0.20
  -1   9 -10   -0.11    0.15
   1   9  10    0.16    0.22
  -2  -9 -10    1.33    0.32
   2   9  10    1.31    0.31
  -2   9 -10    1.77    0.25
   2   9  10    2.02    0.33
  -3  -9 -10    1.47    0.40
  -3  -9 -10    2.12    0.40
   3   9  10    1.83    0.37
   3   9  10    2.19    0.38
  -4  -9 -10   -0.02    0.38
  -4  -9 -10    0.00    0.44
   4   9  10    0.93    0.40
  -4 -10  10    0.48    0.36
   4 -10 -10    0.44    0.34
  -4 -10  10   -0.06    0.28
   4  10 -10   -0.12    0.33
  -4  10  10    0.75    0.43
  -4  10  10   -0.30    0.36
   3 -10 -10    1.71    0.34
  -3 -10  10    0.97    0.29
  -3 -10  10    1.45    0.27
   3  10 -10    1.35    0.30
  -3  10  10    1.22    0.36
  -3  10  10    1.35    0.37
   2 -10 -10    0.08    0.24
  -2 -10  10    0.48    0.20
  -2 -10  10    0.59    0.19
  -2  10  10    0.37    0.29
  -2  10  10    0.34    0.26
   2  10 -10    0.85    0.22
  -1 -10  10    0.96    0.14
   1 -10 -10    0.73    0.26
  -1 -10  10    0.83    0.19
  -1  10  10    0.85    0.26
  -1  10  10    0.92    0.27
   1  10 -10    1.22    0.19
   0 -10 -10    1.15    0.24
   0  10  10    1.44    0.26
   0  10  10    0.99    0.26
   0  10 -10    1.32    0.21
  -1 -10 -10    9.02    0.69
  -1  10 -10    8.75    0.60
   1  10  10    9.74    0.69
   1  10  10    9.81    0.68
  -2 -10 -10   -0.06    0.25
   2  10  10   -0.34    0.27
   2  10  10    0.08    0.29
  -3 -10 -10    1.65    0.42
  -3 -10 -10    1.26    0.43
   3  10  10    2.06    0.41
   3  10  10    2.07    0.43
  -4 -11  10    0.45    0.37
  -4  11  10    0.70    0.47
   4  11 -10    0.12    0.35
  -4  11  10   -0.40    0.40
  -3 -11  10    1.40    0.32
   3 -11 -10    1.33    0.34
  -3 -11  10    1.19    0.27
  -3  11  10    0.71    0.37
  -3  11  10    0.87    0.38
   3  11 -10    0.98    0.31
   2 -11 -10   -0.43    0.25
  -2 -11  10    0.44    0.20
  -2 -11  10    0.50    0.21
  -2  11  10   -0.06    0.30
  -2  11  10   -0.06    0.28
   2  11 -10    0.14    0.21
  -1 -11  10    7.18    0.46
   1 -11 -10    7.63    0.59
  -1  11  10    6.78    0.60
   1  11 -10    7.29    0.51
  -1  11  10    7.56    0.63
   0 -11 -10    0.28    0.22
   0  11 -10    0.15    0.18
   0  11  10    0.52    0.24
   0  11  10    0.44    0.25
  -1 -11 -10    0.38    0.22
   1  11  10   -0.03    0.27
   1  11  10    0.18    0.26
  -2 -11 -10   -0.17    0.27
   2  11  10    0.19    0.32
   2  11  10   -0.78    0.29
  -3 -11 -10    0.29    0.36
  -3 -11 -10    0.56    0.43
   3  11  10    0.90    0.39
   3  11  10    0.37    0.41
   3 -12 -10   -0.20    0.30
  -3 -12  10    0.04    0.28
  -3  12  10   -0.32    0.38
  -3  12  10   -0.34    0.36
   3  12 -10   -0.03    0.29
   2 -12 -10    0.02    0.29
  -2 -12  10    0.87    0.23
  -2  12  10    1.14    0.37
   2  12 -10    0.85    0.27
  -2  12  10    0.31    0.33
   1 -12 -10   -0.08    0.24
  -1  12  10   -0.04    0.29
  -1  12  10    0.06    0.26
   0 -12 -10    2.62    0.34
   0  12  10    3.19    0.40
   0  12  10    2.91    0.37
  -1 -12 -10    1.07    0.26
   1  12  10    1.24    0.34
   1  12  10    1.60    0.34
  -2 -12 -10    0.18    0.32
   2  12  10   -0.04    0.33
   2  12  10    0.32    0.36
  -3 -12 -10   -0.39    0.42
  -3 -12 -10    0.52    0.37
   3  12  10   -1.00    0.40
   3  12  10    0.94    0.43
  -3 -13  10    0.41    0.31
   3  13 -10    0.33    0.34
  -3  13  10   -0.98    0.40
  -3  13  10    0.12    0.38
   2 -13 -10   -0.37    0.29
  -2  13  10    0.41    0.39
  -2  13  10    0.06    0.34
   2  13 -10    0.46    0.28
   1 -13 -10    0.06    0.26
  -1  13  10   -0.12    0.29
  -1  13  10    0.58    0.31
   0 -13 -10    1.35    0.30
   0  13  10    1.50    0.35
   0  13  10    1.72    0.35
  -1 -13 -10    0.34    0.26
   1  13  10    0.22    0.31
   1  13  10    0.51    0.34
  -2 -13 -10    1.45    0.39
   2  13  10    0.99    0.40
   2  13  10    1.40    0.43
  -2  14  10    0.18    0.38
  -2  14  10    0.53    0.39
   2  14 -10    0.72    0.32
   1 -14 -10    0.17    0.27
  -1  14  10    0.08    0.33
  -1  14  10   -0.23    0.31
   0 -14 -10    0.44    0.28
   0  14  10    0.70    0.33
   0  14  10    0.95    0.36
  -1 -14 -10   -0.06    0.27
   1  14  10    0.15    0.37
   1  14  10    0.00    0.32
  -2 -14 -10   -0.26    0.32
   2  14  10   -0.14    0.40
   2  14  10    0.06    0.42
   1 -15 -10    1.27    0.33
  -1  15  10    1.03    0.39
  -1  15  10    0.77    0.36
   0 -15 -10    0.43    0.30
   0  15  10    0.25    0.37
   0  15  10    0.15    0.35
  -1 -15 -10    0.21    0.31
   1  15  10    0.28    0.40
   1  15  10    0.86    0.38
  -5   0  11    0.56    0.36
   5   0 -11    0.46    0.34
   4   0 -11   -0.34    0.22
  -4   0  11    0.02    0.23
  -4   0  11   -0.12    0.19
  -3   0  11    3.93    0.36
   3   0 -11    3.77    0.35
  -3   0  11    3.39    0.33
  -3   0  11    3.84    0.30
  -2   0  11   -0.07    0.12
   2   0 -11    0.02    0.11
  -2   0  11   -0.15    0.11
  -2   0  11    0.14    0.11
  -1   0  11   42.72    1.83
  -1   0  11   41.17    2.33
  -1   0  11   41.82    2.29
   1   0 -11   43.47    2.33
   0   0 -11    0.05    0.08
   0   0  11    0.00    0.08
   0   0  11   -0.18    0.09
   0   0  11   -0.05    0.06
  -1   0 -11   71.96    3.73
   1   0  11   67.69    3.66
   1   0  11   64.43    2.90
   2   0  11   -0.02    0.07
   5  -1 -11    1.45    0.39
  -5  -1  11    1.12    0.39
  -5   1  11    1.45    0.38
   5   1 -11    1.53    0.38
  -4  -1  11    0.11    0.24
  -4  -1  11   -0.03    0.19
   4  -1 -11    0.25    0.24
  -4   1  11   -0.03    0.23
  -4   1  11    0.23    0.26
  -4   1  11    0.37    0.20
   4   1 -11   -0.03    0.23
   3  -1 -11   12.30    0.78
  -3  -1  11   13.54    0.62
  -3  -1  11   12.35    0.76
  -3   1  11   12.06    0.76
  -3   1  11   12.33    0.62
  -3   1  11   12.70    0.79
  -2  -1  11   14.47    0.67
  -2  -1  11   14.48    0.85
  -2  -1  11   14.67    0.83
   2  -1 -11   14.21    0.85
  -2   1  11   14.53    0.86
  -2   1  11   14.83    0.68
   2   1 -11   14.13    0.85
  -2   1  11   14.72    0.83
  -1  -1  11    4.69    0.27
  -1  -1  11    5.15    0.32
   1  -1 -11    5.19    0.33
  -1  -1  11    4.82    0.31
  -1   1  11    5.18    0.28
   1   1 -11    4.92    0.32
  -1   1  11    5.37    0.34
  -1   1  11    5.20    0.33
   0  -1  11   10.73    0.48
   0  -1 -11   10.24    0.61
   0  -1  11    8.61    0.58
   0   1  11   10.66    0.61
   0   1  11   10.79    0.59
   0   1 -11   10.25    0.59
   0   1  11   10.83    0.48
   1  -1  11   43.05    1.86
  -1  -1 -11   47.30    2.40
   1   1  11   41.18    1.86
   1   1  11   44.98    2.35
   1   1  11   40.77    2.38
   2  -1  11    0.57    0.08
   2   1  11    0.57    0.13
   2   1  11    0.71    0.10
  -5  -2  11    0.07    0.37
   5  -2 -11    0.24    0.34
  -5   2  11    0.25    0.35
   5   2 -11    0.15    0.33
  -4  -2  11    4.89    0.39
   4  -2 -11    4.59    0.47
  -4  -2  11    5.29    0.50
  -4   2  11    4.98    0.44
  -4   2  11    5.15    0.38
  -4   2  11    5.37    0.53
   4   2 -11    4.65    0.48
  -3  -2  11    2.43    0.26
   3  -2 -11    2.63    0.28
  -3  -2  11    1.72    0.21
  -3   2  11    1.83    0.21
   3   2 -11    2.27    0.27
  -3   2  11    2.44    0.25
  -3   2  11    1.98    0.27
   2  -2 -11    7.72    0.49
  -2  -2  11    7.85    0.41
  -2  -2  11    7.82    0.47
  -2   2  11    7.34    0.50
   2   2 -11    7.65    0.49
  -2   2  11    7.66    0.40
  -2   2  11    7.26    0.48
  -1  -2  11   33.12    1.80
   1  -2 -11   34.65    1.85
  -1  -2  11   32.67    1.44
  -1   2  11   34.03    1.82
   1   2 -11   34.14    1.75
   1   2 -11   32.42    1.84
  -1   2  11   31.62    1.44
  -1   2  11   32.88    1.85
   0  -2 -11    3.25    0.27
   0  -2  11    3.10    0.20
   0  -2  11    3.09    0.20
   0   2 -11    3.37    0.21
   0   2  11    3.15    0.24
   0   2  11    2.96    0.20
   0   2  11    4.10    0.28
   1  -2  11    1.91    0.16
  -1  -2 -11    2.61    0.26
   1   2  11    2.11    0.20
   1   2  11    2.45    0.20
   2   2  11    7.17    0.47
   2   2  11    7.12    0.45
  -5  -3  11   -0.26    0.38
   5  -3 -11   -0.21    0.34
  -5   3  11    0.36    0.37
  -5   3  11   -0.01    0.34
   5   3 -11    0.30    0.34
   4  -3 -11    0.65    0.27
  -4  -3  11    0.41    0.22
  -4  -3  11    0.06    0.26
  -4   3  11    0.83    0.29
   4   3 -11    0.37    0.25
  -4   3  11    0.29    0.25
  -4   3  11    0.55    0.20
  -3  -3  11    0.31    0.17
   3  -3 -11    0.31    0.18
  -3  -3  11    0.16    0.17
  -3   3  11    0.03    0.19
  -3   3  11   -0.04    0.15
  -3   3  11    0.08    0.17
   3   3 -11    0.45    0.20
  -2  -3  11   20.07    0.93
  -2  -3  11   21.50    1.16
   2  -3 -11   20.67    1.19
  -2   3  11   20.00    1.19
  -2   3  11   19.91    0.93
  -2   3  11   20.76    1.16
   2   3 -11   21.42    1.19
  -1  -3  11    0.01    0.10
  -1  -3  11    0.07    0.07
   1  -3 -11    0.02    0.11
  -1   3  11    0.20    0.13
  -1   3  11    0.08    0.12
  -1   3  11    0.08    0.09
   1   3 -11    0.00    0.08
   1   3 -11    0.12    0.08
   0  -3 -11   56.82    3.22
   0  -3  11   57.30    2.50
   0   3  11   63.25    3.19
   0   3 -11   57.64    3.19
   0   3  11   57.46    3.22
   1  -3  11    2.12    0.16
  -1  -3 -11    2.68    0.26
   1   3  11    2.53    0.23
   1   3  11    2.29    0.24
   2   3  11    3.87    0.34
   2   3  11    3.96    0.32
  -3  -3 -11    0.05    0.19
  -5  -4  11    0.59    0.42
   5  -4 -11    0.53    0.37
  -5   4  11    0.17    0.35
  -5   4  11    0.12    0.37
   5   4 -11    0.25    0.34
  -4  -4  11    8.40    0.69
   4  -4 -11    9.12    0.70
  -4  -4  11    9.77    0.56
  -4   4  11    8.04    0.52
   4   4 -11    9.09    0.69
  -4   4  11    9.70    0.73
  -4   4  11   10.41    0.68
   3  -4 -11    1.20    0.22
  -3  -4  11    0.90    0.19
  -3  -4  11    1.04    0.22
  -3   4  11    0.78    0.23
  -3   4  11    0.64    0.20
  -3   4  11    1.01    0.19
   3   4 -11    0.82    0.21
  -2  -4  11    6.70    0.44
  -2  -4  11    6.84    0.39
   2  -4 -11    7.16    0.48
   2   4 -11    6.99    0.47
  -2   4  11    6.97    0.49
  -2   4  11    7.53    0.48
  -2   4  11    6.92    0.39
  -1  -4  11    6.47    0.37
  -1  -4  11    6.53    0.34
   1  -4 -11    6.55    0.44
  -1   4  11    6.92    0.44
   1   4 -11    6.59    0.38
  -1   4  11    7.15    0.44
   1   4 -11    5.05    0.39
   0  -4 -11    1.52    0.19
   0  -4  11    1.40    0.13
   0   4  11    1.69    0.21
   0   4 -11    1.20    0.11
   0   4  11    1.22    0.17
   1  -4  11    6.74    0.33
  -1  -4 -11    5.92    0.48
   1   4  11    6.93    0.45
   1   4  11    7.26    0.47
  -2  -4 -11   12.47    0.76
   2   4  11   12.43    0.74
   2   4  11   11.61    0.76
  -3  -4 -11    0.24    0.22
   3   4  11    0.64    0.22
  -5  -5  11    0.46    0.41
   5  -5 -11    0.08    0.37
   5   5 -11    0.07    0.35
  -5   5  11    0.45    0.35
  -5   5  11    0.39    0.40
   4  -5 -11    1.29    0.30
  -4  -5  11    0.70    0.24
  -4  -5  11    1.16    0.31
  -4   5  11    0.57    0.22
  -4   5  11    0.69    0.31
   4   5 -11    0.76    0.29
  -4   5  11    0.70    0.28
  -3  -5  11    3.45    0.29
   3  -5 -11    3.92    0.37
  -3  -5  11    3.74    0.34
  -3   5  11    3.44    0.37
  -3   5  11    3.12    0.32
  -3   5  11    4.30    0.30
   3   5 -11    3.77    0.36
  -2  -5  11    7.74    0.43
   2  -5 -11    8.89    0.55
  -2  -5  11    7.40    0.51
   2   5 -11    8.60    0.53
  -2   5  11    7.79    0.44
  -2   5  11    8.42    0.56
  -2   5  11    8.14    0.53
  -1  -5  11    0.61    0.09
   1  -5 -11    0.31    0.17
  -1  -5  11    0.46    0.13
   1   5 -11    0.49    0.11
  -1   5  11    0.53    0.16
  -1   5  11    0.68    0.18
   1   5 -11    0.86    0.13
   0  -5 -11   23.43    1.30
   0  -5  11   21.65    1.00
   0   5  11   21.52    1.29
   0   5  11   23.79    1.30
   0   5 -11   22.90    1.23
  -1  -5 -11    4.17    0.42
   1  -5  11    5.82    0.28
   1   5  11    4.48    0.39
   1   5  11    5.86    0.42
  -2  -5 -11    5.21    0.45
   2   5  11    5.32    0.43
   2   5  11    5.00    0.44
  -3  -5 -11    5.28    0.50
   3   5  11    4.87    0.49
   5  -6 -11    0.60    0.39
  -5  -6  11    0.42    0.40
  -5   6  11    0.73    0.37
   5   6 -11    0.27    0.37
  -5   6  11    0.45    0.42
  -4  -6  11    1.66    0.27
  -4  -6  11    1.74    0.35
   4  -6 -11    2.02    0.35
  -4   6  11    1.94    0.27
  -4   6  11    2.01    0.38
   4   6 -11    1.63    0.34
  -4   6  11    2.24    0.34
  -3  -6  11    3.90    0.31
  -3  -6  11    3.42    0.36
   3  -6 -11    5.04    0.45
   3   6 -11    4.06    0.39
  -3   6  11    4.67    0.33
  -3   6  11    3.77    0.37
  -3   6  11    4.82    0.44
  -2  -6  11   -0.03    0.13
   2  -6 -11    0.08    0.16
  -2  -6  11   -0.22    0.14
  -2   6  11   -0.02    0.18
  -2   6  11    0.04    0.18
   2   6 -11    0.02    0.15
  -1  -6  11   39.73    1.67
  -1  -6  11   38.59    2.07
   1   6 -11   40.35    2.04
   1   6 -11   38.66    2.12
  -1   6  11   33.82    2.13
  -1   6  11   38.20    2.16
   0  -6  11    0.09    0.11
   0  -6 -11    0.32    0.16
   0   6 -11   -0.13    0.11
   0   6  11    0.47    0.17
   0   6  11    0.05    0.17
   1  -6  11    7.25    0.38
   1   6  11    7.97    0.55
  -2  -6 -11    0.04    0.22
   2   6  11    0.20    0.20
   2   6  11    0.12    0.21
  -3  -6 -11    1.00    0.29
  -3  -6 -11    0.82    0.29
   3   6  11    0.67    0.26
  -4  -7  11    0.27    0.31
  -4  -7  11    0.24    0.26
   4  -7 -11    0.83    0.31
   4   7 -11    0.25    0.29
  -4   7  11    0.34    0.33
  -4   7  11    0.57    0.31
  -3  -7  11    1.75    0.25
   3  -7 -11    2.73    0.34
  -3  -7  11    2.36    0.30
  -3   7  11    2.93    0.30
   3   7 -11    2.16    0.31
  -3   7  11    2.61    0.33
  -3   7  11    2.35    0.35
  -2  -7  11    0.94    0.17
   2  -7 -11    1.01    0.22
  -2  -7  11    0.78    0.18
  -2   7  11    1.33    0.24
   2   7 -11    0.86    0.19
  -2   7  11    0.78    0.23
  -1  -7  11    0.18    0.13
   1  -7 -11   -0.37    0.19
  -1  -7  11    0.37    0.09
  -1   7  11    0.25    0.19
   1   7 -11    0.62    0.14
   1   7 -11    0.37    0.12
  -1   7  11    0.20    0.18
   0  -7 -11    1.14    0.20
   0  -7  11    1.08    0.15
   0   7  11    1.64    0.23
   0   7  11    1.10    0.23
   0   7 -11    1.24    0.18
  -1  -7 -11    3.59    0.40
   1  -7  11    5.14    0.28
   1   7  11    5.53    0.44
  -2  -7 -11    0.18    0.25
   2   7  11    0.14    0.22
   2   7  11    0.46    0.24
  -3  -7 -11    6.06    0.56
  -3  -7 -11    5.48    0.52
   3   7  11    5.89    0.57
  -4  -7 -11    0.17    0.38
  -4  -7 -11    0.00    0.38
  -4  -8  11    0.19    0.26
   4  -8 -11    0.48    0.32
  -4  -8  11    0.67    0.33
  -4   8  11    0.15    0.36
  -4   8  11    0.66    0.33
   4   8 -11    0.71    0.34
  -3  -8  11    4.29    0.33
   3  -8 -11    4.40    0.44
  -3  -8  11    4.15    0.38
  -3   8  11    3.62    0.43
   3   8 -11    2.42    0.36
  -3   8  11    4.57    0.36
  -3   8  11    4.19    0.42
   2  -8 -11    5.58    0.52
  -2  -8  11    6.11    0.41
  -2  -8  11    6.85    0.46
   2   8 -11    7.10    0.48
  -2   8  11    5.73    0.53
  -2   8  11    7.65    0.56
  -1  -8  11   17.26    0.92
   1  -8 -11   15.56    1.04
  -1  -8  11   16.85    0.79
   1   8 -11   16.46    0.94
  -1   8  11   15.67    1.02
  -1   8  11   16.05    1.02
   1   8 -11   18.33    0.97
   0  -8  11    0.38    0.14
   0  -8 -11    0.30    0.18
   0   8  11    0.45    0.22
   0   8  11    0.60    0.20
   0   8 -11    0.29    0.15
  -1  -8 -11    0.44    0.22
   1  -8  11    0.23    0.12
   1   8  11    0.04    0.18
  -1   8 -11    0.32    0.16
   1   8  11    0.31    0.22
  -2  -8 -11    4.20    0.45
   2   8  11    4.56    0.43
   2   8  11    4.01    0.43
  -3  -8 -11   -0.07    0.32
  -3  -8 -11   -0.13    0.33
   3   8  11    0.51    0.28
   3   8  11    0.19    0.30
  -4  -8 -11   -0.22    0.38
  -4  -8 -11   -0.41    0.40
  -4  -9  11   -0.03    0.33
  -4  -9  11   -0.15    0.28
   4  -9 -11    0.42    0.34
   4   9 -11    0.00    0.33
  -4   9  11    0.72    0.41
  -4   9  11   -0.52    0.35
  -3  -9  11    0.36    0.24
  -3  -9  11    0.35    0.23
   3  -9 -11    0.25    0.27
   3   9 -11    0.29    0.26
  -3   9  11    0.01    0.30
  -3   9  11   -0.04    0.29
  -2  -9  11    2.60    0.26
   2  -9 -11    1.90    0.33
  -2  -9  11    2.42    0.25
  -2   9  11    2.48    0.36
   2   9 -11    2.60    0.28
  -2   9  11    1.88    0.32
  -1  -9  11    1.83    0.22
   1  -9 -11    1.86    0.30
  -1  -9  11    2.32    0.19
   1   9 -11    2.50    0.25
  -1   9  11    1.88    0.30
  -1   9  11    2.32    0.33
   1   9 -11    2.30    0.23
   0  -9 -11   21.81    1.23
   0  -9  11   20.44    0.95
   0   9  11   20.75    1.25
   0   9  11   20.48    1.23
   0   9 -11   20.70    1.17
  -1  -9 -11    0.44    0.24
   1   9  11    0.09    0.24
   1   9  11    0.01    0.20
  -1   9 -11    0.03    0.16
  -2  -9 -11    1.03    0.30
   2   9  11    1.14    0.31
   2   9  11    1.48    0.32
  -2   9 -11    1.76    0.27
  -3  -9 -11   -0.10    0.35
  -3  -9 -11   -0.45    0.35
   3   9  11    0.28    0.33
   3   9  11    0.37    0.34
   4 -10 -11    1.54    0.40
  -4 -10  11    0.70    0.31
  -4 -10  11    1.02    0.37
  -4  10  11    1.21    0.45
   4  10 -11    1.20    0.38
  -4  10  11    0.27    0.40
   3 -10 -11    0.23    0.29
  -3 -10  11    0.51    0.27
  -3 -10  11    0.12    0.24
   3  10 -11    0.62    0.29
  -3  10  11    0.29    0.34
  -3  10  11    0.33    0.35
  -2 -10  11    3.00    0.27
   2 -10 -11    1.16    0.32
  -2 -10  11    2.64    0.27
  -2  10  11    2.17    0.35
   2  10 -11    3.05    0.31
  -2  10  11    2.15    0.38
   1 -10 -11    0.02    0.23
  -1 -10  11   -0.11    0.17
  -1  10  11    0.34    0.25
   1  10 -11    0.27    0.17
  -1  10  11    0.41    0.27
   0 -10 -11    1.28    0.25
   0 -10  11    1.60    0.21
   0  10  11    1.56    0.27
   0  10 -11    1.14    0.21
   0  10  11    1.45    0.29
  -1 -10 -11    0.20    0.20
   1  10  11    0.66    0.26
  -1  10 -11    0.18    0.19
   1  10  11    0.00    0.26
  -2 -10 -11    1.02    0.30
   2  10  11    0.65    0.32
  -3 -10 -11   -0.68    0.37
  -3 -10 -11    0.41    0.38
   3  10  11    0.60    0.38
   3  10  11    0.35    0.37
  -3 -11  11    0.41    0.28
   3 -11 -11    0.21    0.31
  -3 -11  11    0.59    0.27
  -3  11  11    0.31    0.38
  -3  11  11   -0.18    0.35
   3  11 -11    0.60    0.30
  -2 -11  11    3.77    0.34
  -2 -11  11    2.91    0.30
   2 -11 -11    1.73    0.38
   2  11 -11    3.82    0.36
  -2  11  11    2.80    0.41
  -2  11  11    2.21    0.42
   1 -11 -11    0.28    0.26
  -1 -11  11    0.09    0.21
  -1  11  11    0.83    0.31
  -1  11  11    0.72    0.29
   0 -11 -11    7.16    0.56
   0  11  11    6.50    0.58
   0  11  11    6.17    0.57
   0  11 -11    6.72    0.50
  -1 -11 -11    1.52    0.28
   1  11  11    2.11    0.36
   1  11  11    2.71    0.36
  -2 -11 -11    0.04    0.29
   2  11  11   -0.21    0.31
   2  11  11    0.04    0.34
  -3 -11 -11   -0.14    0.42
  -3 -11 -11    0.04    0.38
   3  11  11   -0.05    0.41
   3  11  11    0.88    0.41
   3 -12 -11   -0.26    0.32
  -3 -12  11    0.12    0.28
  -3  12  11   -0.58    0.38
  -3  12  11    0.11    0.39
   3  12 -11    0.15    0.31
   2 -12 -11   -0.59    0.28
  -2 -12  11    0.25    0.21
  -2  12  11    0.26    0.37
   2  12 -11   -0.15    0.24
  -2  12  11   -0.35    0.31
   1 -12 -11    0.63    0.28
  -1  12  11    0.28    0.28
  -1  12  11    0.02    0.30
   0 -12 -11    0.25    0.24
   0  12  11    0.78    0.29
   0  12  11    0.26    0.29
  -1 -12 -11    2.00    0.32
   1  12  11    2.97    0.40
   1  12  11    2.62    0.41
  -2 -12 -11    0.44    0.34
   2  12  11   -0.17    0.34
   2  12  11    0.02    0.36
  -3 -12 -11    0.68    0.37
  -3 -12 -11   -0.42    0.44
   3  12  11   -0.06    0.42
   3  12  11   -1.31    0.41
  -3 -13  11    1.24    0.32
   3  13 -11    0.33    0.35
  -3  13  11    1.77    0.46
  -3  13  11    0.11    0.44
   2 -13 -11   -0.24    0.31
  -2  13  11    0.03    0.35
  -2  13  11    0.68    0.40
   2  13 -11    0.12    0.28
   1 -13 -11   -0.12    0.27
  -1  13  11   -0.08    0.30
  -1  13  11   -0.03    0.32
   0 -13 -11    0.02    0.26
   0  13  11    0.00    0.32
   0  13  11    0.57    0.32
  -1 -13 -11    1.36    0.31
   1  13  11    2.08    0.41
   1  13  11    1.58    0.37
  -2 -13 -11   -0.08    0.34
   2  13  11    0.08    0.38
   2  13  11    0.58    0.42
   2 -14 -11    0.12    0.33
  -2  14  11    0.35    0.40
  -2  14  11    0.22    0.40
   1 -14 -11    0.57    0.30
  -1  14  11    0.65    0.36
  -1  14  11    0.10    0.34
   0 -14 -11   -0.16    0.27
   0  14  11   -0.44    0.32
   0  14  11    0.43    0.34
  -1 -14 -11    0.89    0.32
   1  14  11    1.46    0.39
   1  14  11    1.22    0.42
   1 -15 -11    0.20    0.30
  -1  15  11    0.22    0.36
  -1  15  11   -0.16    0.36
   0 -15 -11    0.80    0.32
   0  15  11    0.66    0.37
   0  15  11    0.43    0.37
   5   0 -12    0.03    0.33
  -5   0  12   -0.22    0.35
  -4   0  12    2.30    0.26
  -4   0  12    1.77    0.31
   4   0 -12    1.82    0.32
   3   0 -12    0.02    0.16
  -3   0  12   -0.05    0.16
  -3   0  12   -0.09    0.18
  -3   0  12    0.11    0.17
   2   0 -12    0.17    0.12
  -2   0  12   -0.09    0.12
  -2   0  12    0.02    0.12
  -2   0  12    0.27    0.14
  -1   0  12   -0.02    0.10
   1   0 -12    0.06    0.09
  -1   0  12    0.08    0.10
  -1   0  12   -0.03    0.09
   0   0 -12   28.41    1.54
   0   0  12   29.19    1.21
   0   0  12   29.00    1.52
   0   0  12   24.08    1.52
   1   0  12    0.02    0.09
  -1   0 -12   -0.03    0.12
   1   0  12    0.00    0.07
   2   0  12    5.88    0.30
   5  -1 -12    0.91    0.37
  -5  -1  12    0.10    0.36
   5   1 -12   -0.08    0.34
  -5   1  12    0.57    0.37
  -4  -1  12    2.12    0.32
   4  -1 -12    2.18    0.33
  -4  -1  12    2.21    0.27
  -4   1  12    2.38    0.35
  -4   1  12    2.46    0.33
   4   1 -12    1.70    0.31
  -4   1  12    1.85    0.26
  -3  -1  12    0.13    0.17
   3  -1 -12    0.08    0.17
  -3  -1  12   -0.09    0.16
   3   1 -12    0.21    0.17
  -3   1  12   -0.03    0.19
  -3   1  12   -0.01    0.17
  -3   1  12    0.03    0.16
  -2  -1  12   23.99    1.33
  -2  -1  12   23.71    1.30
   2  -1 -12   22.91    1.33
  -2  -1  12   23.21    1.05
  -2   1  12   23.50    1.33
  -2   1  12   22.52    1.05
   2   1 -12   23.65    1.33
  -1  -1  12   18.17    0.81
  -1  -1  12   18.16    1.01
  -1  -1  12   17.26    1.00
   1  -1 -12   18.93    1.03
  -1   1  12   19.00    1.02
  -1   1  12   17.43    0.81
  -1   1  12   17.09    1.02
   1   1 -12   18.04    1.02
   0  -1  12   -0.04    0.09
   0  -1 -12    0.05    0.11
   0  -1  12   -0.05    0.08
   0   1  12    0.18    0.08
   0   1  12    0.07    0.09
   0   1  12    0.03    0.11
   0   1 -12    0.13    0.08
   1  -1  12   16.20    0.75
  -1  -1 -12   17.61    0.98
   1   1  12   15.58    0.95
  -1   1 -12   18.42    0.96
   1   1  12   16.34    0.75
   1   1  12   17.61    0.94
   2   1  12   27.35    1.19
  -5  -2  12    0.29    0.38
   5  -2 -12    0.45    0.35
   5   2 -12    0.08    0.33
  -5   2  12    0.39    0.37
  -4  -2  12    0.41    0.23
   4  -2 -12    0.38    0.27
  -4  -2  12    0.25    0.27
  -4   2  12    0.15    0.20
  -4   2  12    0.50    0.28
   4   2 -12    0.15    0.25
  -4   2  12    0.64    0.27
   3  -2 -12   13.52    0.89
  -3  -2  12   15.09    0.71
  -3  -2  12   13.78    0.86
  -3   2  12   14.13    0.70
  -3   2  12   14.43    0.86
   3   2 -12   14.82    0.89
  -3   2  12   14.98    0.90
   2  -2 -12    0.15    0.13
  -2  -2  12    0.21    0.12
  -2  -2  12    0.17    0.13
  -2   2  12    0.28    0.13
   2   2 -12    0.04    0.12
  -2   2  12    0.06    0.12
  -2   2  12    0.20    0.15
  -1  -2  12    1.95    0.17
   1  -2 -12    2.33    0.22
  -1  -2  12    1.77    0.17
   1   2 -12    1.76    0.18
  -1   2  12    2.06    0.21
  -1   2  12    1.92    0.17
   1   2 -12    2.13    0.17
  -1   2  12    2.37    0.21
   0  -2 -12   17.88    1.03
   0  -2  12   17.63    0.80
   0  -2  12   17.84    0.97
   0   2  12   18.92    1.02
   0   2  12   18.26    0.80
   0   2  12   17.52    1.01
   0   2 -12   17.28    1.00
  -1  -2 -12    7.28    0.51
   1  -2  12    7.30    0.36
   1   2  12    7.97    0.46
   1   2  12    6.87    0.46
  -1   2 -12    7.69    0.44
   1   2  12    7.33    0.37
   2   2  12    3.37    0.27
   2   2  12    3.16    0.22
   2   2  12    3.09    0.29
  -5  -3  12    1.50    0.43
   5  -3 -12    1.51    0.42
   5   3 -12    1.26    0.39
  -5   3  12    2.10    0.41
  -5   3  12    1.76    0.44
  -4  -3  12    1.27    0.26
  -4  -3  12    2.16    0.34
   4  -3 -12    2.12    0.34
  -4   3  12    2.03    0.25
  -4   3  12    2.15    0.33
  -4   3  12    1.85    0.34
   4   3 -12    1.85    0.33
  -3  -3  12   -0.05    0.17
  -3  -3  12   -0.01    0.17
   3  -3 -12   -0.03    0.16
  -3   3  12    0.33    0.19
  -3   3  12    0.06    0.17
  -3   3  12   -0.05    0.20
   3   3 -12    0.12    0.19
   2  -3 -12    0.27    0.14
  -2  -3  12    0.17    0.12
  -2  -3  12    0.02    0.13
   2   3 -12   -0.01    0.13
  -2   3  12    0.21    0.14
  -2   3  12    0.06    0.12
  -2   3  12    0.28    0.16
  -1  -3  12   37.59    1.63
   1  -3 -12   38.28    2.10
  -1  -3  12   34.64    2.03
  -1   3  12   38.52    2.07
  -1   3  12   36.39    1.63
   1   3 -12   38.62    1.98
   1   3 -12   38.44    2.07
  -1   3  12   37.53    2.09
   0  -3 -12    0.90    0.16
   0  -3  12    0.72    0.12
   0   3  12    0.93    0.17
   0   3 -12    0.77    0.09
   0   3  12    0.82    0.15
   1  -3  12   42.82    1.87
  -1  -3 -12   41.23    2.43
   1   3  12   42.77    2.41
   1   3  12   46.82    2.38
  -2  -3 -12    0.50    0.19
   2   3  12    0.39    0.15
   2   3  12    0.37    0.17
  -5  -4  12    0.00    0.40
   5  -4 -12   -0.12    0.35
  -5   4  12   -0.20    0.34
   5   4 -12    0.18    0.34
  -5   4  12   -0.02    0.38
  -4  -4  12    2.00    0.27
  -4  -4  12    1.55    0.33
   4  -4 -12    1.62    0.32
  -4   4  12    1.88    0.32
  -4   4  12    2.07    0.26
   4   4 -12    1.66    0.33
  -4   4  12    2.17    0.36
  -3  -4  12    8.80    0.59
   3  -4 -12    8.83    0.61
  -3  -4  12    8.45    0.50
   3   4 -12    8.88    0.61
  -3   4  12    8.97    0.60
  -3   4  12    8.91    0.49
  -3   4  12    8.48    0.64
  -2  -4  12    1.15    0.17
  -2  -4  12    1.02    0.17
   2  -4 -12    1.81    0.22
   2   4 -12    1.32    0.20
  -2   4  12    1.63    0.19
  -2   4  12    1.57    0.23
  -2   4  12    1.56    0.21
  -1  -4  12   19.10    0.84
  -1  -4  12   17.83    1.01
   1  -4 -12   17.80    1.08
   1   4 -12   19.57    1.05
  -1   4  12   17.81    1.07
   1   4 -12   19.14    1.00
  -1   4  12   18.04    1.07
   0  -4  12    5.95    0.32
   0  -4 -12    6.33    0.42
   0   4  12    7.18    0.43
   0   4  12    5.40    0.41
   0   4 -12    5.26    0.34
   1  -4  12   19.75    0.84
  -1  -4 -12   15.88    1.11
   1   4  12   18.49    1.09
   1   4  12   21.34    1.10
  -2  -4 -12    0.81    0.21
   2   4  12    0.64    0.18
   2   4  12    0.71    0.20
  -3  -4 -12    9.63    0.71
   5  -5 -12    1.91    0.44
  -5  -5  12    1.04    0.44
  -5   5  12    1.52    0.40
  -5   5  12    1.45    0.44
   5   5 -12    1.47    0.40
  -4  -5  12    0.50    0.24
   4  -5 -12    0.38    0.27
  -4  -5  12    0.31    0.30
  -4   5  12    0.71    0.23
  -4   5  12    0.60    0.33
  -4   5  12    0.33    0.29
   4   5 -12    0.42    0.29
  -3  -5  12    0.00    0.19
   3  -5 -12    0.12    0.21
  -3  -5  12    0.26    0.19
  -3   5  12    0.11    0.20
  -3   5  12   -0.12    0.18
  -3   5  12   -0.19    0.23
   3   5 -12    0.23    0.20
  -2  -5  12    5.52    0.38
   2  -5 -12    6.08    0.44
  -2  -5  12    5.50    0.36
  -2   5  12    6.21    0.44
   2   5 -12    4.93    0.40
  -2   5  12    6.18    0.37
  -2   5  12    5.32    0.45
   1  -5 -12   19.03    1.25
  -1  -5  12   21.54    1.17
  -1  -5  12   22.58    0.97
   1   5 -12   22.76    1.21
  -1   5  12   22.83    1.25
   1   5 -12   22.74    1.16
  -1   5  12   18.23    1.23
   0  -5 -12    0.55    0.16
   0  -5  12    0.07    0.11
   0   5  12    0.47    0.17
   0   5  12    0.06    0.16
  -1  -5 -12    0.52    0.20
   1  -5  12    1.23    0.13
   1   5  12    1.36    0.21
   1   5  12    0.70    0.19
  -2  -5 -12    3.77    0.37
   2   5  12    3.79    0.36
   2   5  12    4.10    0.39
  -3  -5 -12    0.13    0.26
  -3  -5 -12    0.23    0.26
   3   5  12    0.45    0.26
  -4  -6  12    2.88    0.39
  -4  -6  12    2.57    0.31
   4  -6 -12    2.70    0.41
  -4   6  12    3.01    0.39
   4   6 -12    2.56    0.39
  -4   6  12    3.15    0.32
  -4   6  12    3.13    0.45
   3  -6 -12    0.44    0.24
  -3  -6  12    0.17    0.20
  -3  -6  12    0.15    0.21
  -3   6  12    0.59    0.27
  -3   6  12    0.48    0.21
  -3   6  12    0.55    0.24
   3   6 -12    0.37    0.22
   2  -6 -12    0.23    0.18
  -2  -6  12    0.26    0.14
  -2  -6  12    0.27    0.16
   2   6 -12    0.06    0.15
  -2   6  12    0.33    0.20
  -2   6  12    0.19    0.20
  -1  -6  12    1.58    0.15
   1  -6 -12    1.10    0.25
  -1  -6  12    1.76    0.19
   1   6 -12    2.08    0.19
   1   6 -12    2.27    0.20
  -1   6  12    1.07    0.24
  -1   6  12    2.25    0.26
   0  -6  12   30.55    1.35
   0  -6 -12   31.85    1.75
   0   6  12   30.71    1.73
   0   6 -12   30.62    1.65
   0   6  12   29.94    1.75
  -1  -6 -12    1.76    0.26
   1   6  12    1.57    0.24
  -2  -6 -12    8.23    0.63
   2   6  12    7.70    0.61
   2   6  12    8.54    0.60
  -3  -6 -12    0.80    0.32
  -3  -6 -12    0.63    0.32
   3   6  12    0.40    0.28
  -4  -6 -12    0.32    0.37
   4  -7 -12    3.89    0.48
  -4  -7  12    3.37    0.43
  -4  -7  12    3.10    0.35
  -4   7  12    3.52    0.35
  -4   7  12    3.32    0.43
  -4   7  12    3.66    0.49
   4   7 -12    3.11    0.44
  -3  -7  12    0.20    0.22
  -3  -7  12    0.00    0.21
   3  -7 -12    0.42    0.25
  -3   7  12    0.01    0.26
   3   7 -12    0.26    0.22
  -3   7  12    0.19    0.22
  -3   7  12   -0.02    0.26
   2  -7 -12    4.78    0.45
  -2  -7  12    5.75    0.39
  -2  -7  12    5.08    0.35
  -2   7  12    5.50    0.49
  -2   7  12    5.20    0.48
   2   7 -12    5.34    0.41
  -1  -7  12    1.85    0.20
   1  -7 -12    1.03    0.26
  -1  -7  12    1.86    0.15
  -1   7  12    1.74    0.25
   1   7 -12    1.88    0.21
   1   7 -12    1.95    0.19
  -1   7  12    1.43    0.27
   0  -7  12    1.35    0.17
   0  -7 -12    1.68    0.23
   0   7 -12    1.41    0.19
   0   7  12    1.50    0.25
   0   7  12    1.97    0.25
  -1  -7 -12    3.78    0.39
   1  -7  12    4.18    0.26
   1   7  12    3.20    0.36
   1   7  12    4.73    0.43
  -2  -7 -12    3.38    0.41
   2   7  12    4.21    0.41
   2   7  12    3.63    0.40
  -3  -7 -12    0.16    0.31
  -3  -7 -12   -0.04    0.31
   3   7  12    0.18    0.29
  -4  -7 -12    1.70    0.45
  -4  -8  12    0.67    0.29
   4  -8 -12    0.85    0.36
  -4  -8  12    0.19    0.32
  -4   8  12    0.41    0.37
   4   8 -12    0.55    0.33
  -4   8  12    0.37    0.35
  -3  -8  12   -0.03    0.21
  -3  -8  12    0.35    0.24
   3  -8 -12    0.78    0.29
  -3   8  12    0.32    0.25
   3   8 -12    0.39    0.25
  -3   8  12   -0.09    0.29
  -3   8  12    0.24    0.30
   2  -8 -12    1.07    0.26
  -2  -8  12    0.96    0.20
  -2  -8  12    1.38    0.19
  -2   8  12    1.01    0.30
   2   8 -12    1.77    0.24
  -2   8  12    1.24    0.28
  -1  -8  12    5.64    0.36
   1  -8 -12    5.37    0.52
   1   8 -12    5.77    0.40
   1   8 -12    6.65    0.42
  -1   8  12    5.03    0.49
  -1   8  12    5.07    0.49
   0  -8  12   26.27    1.20
   0  -8 -12   26.68    1.55
   0   8 -12   25.58    1.47
   0   8  12   28.44    1.55
   0   8  12   28.14    1.57
  -1  -8 -12    0.64    0.26
   1  -8  12    1.09    0.15
  -1   8 -12    0.73    0.19
   1   8  12    0.74    0.26
   1   8  12    0.82    0.22
  -2  -8 -12    1.98    0.36
   2   8  12    2.43    0.36
   2   8  12    3.57    0.39
  -3  -8 -12    0.99    0.39
  -3  -8 -12    1.83    0.41
   3   8  12    1.94    0.38
   3   8  12    1.96    0.37
  -4  -8 -12   -0.18    0.41
  -4  -8 -12   -0.01    0.41
   4  -9 -12    0.64    0.37
  -4  -9  12    0.64    0.30
  -4  -9  12    0.21    0.33
  -4   9  12    0.36    0.38
  -4   9  12    0.57    0.42
   4   9 -12    0.15    0.36
  -3  -9  12    0.27    0.24
   3  -9 -12    0.22    0.29
  -3  -9  12    0.06    0.23
   3   9 -12   -0.12    0.24
  -3   9  12   -0.15    0.26
  -3   9  12   -0.04    0.31
  -3   9  12   -0.31    0.32
  -2  -9  12    0.81    0.20
   2  -9 -12   -0.06    0.24
  -2  -9  12    0.79    0.18
  -2   9  12    0.38    0.30
   2   9 -12    0.78    0.21
  -2   9  12    0.44    0.28
  -1  -9  12    2.66    0.25
   1  -9 -12    3.05    0.36
  -1   9  12    2.82    0.34
   1   9 -12    3.13    0.30
  -1   9  12    2.44    0.35
   1   9 -12    3.46    0.30
   0  -9 -12    0.28    0.20
   0  -9  12    0.11    0.16
   0   9 -12    0.34    0.17
   0   9  12   -0.02    0.23
   0   9  12    0.43    0.21
  -1  -9 -12    6.14    0.54
   1   9  12    6.21    0.53
   1   9  12    6.84    0.57
  -1   9 -12    6.21    0.47
  -2  -9 -12    0.13    0.28
   2   9  12   -0.19    0.26
   2   9  12    1.13    0.32
  -3  -9 -12   -0.58    0.37
  -3  -9 -12    0.21    0.38
   3   9  12    0.10    0.35
   3   9  12    0.40    0.34
  -4 -10  12    0.26    0.34
   4 -10 -12    0.48    0.36
  -4 -10  12    0.43    0.31
  -4  10  12   -0.23    0.40
   4  10 -12   -0.34    0.35
  -4  10  12    0.15    0.43
  -3 -10  12    0.45    0.26
  -3 -10  12    1.12    0.28
   3 -10 -12    0.90    0.34
  -3  10  12    0.92    0.39
   3  10 -12    0.49    0.31
  -3  10  12    0.72    0.37
   2 -10 -12   -0.95    0.23
  -2 -10  12    0.30    0.17
  -2 -10  12   -0.11    0.20
   2  10 -12   -0.26    0.21
  -2  10  12   -0.08    0.31
  -2  10  12    0.29    0.28
  -1 -10  12    2.00    0.24
   1 -10 -12    1.53    0.31
  -1  10  12    1.80    0.32
  -1  10  12    1.68    0.33
   0 -10 -12    0.37    0.22
   0 -10  12    0.35    0.18
   0  10  12    0.41    0.24
   0  10  12    0.19    0.25
   0  10 -12    0.29    0.18
  -1 -10 -12    0.72    0.23
   1  10  12    1.41    0.29
   1  10  12    1.08    0.31
  -1  10 -12    0.87    0.22
  -2 -10 -12   -0.12    0.27
   2  10  12   -0.67    0.27
   2  10  12   -0.12    0.31
  -3 -10 -12    1.70    0.49
  -3 -10 -12    1.28    0.43
   3  10  12    1.41    0.44
   3  10  12    2.56    0.45
  -3 -11  12    0.22    0.27
  -3 -11  12   -0.03    0.26
   3 -11 -12    0.11    0.33
   3  11 -12   -0.06    0.29
  -3  11  12    0.43    0.38
  -3  11  12   -0.02    0.39
   2 -11 -12    0.78    0.34
  -2 -11  12    1.80    0.23
  -2 -11  12    1.68    0.27
  -2  11  12    1.54    0.40
  -2  11  12    1.72    0.37
   2  11 -12    2.41    0.31
  -1 -11  12    1.82    0.26
   1 -11 -12    1.59    0.31
  -1  11  12    2.08    0.35
  -1  11  12    1.57    0.33
   0 -11 -12    0.11    0.23
   0  11  12    0.21    0.25
   0  11  12   -0.19    0.25
  -1 -11 -12    2.54    0.32
   1  11  12    3.08    0.41
   1  11  12    3.02    0.39
  -2 -11 -12    0.51    0.34
   2  11  12    0.22    0.35
   2  11  12    0.27    0.33
  -3 -11 -12   -0.72    0.41
  -3 -11 -12    0.26    0.38
   3  11  12   -1.40    0.38
   3  11  12    0.53    0.42
  -3 -12  12    0.49    0.29
   3 -12 -12   -0.31    0.34
  -3  12  12    0.40    0.43
  -3  12  12   -0.15    0.40
   3  12 -12    0.00    0.32
   2 -12 -12   -0.02    0.32
  -2 -12  12    0.45    0.26
   2  12 -12    0.64    0.27
  -2  12  12    0.32    0.33
  -2  12  12    0.03    0.38
   1 -12 -12   -0.22    0.26
  -1  12  12    0.01    0.29
  -1  12  12    0.13    0.31
   0 -12 -12    1.83    0.32
   0  12  12    1.85    0.35
   0  12  12    1.63    0.36
  -1 -12 -12    0.40    0.24
   1  12  12    0.24    0.33
   1  12  12    0.65    0.30
  -2 -12 -12    0.61    0.37
   2  12  12    1.00    0.41
   2  12  12    0.44    0.38
   2 -13 -12    2.15    0.42
  -2  13  12    2.54    0.48
  -2  13  12    2.23    0.45
   1 -13 -12    0.01    0.27
  -1  13  12    0.31    0.33
  -1  13  12   -0.18    0.32
   0 -13 -12    0.03    0.26
   0  13  12    0.06    0.32
   0  13  12    0.40    0.32
  -1 -13 -12    0.26    0.27
   1  13  12    0.80    0.34
   1  13  12    0.27    0.36
  -2 -13 -12    1.59    0.41
   2  13  12    1.24    0.46
   2  13  12    1.58    0.44
   2 -14 -12    0.49    0.36
  -2  14  12    1.14    0.44
  -2  14  12    0.61    0.42
   1 -14 -12    0.09    0.29
  -1  14  12   -0.09    0.34
  -1  14  12    0.37    0.36
   0 -14 -12    0.55    0.30
   0  14  12    1.76    0.38
   0  14  12    0.51    0.37
  -1 -14 -12    0.09    0.29
   1  14  12    0.32    0.40
   1  14  12    0.27    0.35
   0 -15 -12   -0.03    0.29
   0  15  12    0.00    0.38
   0  15  12    0.63    0.37
  -5   0  13    1.30    0.40
   5   0 -13    1.16    0.38
   4   0 -13   -0.29    0.24
  -4   0  13   -0.13    0.22
  -4   0  13    0.22    0.26
  -3   0  13    1.64    0.25
  -3   0  13    1.28    0.22
   3   0 -13    1.06    0.22
  -3   0  13    1.44    0.20
   2   0 -13    0.03    0.13
  -2   0  13    0.09    0.14
  -2   0  13    0.01    0.12
  -2   0  13   -0.04    0.13
  -1   0  13    8.00    0.41
  -1   0  13    8.51    0.50
   1   0 -13    8.19    0.49
  -1   0  13    7.49    0.48
   0   0  13    0.02    0.07
   0   0  13    0.15    0.10
   0   0  13   -0.24    0.10
   0   0 -13   -0.04    0.11
  -1   0 -13   12.20    0.73
   1   0  13   12.20    0.68
   1   0  13   11.89    0.56
   5  -1 -13   -0.22    0.33
  -5  -1  13    0.01    0.38
  -5   1  13   -0.03    0.36
   5   1 -13    0.17    0.34
   4  -1 -13    0.53    0.28
  -4  -1  13    0.65    0.24
  -4  -1  13    0.57    0.28
  -4   1  13    0.83    0.29
   4   1 -13    0.89    0.28
  -4   1  13    0.83    0.29
  -4   1  13    0.74    0.24
   3  -1 -13    7.21    0.52
  -3  -1  13    7.25    0.49
  -3  -1  13    6.45    0.42
  -3   1  13    7.09    0.49
  -3   1  13    7.20    0.53
  -3   1  13    6.26    0.42
   3   1 -13    6.50    0.51
  -2  -1  13    2.64    0.24
   2  -1 -13    2.62    0.25
  -2  -1  13    2.29    0.22
  -2  -1  13    2.26    0.21
  -2   1  13    2.70    0.25
   2   1 -13    2.31    0.24
  -2   1  13    2.14    0.20
  -2   1  13    2.04    0.22
   1  -1 -13   49.65    2.71
  -1  -1  13   48.05    2.69
  -1  -1  13   47.91    2.11
  -1  -1  13   48.41    2.66
  -1   1  13   48.71    2.70
  -1   1  13   48.24    2.12
   1   1 -13   49.21    2.70
  -1   1  13   51.46    2.67
   0  -1 -13   10.95    0.65
   0  -1  13   10.11    0.61
   0  -1  13   10.62    0.50
   0   1  13   10.76    0.62
   0   1  13   10.79    0.64
   0   1 -13   10.52    0.62
   0   1  13   11.35    0.51
  -1  -1 -13    5.43    0.41
   1  -1  13    5.29    0.29
   1   1  13    5.06    0.33
  -1   1 -13    5.52    0.37
   1   1  13    5.82    0.35
   1   1  13    5.18    0.29
   2   1  13    5.03    0.28
   5  -2 -13    0.56    0.38
  -5  -2  13    0.70    0.39
   5   2 -13    0.87    0.37
  -5   2  13    1.02    0.39
  -4  -2  13    0.00    0.23
  -4  -2  13    0.05    0.26
   4  -2 -13    0.07    0.25
  -4   2  13    0.14    0.22
  -4   2  13    0.23    0.27
   4   2 -13    0.36    0.26
  -4   2  13    0.34    0.29
   3  -2 -13    0.19    0.18
  -3  -2  13    0.53    0.19
  -3  -2  13    0.15    0.18
  -3   2  13    0.22    0.17
  -3   2  13    0.20    0.19
  -3   2  13    0.31    0.22
   3   2 -13    0.25    0.20
   2  -2 -13   13.83    0.81
  -2  -2  13   13.70    0.65
  -2   2  13   12.72    0.78
   2   2 -13   13.57    0.81
  -2   2  13   13.07    0.64
  -2   2  13   13.67    0.82
  -1  -2  13    5.04    0.34
  -1  -2  13    5.35    0.31
   1  -2 -13    5.14    0.37
   1   2 -13    5.35    0.32
  -1   2  13    5.27    0.36
  -1   2  13    5.33    0.38
  -1   2  13    4.84    0.31
   1   2 -13    5.07    0.34
   0  -2 -13   26.13    1.53
   0  -2  13   27.56    1.19
   0  -2  13   28.07    1.47
   0   2  13   26.06    1.19
   0   2 -13   27.12    1.50
   0   2  13   26.75    1.51
   0   2  13   27.77    1.51
  -1  -2 -13    7.04    0.56
   1  -2  13    8.42    0.41
   1   2  13    9.35    0.52
  -1   2 -13    8.48    0.51
   1   2  13    8.52    0.51
   1   2  13    8.24    0.42
  -2  -2 -13    2.37    0.27
   2   2  13    2.33    0.19
   5  -3 -13    0.53    0.38
  -5  -3  13   -0.14    0.37
  -5   3  13    0.10    0.38
   5   3 -13   -0.08    0.34
  -5   3  13   -0.05    0.38
  -4  -3  13    2.06    0.34
   4  -3 -13    1.61    0.32
  -4  -3  13    2.02    0.28
  -4   3  13    1.68    0.32
  -4   3  13    1.72    0.25
   4   3 -13    1.41    0.31
  -4   3  13    1.41    0.34
  -3  -3  13   -0.03    0.17
   3  -3 -13    0.11    0.18
  -3  -3  13   -0.02    0.17
  -3   3  13   -0.08    0.22
  -3   3  13    0.00    0.19
  -3   3  13    0.10    0.17
   3   3 -13   -0.04    0.19
   2  -3 -13    6.74    0.45
  -2  -3  13    5.93    0.41
  -2  -3  13    6.27    0.38
   2   3 -13    5.85    0.43
  -2   3  13    6.81    0.47
  -2   3  13    6.01    0.37
  -2   3  13    6.30    0.44
  -1  -3  13    5.34    0.35
   1  -3 -13    5.67    0.41
  -1  -3  13    5.71    0.33
  -1   3  13    5.89    0.34
   1   3 -13    5.79    0.37
  -1   3  13    5.97    0.42
   1   3 -13    5.52    0.35
  -1   3  13    5.82    0.40
   0  -3 -13   21.48    1.24
   0  -3  13   21.19    0.96
   0   3  13   20.00    1.22
   0   3 -13   21.69    1.19
   0   3  13   23.49    1.23
   1  -3  13    2.65    0.20
  -1  -3 -13    2.71    0.29
   1   3  13    2.61    0.26
   1   3  13    2.66    0.25
  -1   3 -13    2.75    0.22
  -2  -3 -13   19.42    1.16
   2   3  13   19.81    1.14
   2   3  13   19.52    1.13
  -5  -4  13    0.05    0.39
   5  -4 -13    0.54    0.39
  -5   4  13   -0.11    0.39
  -5   4  13    0.13    0.36
   5   4 -13    0.34    0.36
  -4  -4  13    0.26    0.29
  -4  -4  13    0.66    0.25
   4  -4 -13    0.08    0.27
  -4   4  13    0.03    0.28
  -4   4  13    0.34    0.31
  -4   4  13    0.38    0.23
   4   4 -13    0.52    0.28
  -3  -4  13    2.54    0.27
   3  -4 -13    2.75    0.33
  -3  -4  13    2.45    0.28
   3   4 -13    2.39    0.32
  -3   4  13    2.68    0.34
  -3   4  13    2.39    0.30
  -3   4  13    3.05    0.27
   2  -4 -13   15.94    0.99
  -2  -4  13   16.13    0.94
   2   4 -13   16.76    0.97
  -2   4  13   17.12    0.79
  -2   4  13   16.61    0.97
  -2   4  13   16.57    1.00
   1  -4 -13    0.33    0.18
  -1  -4  13    0.36    0.14
  -1  -4  13    0.52    0.10
  -1   4  13    0.55    0.14
   1   4 -13    0.46    0.12
  -1   4  13    0.60    0.17
  -1   4  13    0.57    0.18
   1   4 -13    0.52    0.12
   0  -4  13   16.11    0.74
   0  -4 -13   16.89    0.96
   0   4  13   16.00    0.95
   0   4  13   18.92    0.97
   0   4 -13   14.50    0.90
   1  -4  13    4.01    0.23
  -1  -4 -13    2.56    0.32
   1   4  13    4.03    0.33
   1   4  13    3.48    0.32
  -2  -4 -13    1.35    0.26
   2   4  13    1.39    0.24
   2   4  13    1.80    0.24
  -3  -4 -13    0.03    0.28
   5  -5 -13   -0.02    0.38
  -5  -5  13    0.37    0.41
  -5  -5  13    0.51    0.29
   5   5 -13    0.12    0.36
  -5   5  13    0.30    0.42
  -4  -5  13    0.12    0.26
   4  -5 -13    0.57    0.30
  -4  -5  13    0.00    0.29
  -4   5  13    0.09    0.29
  -4   5  13    0.21    0.32
  -4   5  13   -0.04    0.23
   4   5 -13    0.36    0.29
  -3  -5  13    2.58    0.27
  -3  -5  13    2.48    0.29
   3  -5 -13    3.18    0.36
  -3   5  13    2.26    0.26
   3   5 -13    2.08    0.30
  -3   5  13    2.63    0.32
  -3   5  13    2.64    0.35
  -2  -5  13    0.65    0.17
   2  -5 -13    0.78    0.20
  -2  -5  13    0.38    0.14
  -2   5  13    0.75    0.22
  -2   5  13    0.61    0.19
  -2   5  13    0.64    0.21
   2   5 -13    0.47    0.17
   1  -5 -13   10.30    0.80
  -1  -5  13   12.82    0.62
  -1  -5  13   12.63    0.71
  -1   5  13   13.72    0.79
   1   5 -13   12.80    0.75
   1   5 -13   13.95    0.73
   0  -5 -13   21.77    1.23
   0  -5  13   20.59    0.95
   0   5  13   22.50    1.23
   0   5  13   19.77    1.22
  -1  -5 -13   -0.06    0.19
   1  -5  13    0.39    0.11
   1   5  13    0.29    0.19
   1   5  13   -0.18    0.16
  -2  -5 -13    7.36    0.60
   2   5  13    7.28    0.56
   2   5  13    7.46    0.54
  -3  -5 -13    1.98    0.36
  -4  -6  13   -0.06    0.30
   4  -6 -13    0.49    0.31
  -4  -6  13    0.27    0.27
   4   6 -13    0.28    0.30
  -4   6  13    0.08    0.25
  -4   6  13   -0.05    0.31
  -4   6  13    0.30    0.35
  -3  -6  13    2.80    0.35
   3  -6 -13    4.42    0.43
  -3  -6  13    4.34    0.34
  -3   6  13    5.75    0.50
   3   6 -13    4.23    0.41
  -3   6  13    4.61    0.35
  -3   6  13    5.06    0.47
   2  -6 -13    1.57    0.25
  -2  -6  13    1.49    0.21
  -2  -6  13    1.56    0.19
  -2   6  13    1.83    0.28
  -2   6  13    1.74    0.23
  -2   6  13    1.58    0.27
   2   6 -13    1.85    0.23
  -1  -6  13    0.41    0.15
   1  -6 -13   -0.10    0.19
  -1  -6  13    0.70    0.09
  -1   6  13    0.23    0.20
  -1   6  13    0.47    0.20
   1   6 -13    0.42    0.13
   1   6 -13    0.51    0.14
   0  -6  13    1.81    0.19
   0  -6 -13    2.46    0.26
   0   6  13    2.35    0.27
   0   6  13    2.07    0.26
   0   6 -13    1.83    0.21
  -1  -6 -13   17.03    1.18
   1  -6  13   20.23    0.88
   1   6  13   21.69    1.18
  -2  -6 -13    0.03    0.27
   2   6  13    0.33    0.24
   2   6  13    0.00    0.21
  -3  -6 -13    1.88    0.39
  -3  -6 -13    3.05    0.41
  -4  -6 -13   -0.04    0.39
  -4  -7  13    1.06    0.35
   4  -7 -13    1.07    0.37
  -4  -7  13    0.76    0.29
  -4   7  13    1.32    0.37
   4   7 -13    1.12    0.34
  -4   7  13    1.20    0.30
  -4   7  13    1.06    0.40
  -3  -7  13    1.32    0.25
  -3  -7  13    1.81    0.28
   3  -7 -13    1.61    0.33
  -3   7  13    1.91    0.35
  -3   7  13    1.28    0.26
  -3   7  13    2.09    0.35
   3   7 -13    1.73    0.29
   2  -7 -13    0.10    0.20
  -2  -7  13    0.19    0.18
  -2  -7  13    0.07    0.14
  -2   7  13    0.18    0.24
  -2   7  13    0.55    0.26
   2   7 -13    0.11    0.17
  -1  -7  13   21.67    0.95
   1  -7 -13   19.58    1.24
  -1   7  13   20.97    1.23
   1   7 -13   21.87    1.17
  -1   7  13   18.34    1.22
   1   7 -13   20.68    1.14
   0  -7 -13    0.23    0.18
   0  -7  13   -0.07    0.14
   0   7  13    0.52    0.19
   0   7 -13   -0.02    0.13
   0   7  13    0.07    0.20
   1  -7  13    1.83    0.17
  -1  -7 -13    1.86    0.29
   1   7  13    2.10    0.29
   1   7  13    1.45    0.26
  -2  -7 -13    0.28    0.27
   2   7  13    0.03    0.25
   2   7  13   -0.03    0.24
  -3  -7 -13    2.11    0.42
   3   7  13    2.21    0.37
  -4  -7 -13   -0.12    0.41
   4  -8 -13    0.96    0.37
  -4  -8  13    0.29    0.28
  -4  -8  13    0.24    0.33
  -4   8  13    0.03    0.38
  -4   8  13    0.22    0.30
   4   8 -13    0.36    0.32
  -4   8  13    0.29    0.37
   3  -8 -13    1.75    0.35
  -3  -8  13    0.97    0.25
  -3  -8  13    1.69    0.28
  -3   8  13    1.31    0.34
  -3   8  13    1.09    0.35
   3   8 -13    1.45    0.29
  -3   8  13    1.14    0.29
   2  -8 -13    1.32    0.29
  -2  -8  13    1.67    0.22
  -2  -8  13    1.65    0.20
   2   8 -13    1.70    0.25
  -2   8  13    1.55    0.31
  -2   8  13    1.88    0.34
   1  -8 -13    0.16    0.23
  -1  -8  13    0.91    0.18
  -1   8  13    0.50    0.26
   1   8 -13    0.77    0.17
   1   8 -13    0.46    0.15
  -1   8  13    0.26    0.23
   0  -8 -13    0.25    0.19
   0  -8  13   -0.14    0.15
   0   8  13    0.10    0.22
   0   8  13    0.38    0.20
   0   8 -13    0.18    0.16
   1  -8  13    8.83    0.46
  -1  -8 -13    8.45    0.66
   1   8  13    9.37    0.67
   1   8  13    8.66    0.63
  -1   8 -13    8.96    0.59
  -2  -8 -13    0.29    0.29
   2   8  13    0.87    0.30
   2   8  13    0.11    0.26
  -3  -8 -13    1.32    0.42
   3   8  13    1.84    0.39
   3   8  13    2.13    0.39
  -4  -9  13    1.04    0.32
  -4  -9  13    1.22    0.35
   4  -9 -13    1.55    0.42
  -4   9  13    0.64    0.43
   4   9 -13    0.63    0.37
  -4   9  13    0.74    0.41
  -3  -9  13    0.02    0.23
   3  -9 -13   -0.11    0.29
  -3  -9  13   -0.09    0.23
  -3   9  13   -0.33    0.26
   3   9 -13    0.22    0.26
  -3   9  13   -0.10    0.35
  -3   9  13    0.10    0.32
  -2  -9  13    0.21    0.15
   2  -9 -13   -0.74    0.23
  -2  -9  13    0.14    0.19
  -2   9  13   -0.14    0.26
  -2   9  13    0.16    0.30
   2   9 -13    0.12    0.19
   1  -9 -13    1.42    0.31
  -1  -9  13    1.55    0.22
   1   9 -13    1.71    0.24
  -1   9  13    1.41    0.32
  -1   9  13    1.49    0.29
   0  -9 -13    1.36    0.25
   0  -9  13    0.77    0.19
   0   9  13    1.05    0.24
   0   9 -13    0.90    0.20
   0   9  13    1.07    0.28
  -1  -9 -13   -0.11    0.24
   1  -9  13    0.06    0.15
   1   9  13   -0.42    0.25
  -1   9 -13    0.03    0.18
   1   9  13    0.37    0.23
  -2  -9 -13    1.24    0.32
   2   9  13    1.09    0.34
  -3  -9 -13    0.49    0.41
   3   9  13    0.54    0.36
   3   9  13   -0.01    0.36
  -3 -10  13    0.41    0.26
  -3 -10  13    0.49    0.26
   3 -10 -13    0.34    0.34
  -3  10  13   -0.11    0.37
   3  10 -13   -0.05    0.29
  -3  10  13    0.18    0.35
  -3  10  13   -0.28    0.29
  -2 -10  13    3.14    0.31
  -2 -10  13    2.78    0.31
   2  10 -13    3.78    0.36
  -2  10  13    2.73    0.45
  -2  10  13    3.08    0.42
  -1 -10  13    0.39    0.20
   1 -10 -13    0.29    0.27
   1  10 -13    0.49    0.19
  -1  10  13    0.38    0.30
  -1  10  13    0.30    0.27
   0 -10  13    1.70    0.24
   0 -10 -13    1.72    0.29
   0  10  13    1.78    0.30
   0  10  13    1.55    0.32
   0  10 -13    1.48    0.24
  -1 -10 -13    0.35    0.22
   1  10  13   -0.23    0.28
   1  10  13    0.61    0.26
  -2 -10 -13    0.05    0.31
   2  10  13   -0.68    0.28
   2  10  13    0.50    0.34
  -3 -10 -13   -0.40    0.42
  -3 -10 -13    0.36    0.41
   3  10  13   -0.91    0.38
   3  10  13    0.60    0.40
  -3 -11  13    0.11    0.25
   3 -11 -13   -0.53    0.33
  -3 -11  13    0.08    0.27
   3  11 -13   -0.11    0.30
  -3  11  13    0.13    0.40
  -3  11  13   -0.10    0.40
  -2 -11  13    0.06    0.23
   2 -11 -13   -0.58    0.29
   2  11 -13    0.37    0.25
  -2  11  13    0.08    0.37
  -2  11  13   -0.08    0.30
  -1 -11  13    2.64    0.30
   1 -11 -13    2.23    0.35
  -1  11  13    2.21    0.38
  -1  11  13    2.29    0.37
   0 -11  13    2.20    0.27
   0 -11 -13    2.63    0.33
   0  11  13    2.06    0.34
   0  11  13    2.53    0.38
  -1 -11 -13    0.34    0.22
   1  11  13    0.60    0.29
   1  11  13    0.10    0.31
  -2 -11 -13    1.62    0.40
   2  11  13    1.97    0.43
   2  11  13    2.23    0.43
  -3 -11 -13    0.38    0.38
   3 -12 -13   -0.01    0.37
  -3 -12  13    1.17    0.31
  -3  12  13    0.76    0.44
   3  12 -13    0.69    0.35
  -3  12  13   -0.50    0.41
  -2 -12  13    0.69    0.27
   2 -12 -13    0.03    0.34
  -2  12  13    0.66    0.36
  -2  12  13    0.75    0.42
   1 -12 -13   -0.26    0.27
  -1 -12  13    0.15    0.25
  -1  12  13   -0.15    0.30
  -1  12  13   -0.27    0.30
   0 -12 -13    1.73    0.32
   0  12  13    1.42    0.37
   0  12  13    1.72    0.35
  -1 -12 -13    0.81    0.27
   1  12  13    1.04    0.33
   1  12  13    0.40    0.35
  -2 -12 -13    0.25    0.35
   2  12  13    0.53    0.38
   2  12  13    0.97    0.41
   2 -13 -13   -0.07    0.34
  -2  13  13    0.04    0.41
  -2  13  13   -0.67    0.34
   1 -13 -13    1.91    0.36
  -1  13  13    2.24    0.42
  -1  13  13    1.73    0.40
   0 -13 -13    0.03    0.27
   0  13  13   -0.07    0.33
   0  13  13    0.40    0.32
  -1 -13 -13    0.15    0.27
   1  13  13    0.04    0.33
   1  13  13    0.18    0.37
  -2 -13 -13    0.10    0.32
   2  13  13    0.45    0.40
   2  13  13   -0.05    0.43
   1 -14 -13    0.52    0.31
  -1  14  13   -0.08    0.35
  -1  14  13    0.74    0.38
   0 -14 -13   -0.01    0.28
   0  14  13    0.46    0.37
   0  14  13    0.44    0.35
  -1 -14 -13    0.97    0.33
   1  14  13    1.32    0.40
   1  14  13    1.01    0.43
  -5   0  14   -0.22    0.38
   5   0 -14    0.49    0.36
  -4   0  14    6.36    0.56
   4   0 -14    5.47    0.54
  -4   0  14    5.89    0.47
  -3   0  14   -0.17    0.17
   3   0 -14   -0.07    0.18
  -3   0  14   -0.21    0.20
  -3   0  14   -0.18    0.18
  -2   0  14    5.10    0.35
  -2   0  14    5.44    0.39
   2   0 -14    6.12    0.42
  -2   0  14    5.70    0.41
  -1   0  14    0.23    0.11
   1   0 -14    0.25    0.11
  -1   0  14    0.05    0.12
  -1   0  14    0.16    0.14
   0   0 -14    6.62    0.44
   0   0  14    5.46    0.42
   0   0  14    7.37    0.40
   0   0  14    7.43    0.36
   1   0  14   -0.29    0.11
   1   0  14   -0.03    0.08
  -1   0 -14    0.02    0.15
   5  -1 -14   -0.03    0.35
  -5  -1  14    0.24    0.38
   5   1 -14   -0.01    0.35
  -5   1  14    0.24    0.38
  -4  -1  14   -0.18    0.28
  -4  -1  14   -0.05    0.23
   4  -1 -14    0.18    0.26
  -4   1  14    0.11    0.28
  -4   1  14   -0.18    0.23
  -4   1  14    0.15    0.29
   4   1 -14    0.46    0.27
  -3  -1  14    2.12    0.24
   3  -1 -14    2.13    0.29
  -3  -1  14    2.15    0.26
   3   1 -14    2.34    0.29
  -3   1  14    1.89    0.29
  -3   1  14    1.71    0.25
  -3   1  14    2.03    0.23
  -2  -1  14    9.46    0.49
   2  -1 -14    9.82    0.61
  -2  -1  14    8.58    0.57
  -2   1  14    9.41    0.49
  -2   1  14    9.25    0.60
  -2   1  14    9.11    0.58
   2   1 -14   10.23    0.60
   1  -1 -14    1.77    0.19
  -1  -1  14    1.52    0.17
  -1  -1  14    1.76    0.18
  -1  -1  14    2.03    0.19
  -1   1  14    1.97    0.22
  -1   1  14    1.77    0.19
  -1   1  14    1.80    0.18
   1   1 -14    1.80    0.18
   0  -1  14   35.95    1.99
   0  -1 -14   34.85    2.03
   0  -1  14   37.96    1.59
   0   1  14   35.49    2.01
   0   1 -14   37.18    2.02
   0   1  14   38.29    1.60
   0   1  14   36.38    2.02
  -1  -1 -14    3.24    0.36
   1  -1  14    4.61    0.26
  -1   1 -14    4.00    0.34
   1   1  14    4.20    0.27
   1   1  14    4.85    0.30
  -2  -1 -14    5.42    0.44
  -5  -2  14    0.21    0.39
   5  -2 -14    0.47    0.39
   5   2 -14    0.42    0.36
  -5   2  14    0.08    0.38
   4  -2 -14    1.61    0.31
  -4  -2  14    1.41    0.27
  -4  -2  14    1.07    0.31
   4   2 -14    1.19    0.31
  -4   2  14    1.15    0.33
  -4   2  14    1.11    0.31
  -4   2  14    1.49    0.27
  -3  -2  14    1.08    0.22
   3  -2 -14    1.16    0.25
  -3  -2  14    1.36    0.22
  -3   2  14    1.25    0.26
  -3   2  14    1.51    0.22
   3   2 -14    0.85    0.22
  -3   2  14    1.02    0.23
   2  -2 -14    6.01    0.42
  -2  -2  14    5.24    0.34
  -2  -2  14    5.27    0.38
  -2   2  14    5.14    0.34
  -2   2  14    5.98    0.43
  -2   2  14    5.79    0.41
   2   2 -14    4.99    0.40
  -1  -2  14   14.92    0.70
   1  -2 -14   15.42    0.89
  -1  -2  14   15.21    0.85
  -1   2  14   14.67    0.87
   1   2 -14   15.01    0.86
  -1   2  14   14.77    0.89
  -1   2  14   14.90    0.70
   0  -2 -14    9.81    0.61
   0  -2  14   10.04    0.54
   0  -2  14    9.37    0.47
   0   2  14    9.11    0.48
   0   2 -14    9.77    0.56
   0   2  14    9.25    0.58
   0   2  14    9.77    0.60
   1  -2  14    1.99    0.17
  -1  -2 -14    1.32    0.24
   1   2  14    2.07    0.21
  -1   2 -14    2.33    0.22
   1   2  14    2.23    0.19
   1   2  14    2.27    0.22
  -2  -2 -14    4.56    0.42
   2   2  14    4.27    0.27
  -5  -3  14    1.35    0.42
   5  -3 -14    1.35    0.41
  -5  -3  14    1.06    0.33
  -5   3  14    0.80    0.42
   5   3 -14    1.51    0.41
  -5   3  14    1.01    0.41
  -4  -3  14   -0.53    0.23
   4  -3 -14    0.26    0.27
  -4  -3  14   -0.02    0.27
  -4   3  14   -0.19    0.29
  -4   3  14    0.04    0.23
  -4   3  14   -0.08    0.30
   4   3 -14    0.00    0.26
  -3  -3  14    4.68    0.41
   3  -3 -14    5.27    0.44
  -3  -3  14    4.42    0.34
  -3   3  14    5.16    0.44
   3   3 -14    4.62    0.44
  -3   3  14    4.79    0.49
  -3   3  14    5.00    0.35
  -2  -3  14    0.56    0.17
  -2  -3  14    0.51    0.15
   2  -3 -14    0.85    0.19
  -2   3  14    0.84    0.20
  -2   3  14    0.84    0.21
  -2   3  14    0.81    0.18
   1  -3 -14    4.16    0.34
  -1  -3  14    3.83    0.28
  -1  -3  14    3.71    0.28
   1   3 -14    3.91    0.27
  -1   3  14    3.93    0.33
  -1   3  14    4.09    0.29
  -1   3  14    3.99    0.36
   1   3 -14    3.90    0.29
   0  -3  14    1.86    0.18
   0  -3 -14    2.06    0.23
   0   3  14    1.77    0.19
   0   3  14    2.24    0.24
   0   3  14    1.71    0.20
   0   3 -14    2.12    0.17
   1  -3  14    3.72    0.23
  -1  -3 -14    2.73    0.31
   1   3  14    3.05    0.29
   1   3  14    3.23    0.29
  -2  -3 -14    0.02    0.22
   2   3  14    0.10    0.16
   2   3  14    0.06    0.14
  -4  -4  14    0.71    0.27
   4  -4 -14    0.87    0.31
  -4  -4  14    0.90    0.31
  -4   4  14    0.58    0.32
  -4   4  14    0.57    0.33
   4   4 -14    0.69    0.29
  -4   4  14    0.54    0.25
  -3  -4  14    0.62    0.21
  -3  -4  14    0.71    0.21
   3  -4 -14    0.63    0.23
  -3   4  14    0.72    0.27
  -3   4  14    0.76    0.23
   3   4 -14    0.63    0.23
  -3   4  14    0.75    0.21
   2  -4 -14    0.41    0.18
  -2  -4  14    0.15    0.15
  -2  -4  14   -0.01    0.13
  -2   4  14    0.02    0.16
  -2   4  14    0.44    0.20
  -2   4  14    0.34    0.20
   2   4 -14    0.05    0.15
  -1  -4  14   17.95    0.98
   1  -4 -14   15.65    1.05
  -1  -4  14   18.47    0.82
   1   4 -14   18.77    0.97
  -1   4  14   19.07    0.83
   1   4 -14   18.01    1.01
  -1   4  14   18.39    1.04
  -1   4  14   15.00    1.04
   0  -4  14    0.32    0.13
   0  -4 -14    0.61    0.18
   0   4 -14    0.30    0.08
   0   4  14    0.73    0.19
   0   4  14    0.03    0.15
   1  -4  14   16.43    0.72
   1   4  14   14.88    0.93
   1   4  14   16.08    0.94
  -2  -4 -14    2.93    0.36
   2   4  14    3.52    0.33
   2   4  14    2.95    0.33
  -3  -4 -14    1.28    0.33
  -4  -5  14   -0.14    0.30
   4  -5 -14    0.26    0.30
  -4  -5  14    0.22    0.27
  -4   5  14    0.08    0.24
  -4   5  14    0.19    0.31
  -4   5  14   -0.08    0.33
   4   5 -14    0.02    0.29
   3  -5 -14    2.51    0.33
  -3  -5  14    1.89    0.27
  -3  -5  14    1.73    0.25
  -3   5  14    1.84    0.26
  -3   5  14    1.61    0.34
  -3   5  14    2.39    0.33
   3   5 -14    1.61    0.29
  -2  -5  14    7.20    0.43
   2  -5 -14    7.77    0.55
  -2  -5  14    7.59    0.48
  -2   5  14    7.92    0.56
   2   5 -14    6.90    0.51
  -2   5  14    7.33    0.57
  -2   5  14    8.12    0.46
  -1  -5  14    0.13    0.10
   1  -5 -14   -0.16    0.18
  -1  -5  14   -0.12    0.14
   1   5 -14    0.10    0.12
  -1   5  14   -0.09    0.18
  -1   5  14    0.00    0.17
   1   5 -14    0.08    0.12
   0  -5 -14   17.16    1.01
   0  -5  14   16.42    0.78
   0   5  14   17.87    1.00
   0   5  14   16.04    1.00
  -1  -5 -14    1.58    0.27
   1  -5  14    1.65    0.16
   1   5  14    2.00    0.25
   1   5  14    0.74    0.21
  -2  -5 -14    0.70    0.29
   2   5  14    0.81    0.24
   2   5  14    0.83    0.24
  -3  -5 -14    4.48    0.49
  -4  -5 -14   -0.43    0.38
  -4  -6  14    0.80    0.29
  -4  -6  14    0.66    0.32
   4  -6 -14    1.08    0.35
   4   6 -14    0.29    0.31
  -4   6  14    0.76    0.38
  -4   6  14    0.88    0.35
  -4   6  14    0.51    0.28
  -3  -6  14    0.17    0.21
  -3  -6  14    0.10    0.22
   3  -6 -14    0.46    0.27
  -3   6  14    0.24    0.28
  -3   6  14   -0.06    0.22
   3   6 -14    0.15    0.23
  -3   6  14    0.35    0.29
  -2  -6  14    4.88    0.36
   2  -6 -14    4.69    0.46
  -2  -6  14    5.54    0.37
  -2   6  14    5.50    0.50
  -2   6  14    5.30    0.40
   2   6 -14    4.95    0.42
  -2   6  14    5.62    0.50
   1  -6 -14    0.74    0.24
  -1  -6  14    1.28    0.19
   1   6 -14    1.49    0.18
  -1   6  14    0.87    0.25
  -1   6  14    1.41    0.25
   1   6 -14    1.19    0.18
   0  -6 -14    0.30    0.18
   0  -6  14    0.30    0.14
   0   6  14    0.26    0.20
   0   6 -14    0.22    0.14
   0   6  14    0.52    0.20
   1  -6  14    3.73    0.26
  -1  -6 -14    4.25    0.40
   1   6  14    3.70    0.35
   1   6  14    2.47    0.33
  -2  -6 -14    8.54    0.71
   2   6  14   10.25    0.69
   2   6  14    9.04    0.67
  -3  -6 -14    0.17    0.34
  -4  -6 -14    0.06    0.41
   4  -7 -14    0.63    0.36
  -4  -7  14    0.37    0.32
  -4  -7  14    0.53    0.28
  -4   7  14    0.06    0.28
  -4   7  14   -0.20    0.34
  -4   7  14    0.05    0.38
   4   7 -14    0.30    0.32
   3  -7 -14    1.52    0.33
  -3  -7  14    0.98    0.25
  -3  -7  14    0.94    0.25
   3   7 -14    0.97    0.27
  -3   7  14    1.38    0.35
  -3   7  14    1.17    0.27
  -3   7  14    0.93    0.34
  -2  -7  14    7.91    0.50
  -2  -7  14    7.89    0.47
   2  -7 -14    6.32    0.59
  -2   7  14    8.40    0.64
   2   7 -14    8.22    0.55
  -2   7  14    8.28    0.63
  -1  -7  14   -0.06    0.16
   1  -7 -14   -0.14    0.22
   1   7 -14   -0.08    0.14
   1   7 -14    0.09    0.13
  -1   7  14    0.20    0.24
  -1   7  14   -0.06    0.21
   0  -7  14    3.39    0.26
   0  -7 -14    3.90    0.38
   0   7  14    3.86    0.38
   0   7  14    3.45    0.36
   0   7 -14    3.42    0.32
  -1  -7 -14    0.64    0.25
   1  -7  14    0.75    0.15
   1   7  14    0.70    0.23
   1   7  14    0.93    0.26
  -2  -7 -14   -0.06    0.27
   2   7  14   -0.18    0.25
   2   7  14    0.17    0.27
  -3  -7 -14    0.05    0.37
   4  -8 -14    1.25    0.40
  -4  -8  14    0.20    0.32
  -4  -8  14    0.11    0.30
  -4   8  14   -0.01    0.38
   4   8 -14    0.15    0.33
  -4   8  14    0.27    0.40
  -4   8  14    0.58    0.32
   3  -8 -14    0.13    0.30
  -3  -8  14   -0.01    0.23
  -3  -8  14   -0.25    0.21
   3   8 -14    0.03    0.25
  -3   8  14   -0.24    0.31
  -3   8  14   -0.04    0.27
  -3   8  14    0.33    0.34
  -2  -8  14    2.79    0.29
  -2  -8  14    3.81    0.30
   2   8 -14    3.82    0.38
  -2   8  14    3.24    0.41
  -2   8  14    3.35    0.43
  -1  -8  14    5.60    0.39
   1  -8 -14    5.25    0.53
  -1   8  14    6.20    0.53
  -1   8  14    5.13    0.52
   1   8 -14    5.52    0.42
   0  -8  14    0.20    0.16
   0  -8 -14    0.08    0.20
   0   8  14    0.67    0.22
   0   8  14    0.47    0.24
   0   8 -14    0.07    0.16
   1  -8  14    4.44    0.32
  -1  -8 -14    5.51    0.51
   1   8  14    5.22    0.52
  -1   8 -14    5.11    0.43
   1   8  14    5.02    0.46
  -2  -8 -14    0.92    0.32
   2   8  14    2.69    0.36
   2   8  14    1.33    0.33
  -3  -8 -14    0.70    0.42
   3   8  14    0.48    0.35
  -4  -9  14    0.28    0.33
  -4  -9  14    0.26    0.31
   4  -9 -14    0.45    0.38
  -4   9  14    0.30    0.44
  -4   9  14   -0.09    0.41
   4   9 -14    0.12    0.37
  -3  -9  14    2.19    0.31
  -3  -9  14    2.03    0.31
   3  -9 -14    2.04    0.41
  -3   9  14    2.18    0.35
   3   9 -14    2.46    0.35
  -3   9  14    2.07    0.43
  -3   9  14    3.16    0.47
  -2  -9  14    0.09    0.21
  -2  -9  14    0.07    0.14
   2  -9 -14   -0.72    0.24
  -2   9  14   -0.36    0.30
   2   9 -14    0.17    0.21
  -2   9  14   -0.23    0.27
  -1  -9  14   -0.17    0.19
   1  -9 -14   -0.05    0.25
  -1   9  14    0.04    0.28
   1   9 -14    0.06    0.17
  -1   9  14   -0.20    0.25
   0  -9 -14    0.50    0.22
   0  -9  14   -0.01    0.18
   0   9  14   -0.03    0.26
   0   9  14    0.40    0.22
   0   9 -14    0.04    0.17
   1  -9  14    1.71    0.21
  -1  -9 -14    1.68    0.29
   1   9  14    1.71    0.34
   1   9  14    2.21    0.32
  -2  -9 -14   -0.01    0.30
   2   9  14    0.06    0.31
   2   9  14   -0.56    0.27
  -3  -9 -14    1.20    0.44
   3   9  14    0.04    0.39
   3   9  14    0.89    0.40
  -3 -10  14    0.78    0.25
   3 -10 -14   -0.36    0.33
  -3 -10  14    0.94    0.28
  -3  10  14    0.17    0.38
   3  10 -14    0.65    0.32
  -3  10  14    0.00    0.39
  -3  10  14    0.19    0.32
   2 -10 -14   -0.84    0.27
  -2 -10  14   -0.09    0.22
  -2  10  14   -0.12    0.34
  -2  10  14   -0.33    0.29
   2  10 -14   -0.09    0.22
   1 -10 -14    9.11    0.69
  -1 -10  14    9.19    0.54
   1  10 -14    8.36    0.59
  -1  10  14    8.34    0.70
  -1  10  14    9.11    0.73
   0 -10 -14    0.95    0.25
   0 -10  14    0.60    0.21
   0  10  14    0.87    0.27
   0  10 -14    0.56    0.21
   0  10  14    0.81    0.30
  -1 -10 -14    2.54    0.34
   1  10  14    2.95    0.41
   1  10  14    2.19    0.34
  -2 -10 -14    0.49    0.35
   2  10  14    0.31    0.35
   2  10  14   -0.09    0.31
  -3 -10 -14    0.50    0.41
   3  10  14   -0.98    0.38
   3  10  14    0.77    0.41
   3 -11 -14   -0.87    0.35
  -3 -11  14    0.75    0.30
  -3 -11  14    1.26    0.28
  -3  11  14    0.07    0.41
   3  11 -14    0.42    0.33
  -3  11  14    0.76    0.35
  -3  11  14   -0.31    0.40
  -2 -11  14    0.57    0.26
   2 -11 -14   -0.35    0.32
  -2  11  14   -0.08    0.32
  -2  11  14    0.14    0.40
  -1 -11  14    0.09    0.23
   1 -11 -14    0.42    0.27
  -1  11  14   -0.06    0.29
  -1  11  14    0.09    0.30
   0 -11  14    1.40    0.25
   0 -11 -14    1.36    0.29
   0  11  14    1.20    0.30
   0  11  14    1.06    0.33
  -1 -11 -14    1.42    0.28
   1  11  14    1.30    0.37
   1  11  14    2.14    0.36
  -2 -11 -14    0.45    0.37
   2  11  14    0.09    0.34
   2  11  14    0.38    0.38
   2 -12 -14   -0.25    0.34
  -2 -12  14   -0.07    0.27
  -2  12  14    0.22    0.41
  -2  12  14   -0.56    0.34
   1 -12 -14    0.30    0.30
  -1 -12  14    0.79    0.27
  -1  12  14    0.34    0.33
  -1  12  14    0.89    0.34
   0 -12 -14    0.42    0.27
   0  12  14    0.50    0.32
   0  12  14    0.16    0.32
  -1 -12 -14    0.49    0.27
   1  12  14    0.58    0.32
   1  12  14    0.33    0.36
  -2 -12 -14    1.21    0.40
   2  12  14    0.58    0.41
   2  12  14    1.06    0.41
   2 -13 -14   -0.31    0.35
  -2  13  14    0.10    0.42
  -2  13  14   -0.19    0.38
   1 -13 -14    0.16    0.30
  -1  13  14    0.19    0.35
  -1  13  14    0.14    0.34
   0 -13 -14    3.35    0.42
   0  13  14    3.70    0.46
   0  13  14    3.53    0.48
  -1 -13 -14    0.20    0.28
   1  13  14    0.60    0.36
   1  13  14    0.51    0.40
   1 -14 -14    0.76    0.33
  -1  14  14    0.31    0.39
  -1  14  14    0.28    0.37
   0 -14 -14   -0.04    0.29
   0  14  14    0.51    0.36
   0  14  14   -0.06    0.37
  -5   0  15    0.02    0.39
   5   0 -15   -0.13    0.35
  -4   0  15    0.11    0.30
   4   0 -15    0.03    0.27
  -4   0  15   -0.49    0.23
  -3   0  15    5.71    0.48
   3   0 -15    5.42    0.47
  -3   0  15    5.11    0.40
  -3   0  15    5.60    0.47
  -2   0  15    0.07    0.14
   2   0 -15    0.06    0.15
  -2   0  15    0.21    0.16
  -2   0  15    0.01    0.15
  -1   0  15   10.29    0.52
  -1   0  15   10.09    0.61
   1   0 -15   10.52    0.63
  -1   0  15   10.21    0.64
   0   0 -15    0.06    0.12
   0   0  15    0.13    0.13
   0   0  15   -0.15    0.12
   1   0  15   10.61    0.50
   1   0  15   11.33    0.59
  -1   0 -15    8.43    0.64
  -2   0 -15   -0.01    0.18
  -5  -1  15    0.75    0.42
   5  -1 -15    0.90    0.40
   5   1 -15    0.68    0.39
  -5   1  15    0.42    0.41
  -4  -1  15    0.68    0.25
   4  -1 -15    0.55    0.29
  -4  -1  15    0.57    0.31
  -4   1  15    0.24    0.29
   4   1 -15    0.55    0.30
  -4   1  15    0.81    0.27
  -3  -1  15    1.92    0.25
   3  -1 -15    1.76    0.27
  -3  -1  15    1.77    0.26
  -3   1  15    2.10    0.29
   3   1 -15    2.30    0.30
  -3   1  15    1.80    0.24
  -3   1  15    1.59    0.26
  -2  -1  15    2.11    0.22
  -2  -1  15    1.89    0.22
   2  -1 -15    2.22    0.26
   2   1 -15    2.46    0.26
  -2   1  15    2.07    0.22
  -2   1  15    2.53    0.25
  -2   1  15    2.47    0.25
  -1  -1  15   10.13    0.63
   1  -1 -15   10.06    0.64
  -1  -1  15    9.80    0.52
   1   1 -15   11.05    0.63
  -1   1  15   10.70    0.63
  -1   1  15   10.22    0.65
  -1   1  15   10.14    0.52
   0  -1 -15    0.17    0.14
   0  -1  15   -0.06    0.12
   0  -1  15   -0.14    0.10
   0   1 -15    0.07    0.11
   0   1  15    0.12    0.09
   0   1  15    0.13    0.13
   0   1  15    0.00    0.14
   1  -1  15   17.02    0.79
   1   1  15   17.11    0.80
   1   1  15   18.26    0.98
  -2  -1 -15    2.56    0.29
  -2   1 -15    2.52    0.27
  -5  -2  15    0.36    0.31
   5  -2 -15    0.47    0.39
  -5  -2  15    0.71    0.42
  -5   2  15    0.20    0.40
   5   2 -15    0.32    0.36
   4  -2 -15    0.57    0.29
  -4  -2  15    0.51    0.31
  -4  -2  15    0.92    0.27
   4   2 -15    0.24    0.29
  -4   2  15    0.91    0.32
  -4   2  15    0.59    0.32
  -4   2  15    0.74    0.27
  -3  -2  15    1.93    0.25
   3  -2 -15    2.01    0.29
  -3  -2  15    1.96    0.26
   3   2 -15    1.72    0.28
  -3   2  15    1.75    0.24
  -3   2  15    1.79    0.29
  -3   2  15    1.48    0.26
  -2  -2  15    4.70    0.35
  -2  -2  15    4.55    0.33
   2  -2 -15    4.40    0.39
  -2   2  15    4.67    0.40
  -2   2  15    4.62    0.33
   2   2 -15    4.44    0.37
  -2   2  15    5.05    0.40
   1  -2 -15    2.42    0.24
  -1  -2  15    1.90    0.19
  -1  -2  15    2.46    0.22
  -1   2  15    2.10    0.21
  -1   2  15    2.15    0.22
   1   2 -15    2.28    0.22
  -1   2  15    1.27    0.24
   0  -2 -15   19.29    1.12
   0  -2  15   18.90    0.88
   0  -2  15   19.99    1.05
   0   2  15   18.54    1.10
   0   2  15   19.56    1.11
   0   2 -15   19.80    1.09
   0   2  15   19.13    0.88
  -1  -2 -15    2.96    0.36
   1  -2  15    4.71    0.27
  -1   2 -15    4.33    0.33
   1   2  15    5.00    0.34
   1   2  15    4.24    0.29
  -2  -2 -15    7.02    0.55
  -4  -3  15    2.01    0.35
   4  -3 -15    1.62    0.33
  -4  -3  15    1.61    0.29
   4   3 -15    1.51    0.34
  -4   3  15    1.78    0.29
  -4   3  15    1.15    0.34
  -4   3  15    1.35    0.36
  -3  -3  15   -0.19    0.19
  -3  -3  15   -0.14    0.19
   3  -3 -15    0.48    0.24
  -3   3  15    0.07    0.24
  -3   3  15    0.02    0.21
   3   3 -15    0.21    0.22
  -3   3  15    0.03    0.20
  -2  -3  15   10.47    0.56
  -2  -3  15   11.37    0.65
   2  -3 -15   10.84    0.70
  -2   3  15    9.81    0.56
  -2   3  15   11.28    0.71
   2   3 -15   10.33    0.68
  -2   3  15   10.54    0.68
   1  -3 -15    0.70    0.19
  -1  -3  15    0.95    0.17
  -1  -3  15    0.83    0.15
   1   3 -15    1.22    0.15
  -1   3  15    1.12    0.18
  -1   3  15    0.96    0.19
  -1   3  15    0.57    0.20
   1   3 -15    0.99    0.14
   0  -3  15   -0.10    0.13
   0  -3 -15    0.13    0.16
   0   3  15    0.15    0.14
   0   3  15   -0.01    0.14
   0   3 -15    0.16    0.09
   0   3  15    0.35    0.17
   1  -3  15    0.68    0.14
  -1  -3 -15    0.47    0.21
   1   3  15    0.95    0.19
   1   3  15    0.90    0.17
   1   3  15    1.24    0.18
  -2  -3 -15    6.83    0.56
   2   3  15    5.92    0.38
   2   3  15    6.99    0.48
  -3  -3 -15   -0.35    0.28
   4  -4 -15    0.82    0.32
  -4  -4  15    0.81    0.28
  -4  -4  15    0.70    0.31
  -4   4  15    0.41    0.26
   4   4 -15    0.78    0.31
  -4   4  15    0.97    0.34
  -4   4  15    0.39    0.34
  -3  -4  15    0.57    0.22
   3  -4 -15    0.71    0.25
  -3  -4  15    0.72    0.22
   3   4 -15    0.70    0.24
  -3   4  15    0.74    0.28
  -3   4  15    0.74    0.27
  -3   4  15    0.54    0.22
  -2  -4  15    2.87    0.27
   2  -4 -15    2.69    0.30
  -2  -4  15    2.65    0.25
   2   4 -15    3.12    0.30
  -2   4  15    3.25    0.33
  -2   4  15    3.09    0.32
  -2   4  15    2.48    0.26
   1  -4 -15    1.85    0.26
  -1  -4  15    2.08    0.19
  -1  -4  15    1.63    0.20
  -1   4  15    2.04    0.22
   1   4 -15    2.09    0.20
   1   4 -15    2.25    0.21
  -1   4  15    1.24    0.26
  -1   4  15    2.08    0.25
   0  -4  15   19.19    0.91
   0  -4 -15   19.97    1.17
   0   4  15   19.34    1.16
   0   4  15   21.56    1.17
   1  -4  15    0.63    0.14
  -1  -4 -15    0.61    0.23
   1   4  15    0.50    0.19
   1   4  15    0.65    0.19
  -2  -4 -15    6.93    0.62
   2   4  15    7.60    0.55
  -3  -4 -15    0.10    0.31
  -4  -4 -15   -0.96    0.38
  -4  -5  15    0.30    0.28
   4  -5 -15    0.33    0.32
  -4  -5  15    0.40    0.30
  -4   5  15    0.84    0.36
  -4   5  15    0.55    0.27
  -4   5  15    0.20    0.35
   4   5 -15    0.31    0.31
   3  -5 -15    0.50    0.26
  -3  -5  15    0.48    0.22
  -3  -5  15    0.42    0.22
  -3   5  15    0.85    0.30
  -3   5  15    0.86    0.30
  -3   5  15    0.56    0.24
   3   5 -15    0.28    0.24
   2  -5 -15    9.17    0.66
  -2  -5  15    8.71    0.52
  -2  -5  15    9.01    0.57
   2   5 -15    9.61    0.62
  -2   5  15   10.13    0.67
  -2   5  15   10.27    0.68
  -2   5  15    9.87    0.54
   1  -5 -15    4.58    0.43
  -1  -5  15    4.60    0.32
  -1  -5  15    5.05    0.34
   1   5 -15    5.09    0.35
   1   5 -15    4.95    0.35
  -1   5  15    5.00    0.35
  -1   5  15    5.05    0.43
  -1   5  15    4.17    0.42
   0  -5 -15    1.25    0.22
   0  -5  15    1.03    0.17
   0   5  15    1.05    0.22
   0   5  15    1.25    0.22
  -1  -5 -15    4.02    0.40
   1  -5  15    4.01    0.26
   1   5  15    3.79    0.38
   1   5  15    2.41    0.32
  -2  -5 -15    3.24    0.42
   2   5  15    3.98    0.39
  -3  -5 -15   -0.22    0.33
  -4  -5 -15    0.29    0.42
  -4  -6  15    0.46    0.29
  -4  -6  15    0.48    0.31
   4  -6 -15    0.42    0.35
  -4   6  15   -0.01    0.28
  -4   6  15    0.14    0.37
   4   6 -15   -0.05    0.31
  -4   6  15    0.04    0.35
  -3  -6  15    1.55    0.26
   3  -6 -15    1.97    0.34
  -3  -6  15    1.27    0.26
  -3   6  15    1.73    0.36
   3   6 -15    1.51    0.30
  -3   6  15    1.72    0.36
  -3   6  15    1.74    0.29
   2  -6 -15    0.44    0.23
  -2  -6  15    0.76    0.20
  -2  -6  15    0.37    0.14
  -2   6  15    0.40    0.26
  -2   6  15    0.00    0.21
  -2   6  15    0.44    0.27
   2   6 -15    0.31    0.19
   1  -6 -15    0.72    0.25
  -1  -6  15    0.58    0.18
   1   6 -15    1.08    0.17
   1   6 -15    1.05    0.17
  -1   6  15    0.81    0.24
  -1   6  15    0.98    0.26
   0  -6 -15    0.33    0.20
   0  -6  15    0.02    0.15
   0   6  15    0.30    0.19
   0   6  15    0.06    0.21
   0   6 -15    0.07    0.14
   1  -6  15    0.05    0.13
  -1  -6 -15    0.43    0.24
   1   6  15   -0.20    0.19
   1   6  15    0.37    0.22
  -2  -6 -15    0.36    0.29
   2   6  15    0.64    0.27
   2   6  15    0.37    0.26
  -3  -6 -15    4.07    0.53
  -4  -7  15    0.21    0.29
  -4  -7  15   -0.17    0.29
   4  -7 -15    0.59    0.37
  -4   7  15    0.10    0.38
   4   7 -15    0.63    0.34
  -4   7  15    0.11    0.39
  -4   7  15    0.05    0.29
  -3  -7  15   -0.12    0.23
  -3  -7  15    0.07    0.22
   3  -7 -15    0.58    0.31
  -3   7  15   -0.08    0.32
   3   7 -15    0.20    0.25
  -3   7  15    0.28    0.33
  -3   7  15    0.19    0.26
   2  -7 -15    0.65    0.25
  -2  -7  15    0.63    0.21
  -2  -7  15    0.77    0.16
   2   7 -15    0.86    0.21
  -2   7  15    0.83    0.24
  -2   7  15    1.16    0.30
  -2   7  15    0.81    0.31
  -1  -7  15   14.05    0.69
   1  -7 -15   13.44    0.90
  -1   7  15   13.97    0.90
   1   7 -15   13.64    0.80
  -1   7  15   13.51    0.89
   0  -7  15    0.76    0.18
   0  -7 -15    0.80    0.22
   0   7  15    0.67    0.25
   0   7 -15    0.99    0.19
   0   7  15    0.85    0.22
   1  -7  15    9.48    0.48
  -1  -7 -15    8.84    0.68
   1   7  15    9.40    0.67
   1   7  15    8.54    0.64
  -2  -7 -15    0.36    0.29
   2   7  15    0.26    0.28
   2   7  15    0.59    0.28
  -3  -7 -15   -0.07    0.39
   4  -8 -15    0.96    0.40
  -4  -8  15    0.14    0.31
  -4  -8  15   -0.15    0.30
  -4   8  15    0.50    0.43
  -4   8  15   -0.24    0.31
   4   8 -15   -0.13    0.34
  -4   8  15   -0.21    0.41
   3  -8 -15    0.74    0.34
  -3  -8  15    0.78    0.26
  -3  -8  15    1.03    0.25
   3   8 -15    1.16    0.30
  -3   8  15    0.77    0.36
  -3   8  15    1.20    0.40
  -3   8  15    0.92    0.31
  -2  -8  15    0.14    0.14
  -2  -8  15    0.36    0.21
   2  -8 -15   -0.56    0.25
   2   8 -15    0.31    0.20
  -2   8  15    0.08    0.29
  -2   8  15    0.13    0.32
   1  -8 -15    0.37    0.26
  -1  -8  15    0.32    0.20
  -1   8  15    0.46    0.26
  -1   8  15    0.36    0.27
   1   8 -15    0.44    0.18
   0  -8 -15    4.98    0.47
   0  -8  15    4.93    0.35
   0   8  15    5.19    0.45
   0   8  15    5.18    0.52
   0   8 -15    4.49    0.39
  -1  -8 -15    0.94    0.25
   1  -8  15    0.18    0.16
  -1   8 -15    0.49    0.20
   1   8  15    0.72    0.24
   1   8  15    0.72    0.28
  -2  -8 -15   -0.15    0.29
   2   8  15   -0.65    0.27
   2   8  15    0.58    0.31
  -3  -8 -15    1.20    0.46
   3   8  15    2.03    0.44
  -3  -9  15    0.10    0.26
   3  -9 -15   -0.34    0.32
  -3  -9  15   -0.04    0.22
  -3   9  15   -0.04    0.38
  -3   9  15   -0.15    0.31
  -3   9  15    0.07    0.36
   3   9 -15    0.32    0.28
  -2  -9  15    3.69    0.32
   2  -9 -15    1.55    0.39
  -2   9  15    2.69    0.41
  -2   9  15    2.30    0.44
   2   9 -15    3.78    0.35
  -1  -9  15    4.22    0.33
   1  -9 -15    4.14    0.45
  -1   9  15    4.39    0.46
   1   9 -15    3.79    0.38
  -1   9  15    3.83    0.45
   0  -9  15    0.79    0.20
   0  -9 -15    1.17    0.26
   0   9  15    1.05    0.26
   0   9  15    0.28    0.29
   0   9 -15    0.66    0.21
  -1  -9 -15    1.60    0.29
   1  -9  15    1.59    0.21
   1   9  15    2.16    0.32
   1   9  15    2.17    0.36
  -2  -9 -15    1.25    0.38
   2   9  15    0.68    0.34
   2   9  15    1.08    0.35
  -3  -9 -15   -0.24    0.40
   3   9  15   -0.42    0.39
  -3 -10  15    0.53    0.28
   3 -10 -15   -0.93    0.32
  -3 -10  15    0.31    0.24
  -3  10  15   -0.13    0.39
  -3  10  15   -0.19    0.33
   3  10 -15    0.48    0.32
  -3  10  15    0.08    0.42
  -2 -10  15    0.16    0.24
   2 -10 -15   -0.67    0.29
  -2  10  15    0.23    0.39
  -2  10  15   -0.11    0.32
  -1 -10  15    0.07    0.23
   1 -10 -15   -0.14    0.26
  -1  10  15   -0.09    0.29
  -1  10  15    0.02    0.28
   1  10 -15    0.09    0.19
   0 -10 -15    4.38    0.43
   0 -10  15    3.99    0.33
   0  10  15    4.27    0.46
   0  10  15    3.81    0.41
  -1 -10 -15    0.58    0.25
   1  10  15    0.26    0.27
   1  10  15    0.23    0.32
  -2 -10 -15    1.10    0.39
   2  10  15    0.45    0.35
   2  10  15    1.30    0.38
  -3 -11  15   -0.07    0.29
   3 -11 -15   -0.73    0.38
  -3  11  15   -0.45    0.34
  -3  11  15   -0.31    0.42
   3  11 -15   -0.32    0.32
  -3  11  15   -0.36    0.42
  -2 -11  15    0.11    0.26
   2 -11 -15    0.27    0.35
  -2  11  15    0.70    0.43
  -2  11  15    0.61    0.38
  -1 -11  15    0.18    0.25
   1 -11 -15    0.15    0.29
  -1  11  15    0.01    0.31
  -1  11  15   -0.28    0.30
   0 -11 -15   -0.02    0.25
   0 -11  15    0.03    0.23
   0  11  15    0.70    0.30
   0  11  15    0.02    0.31
  -1 -11 -15    0.62    0.27
   1  11  15    0.71    0.36
   1  11  15    0.92    0.31
  -2 -11 -15    1.01    0.40
   2  11  15    1.33    0.41
   2  11  15    1.17    0.40
   2 -12 -15   -0.22    0.36
  -2 -12  15    0.76    0.30
  -2  12  15   -0.30    0.42
  -2  12  15   -0.14    0.37
   1 -12 -15    0.36    0.31
  -1 -12  15    0.13    0.27
  -1  12  15    0.66    0.35
  -1  12  15    0.06    0.35
   0 -12 -15    1.15    0.31
   0  12  15    1.17    0.34
   0  12  15    0.54    0.36
  -1 -12 -15    0.49    0.29
   1  12  15    0.13    0.37
   1  12  15    0.96    0.34
   1 -13 -15    0.82    0.33
  -1  13  15   -0.13    0.36
  -1  13  15    0.26    0.36
   0 -13 -15    0.14    0.29
   0  13  15    0.75    0.35
   0  13  15    0.27    0.38
  -1 -13 -15    0.87    0.32
   1  13  15    1.73    0.40
   1  13  15    0.71    0.42
  -4   0  16    0.31    0.31
  -4   0  16    0.43    0.27
   4   0 -16    0.57    0.30
  -3   0  16    0.27    0.23
  -3   0  16    0.25    0.22
  -3   0  16    0.03    0.20
   3   0 -16   -0.02    0.21
  -2   0  16   20.11    1.12
  -2   0  16   18.94    1.12
   2   0 -16   19.55    1.14
  -2   0  16   18.65    0.90
  -1   0  16    0.01    0.14
  -1   0  16    0.09    0.12
  -1   0  16   -0.06    0.16
   1   0 -16    0.16    0.13
   0   0  16    7.53    0.51
   0   0 -16    8.61    0.54
   0   0  16    9.35    0.45
  -1   0 -16    0.33    0.19
   1   0  16    0.08    0.13
   1   0  16    0.05    0.09
  -2   0 -16    0.24    0.22
   4  -1 -16    0.26    0.29
  -4  -1  16    0.83    0.28
  -4  -1  16    0.92    0.33
   4   1 -16    0.22    0.29
  -4   1  16    0.58    0.32
  -4   1  16    0.49    0.28
   3  -1 -16    0.41    0.23
  -3  -1  16    0.26    0.21
  -3  -1  16    0.61    0.23
   3   1 -16    0.47    0.23
  -3   1  16    0.63    0.24
  -3   1  16    0.29    0.20
  -3   1  16    0.41    0.24
   2  -1 -16    1.65    0.24
  -2  -1  16    1.78    0.22
  -2  -1  16    1.19    0.20
  -2   1  16    1.52    0.23
  -2   1  16    1.35    0.21
   2   1 -16    1.92    0.24
  -2   1  16    1.89    0.24
   1  -1 -16   12.09    0.72
  -1  -1  16   11.49    0.72
  -1  -1  16   11.70    0.59
  -1   1  16   12.49    0.71
  -1   1  16   10.03    0.73
  -1   1  16   12.21    0.59
   1   1 -16   12.66    0.71
   0  -1  16    0.83    0.16
   0  -1 -16    1.02    0.19
   0  -1  16    1.03    0.14
   0   1  16    1.07    0.17
   0   1 -16    1.16    0.16
   0   1  16    0.79    0.18
  -1  -1 -16    1.18    0.23
   1  -1  16    1.07    0.16
   1   1  16    1.32    0.17
  -1   1 -16    1.14    0.21
   1   1  16    1.26    0.16
  -2  -1 -16    8.16    0.60
  -3  -1 -16    1.14    0.32
  -4  -2  16   -0.12    0.26
   4  -2 -16    0.30    0.29
  -4  -2  16    0.08    0.31
  -4   2  16    0.27    0.32
  -4   2  16    0.26    0.26
  -4   2  16   -0.07    0.32
   4   2 -16    0.25    0.30
   3  -2 -16    3.72    0.39
  -3  -2  16    3.08    0.30
  -3  -2  16    3.85    0.34
   3   2 -16    3.10    0.35
  -3   2  16    2.62    0.29
  -3   2  16    2.98    0.34
  -3   2  16    3.03    0.36
  -2  -2  16    9.06    0.51
   2  -2 -16    9.62    0.63
  -2  -2  16    9.86    0.59
   2   2 -16    9.09    0.61
  -2   2  16    9.10    0.62
  -2   2  16    8.91    0.62
  -2   2  16    9.16    0.51
   1  -2 -16    2.23    0.25
  -1  -2  16    2.36    0.23
  -1  -2  16    1.67    0.20
   1   2 -16    2.06    0.21
  -1   2  16    2.25    0.23
  -1   2  16    1.61    0.25
  -1   2  16    1.98    0.21
   0  -2  16   12.53    0.60
   0  -2 -16   12.21    0.76
   0   2  16   12.04    0.61
   0   2  16   12.20    0.75
   0   2  16   11.65    0.72
   0   2 -16   13.06    0.72
   1  -2  16   12.51    0.56
  -1  -2 -16   11.01    0.76
   1   2  16   11.95    0.58
   1   2  16   11.03    0.70
  -2  -2 -16    0.63    0.26
  -3  -2 -16    1.03    0.32
   4  -3 -16    0.14    0.30
  -4  -3  16   -0.13    0.30
  -4  -3  16    0.14    0.27
  -4   3  16    0.18    0.35
  -4   3  16    0.06    0.33
   4   3 -16    0.20    0.30
  -4   3  16   -0.12    0.25
  -3  -3  16    2.78    0.30
   3  -3 -16    2.55    0.35
  -3  -3  16    2.13    0.27
  -3   3  16    2.30    0.34
  -3   3  16    1.90    0.27
  -3   3  16    3.13    0.36
   3   3 -16    2.50    0.34
   2  -3 -16    0.30    0.19
  -2  -3  16   -0.05    0.15
  -2  -3  16    0.33    0.18
  -2   3  16    0.25    0.21
  -2   3  16   -0.07    0.18
   2   3 -16    0.20    0.18
  -2   3  16    0.16    0.20
  -1  -3  16   21.61    1.29
   1  -3 -16   23.13    1.35
  -1  -3  16   23.02    1.05
   1   3 -16   23.95    1.25
   1   3 -16   22.82    1.31
  -1   3  16   24.19    1.33
  -1   3  16   23.33    1.06
   0  -3  16   -0.10    0.14
   0  -3 -16    0.24    0.17
   0   3  16    0.03    0.15
   0   3 -16    0.10    0.09
   0   3  16    0.25    0.17
   0   3  16   -0.10    0.16
  -1  -3 -16    3.55    0.37
   1  -3  16    3.47    0.26
   1   3  16    3.23    0.33
   1   3  16    3.60    0.27
  -2  -3 -16    0.24    0.27
   2   3  16    0.51    0.19
  -3  -3 -16    2.83    0.40
  -4  -3 -16   -0.68    0.39
  -4  -4  16   -0.04    0.27
  -4  -4  16    0.07    0.30
   4  -4 -16    0.02    0.31
  -4   4  16    0.21    0.35
   4   4 -16    0.29    0.31
  -4   4  16    0.10    0.27
  -4   4  16   -0.16    0.34
  -3  -4  16    4.08    0.35
   3  -4 -16    5.07    0.49
  -3  -4  16    4.24    0.38
  -3   4  16    3.52    0.34
  -3   4  16    4.59    0.45
  -3   4  16    4.26    0.43
   3   4 -16    4.26    0.43
  -2  -4  16    0.45    0.18
  -2  -4  16    0.77    0.17
   2  -4 -16    0.62    0.22
  -2   4  16    0.91    0.25
  -2   4  16    0.42    0.20
  -2   4  16    1.25    0.27
   2   4 -16    0.57    0.19
  -1  -4  16    1.50    0.20
  -1  -4  16    1.33    0.17
   1  -4 -16    1.45    0.25
   1   4 -16    1.60    0.19
   1   4 -16    1.80    0.19
  -1   4  16    1.66    0.22
  -1   4  16    1.31    0.26
  -1   4  16    1.91    0.25
   0  -4 -16    0.35    0.19
   0  -4  16    0.22    0.15
   0   4  16    0.08    0.17
   0   4  16    0.30    0.18
   0   4  16   -0.04    0.17
  -1  -4 -16   11.16    0.76
   1  -4  16   11.34    0.54
   1   4  16   11.89    0.58
   1   4  16   11.77    0.70
   1   4  16    8.97    0.70
  -2  -4 -16    0.19    0.29
   2   4  16    0.11    0.18
   2   4  16    0.14    0.21
  -3  -4 -16    1.32    0.38
  -4  -5  16    1.54    0.31
   4  -5 -16    1.20    0.38
  -4  -5  16    1.47    0.35
  -4   5  16    1.54    0.41
  -4   5  16    0.77    0.30
  -4   5  16    1.04    0.39
   4   5 -16    1.24    0.35
  -3  -5  16    1.93    0.27
   3  -5 -16    1.86    0.34
  -3  -5  16    1.18    0.26
  -3   5  16    1.82    0.36
  -3   5  16    1.87    0.36
  -3   5  16    1.91    0.29
   3   5 -16    1.54    0.31
  -2  -5  16    1.91    0.22
   2  -5 -16    1.93    0.30
  -2  -5  16    1.78    0.24
  -2   5  16    2.85    0.35
   2   5 -16    2.48    0.28
  -2   5  16    2.49    0.27
  -2   5  16    2.51    0.34
  -1  -5  16    6.92    0.43
   1  -5 -16    5.73    0.55
   1   5 -16    7.38    0.47
   1   5 -16    7.73    0.47
  -1   5  16    8.12    0.46
  -1   5  16    6.55    0.56
  -1   5  16    7.77    0.55
   0  -5 -16    3.69    0.34
   0  -5  16    3.35    0.26
   0   5  16    4.29    0.39
   0   5  16    2.75    0.32
  -1  -5 -16    0.39    0.23
   1  -5  16    0.03    0.14
   1   5  16   -0.30    0.18
   1   5  16    0.28    0.20
  -2  -5 -16    1.60    0.35
   2   5  16    2.59    0.33
  -3  -5 -16    0.61    0.39
   4  -6 -16    0.50    0.36
  -4  -6  16   -0.09    0.29
  -4  -6  16    0.15    0.30
  -4   6  16   -0.29    0.29
   4   6 -16   -0.03    0.32
  -4   6  16   -0.28    0.38
  -4   6  16    0.28    0.39
  -3  -6  16    0.87    0.24
   3  -6 -16    1.11    0.33
  -3  -6  16    0.14    0.24
  -3   6  16    0.68    0.35
   3   6 -16    0.59    0.27
  -3   6  16    0.58    0.33
  -3   6  16    0.70    0.28
  -2  -6  16    5.43    0.41
   2  -6 -16    4.65    0.50
  -2  -6  16    5.27    0.39
  -2   6  16    6.00    0.55
  -2   6  16    6.22    0.45
  -2   6  16    5.90    0.52
   2   6 -16    5.40    0.45
   1  -6 -16   -0.23    0.22
  -1  -6  16    0.11    0.18
  -1   6  16   -0.13    0.22
   1   6 -16    0.23    0.15
  -1   6  16    0.41    0.26
   0  -6 -16   11.77    0.75
   0  -6  16   11.82    0.59
   0   6  16   10.95    0.75
   0   6 -16   10.71    0.68
   0   6  16   11.83    0.74
  -1  -6 -16    0.67    0.27
   1  -6  16    0.27    0.15
   1   6  16    0.57    0.24
   1   6  16    0.29    0.22
  -2  -6 -16   -0.06    0.28
   2   6  16   -0.02    0.26
  -3  -6 -16   -0.09    0.39
  -4  -7  16    1.22    0.33
  -4  -7  16    1.55    0.34
   4  -7 -16    2.14    0.46
  -4   7  16    1.40    0.35
  -4   7  16    0.63    0.44
   4   7 -16    0.87    0.36
  -4   7  16    1.60    0.46
  -3  -7  16    0.12    0.22
   3  -7 -16    0.26    0.31
  -3  -7  16   -0.12    0.24
  -3   7  16   -0.07    0.36
   3   7 -16    0.22    0.26
  -3   7  16    0.14    0.28
  -3   7  16    0.00    0.34
  -2  -7  16    1.52    0.24
   2  -7 -16    0.60    0.27
  -2  -7  16    0.82    0.16
  -2   7  16    1.09    0.35
  -2   7  16    1.16    0.26
  -2   7  16    1.21    0.32
   2   7 -16    1.08    0.23
  -1  -7  16   -0.04    0.19
   1  -7 -16   -0.25    0.23
  -1   7  16    0.61    0.26
   1   7 -16   -0.01    0.15
  -1   7  16    0.21    0.26
   0  -7 -16    5.84    0.49
   0  -7  16    5.25    0.38
   0   7 -16    5.27    0.42
   0   7  16    5.87    0.49
   0   7  16    5.16    0.51
   1  -7  16   -0.06    0.15
  -1  -7 -16    0.54    0.24
   1   7  16    0.13    0.25
   1   7  16   -0.19    0.21
  -2  -7 -16    2.22    0.39
   2   7  16    2.90    0.41
  -3  -7 -16    0.15    0.42
  -4  -8  16    0.28    0.32
   4  -8 -16    0.32    0.40
  -4  -8  16    0.21    0.31
   4   8 -16   -0.29    0.33
  -4   8  16   -0.10    0.43
  -4   8  16   -0.16    0.33
  -4   8  16   -0.26    0.43
   3  -8 -16   -0.18    0.32
  -3  -8  16    0.14    0.22
  -3  -8  16    0.48    0.26
  -3   8  16    0.05    0.29
   3   8 -16    0.20    0.28
  -3   8  16   -0.48    0.38
  -3   8  16   -0.19    0.36
  -2  -8  16    3.93    0.36
  -2   8  16    4.64    0.40
  -2   8  16    3.35    0.49
   2   8 -16    5.04    0.43
  -2   8  16    4.93    0.51
  -1  -8  16    0.17    0.21
   1  -8 -16   -0.05    0.26
  -1   8  16   -0.08    0.29
  -1   8  16   -0.13    0.26
   1   8 -16    0.08    0.17
   0  -8  16    5.01    0.39
   0  -8 -16    5.59    0.51
   0   8 -16    5.00    0.43
   0   8  16    5.55    0.50
   0   8  16    5.99    0.51
   1  -8  16    2.70    0.24
  -1  -8 -16    2.39    0.33
   1   8  16    2.41    0.35
   1   8  16    2.14    0.33
  -2  -8 -16    0.42    0.34
   2   8  16    0.20    0.31
   2   8  16   -0.49    0.29
  -3  -8 -16    1.07    0.45
  -3  -9  16    0.15    0.27
  -3  -9  16    0.57    0.23
   3  -9 -16   -0.59    0.34
  -3   9  16    0.07    0.42
  -3   9  16    1.21    0.43
   3   9 -16    0.47    0.29
  -3   9  16    0.71    0.34
   2  -9 -16   -0.72    0.27
  -2  -9  16    0.22    0.24
  -2   9  16   -0.09    0.32
  -2   9  16   -0.13    0.37
   1  -9 -16    0.45    0.28
  -1  -9  16    0.79    0.24
   1   9 -16    0.65    0.21
  -1   9  16    0.76    0.33
  -1   9  16    0.80    0.32
   0  -9 -16    0.82    0.27
   0  -9  16    0.46    0.21
   0   9  16    0.84    0.26
   0   9  16    0.92    0.32
  -1  -9 -16    0.62    0.25
   1   9  16    0.81    0.27
   1   9  16   -0.14    0.30
  -2  -9 -16    0.95    0.38
   2   9  16    0.55    0.36
   2   9  16    1.97    0.39
   3 -10 -16   -1.26    0.35
  -3 -10  16    0.36    0.29
  -3  10  16    0.68    0.48
  -3  10  16    0.24    0.42
  -3  10  16    0.51    0.36
   3  10 -16    0.21    0.31
   2 -10 -16   -0.66    0.30
  -2 -10  16    0.39    0.26
  -2  10  16   -0.30    0.33
  -2  10  16    0.13    0.42
   1 -10 -16   -0.18    0.26
  -1 -10  16    0.04    0.24
  -1  10  16    0.19    0.30
  -1  10  16   -0.13    0.31
   0 -10  16    0.53    0.23
   0 -10 -16    0.75    0.29
   0  10  16    1.13    0.29
   0  10  16    0.85    0.34
  -1 -10 -16    2.67    0.36
   1  10  16    2.76    0.42
   1  10  16    3.00    0.40
  -2 -10 -16    0.47    0.38
   2  10  16    0.22    0.36
   2  10  16    0.21    0.34
   2 -11 -16   -0.35    0.34
  -2 -11  16   -0.11    0.27
  -2  11  16   -0.07    0.37
  -2  11  16   -0.31    0.43
  -1 -11  16    2.11    0.32
   1 -11 -16    1.89    0.37
  -1  11  16    2.03    0.39
  -1  11  16    2.56    0.43
   0 -11  16    0.58    0.25
   0 -11 -16    0.28    0.28
   0  11  16    0.08    0.34
   0  11  16    0.95    0.31
  -1 -11 -16    0.78    0.29
   1  11  16    1.96    0.36
   1  11  16    0.30    0.35
  -2 -11 -16    0.26    0.39
   2  11  16    0.04    0.38
   2  11  16    0.32    0.36
  -2 -12  16    0.90    0.32
   2 -12 -16    0.71    0.40
  -2  12  16    1.13    0.43
  -2  12  16    1.77    0.50
   1 -12 -16   -0.66    0.29
  -1 -12  16    0.28    0.29
  -1  12  16    0.04    0.36
  -1  12  16    0.16    0.34
   0 -12 -16    0.62    0.30
   0  12  16    0.91    0.38
   0  12  16    1.09    0.36
  -1 -12 -16    0.33    0.30
   1  12  16    0.20    0.38
   1  12  16    1.13    0.37
   1 -13 -16    0.02    0.31
  -1  13  16    0.08    0.37
  -1  13  16   -0.28    0.36
   0 -13 -16    0.49    0.31
   0  13  16    0.55    0.36
   0  13  16    0.60    0.41
  -4   0  17   -0.27    0.27
   4   0 -17    0.06    0.30
  -4   0  17   -0.13    0.32
   3   0 -17    0.84    0.26
  -3   0  17    0.70    0.23
  -3   0  17    1.01    0.26
  -2   0  17    0.17    0.20
  -2   0  17    0.07    0.17
   2   0 -17    0.16    0.18
  -2   0  17    0.05    0.17
   1   0 -17   18.14    0.94
  -1   0  17   13.10    0.93
  -1   0  17   16.39    0.76
   0   0  17   -0.04    0.15
   0   0 -17    0.07    0.15
   0   0  17   -0.16    0.13
   1   0  17   17.30    0.80
   1   0  17   16.93    0.96
  -1   0 -17   17.34    1.04
  -2   0 -17    0.01    0.24
  -4  -1  17    0.05    0.32
   4  -1 -17    0.06    0.30
  -4  -1  17   -0.17    0.27
   4   1 -17    0.16    0.31
  -4   1  17   -0.31    0.33
  -4   1  17    0.16    0.28
  -3  -1  17    2.22    0.29
  -3  -1  17    2.42    0.32
   3  -1 -17    2.71    0.36
  -3   1  17    2.64    0.33
  -3   1  17    3.13    0.34
   3   1 -17    2.93    0.36
  -3   1  17    2.42    0.28
  -2  -1  17    0.33    0.18
  -2  -1  17    0.62    0.20
   2  -1 -17    0.55    0.21
   2   1 -17    0.50    0.20
  -2   1  17    0.40    0.19
  -2   1  17    0.38    0.19
  -2   1  17    0.73    0.22
  -1  -1  17    0.55    0.19
   1  -1 -17    0.67    0.17
  -1  -1  17    0.76    0.17
   1   1 -17    0.91    0.16
  -1   1  17    0.42    0.18
  -1   1  17    0.30    0.19
  -1   1  17    0.65    0.17
   0  -1  17    1.77    0.17
   0  -1  17    1.93    0.21
   0  -1 -17    2.20    0.24
   0   1 -17    2.51    0.22
   0   1  17    1.51    0.21
   0   1  17    2.03    0.21
   1  -1  17    3.84    0.29
  -1  -1 -17    4.31    0.42
   1   1  17    3.90    0.30
   1   1  17    3.81    0.30
  -1   1 -17    3.84    0.38
  -2  -1 -17    0.63    0.27
  -3  -1 -17    4.26    0.45
  -4  -2  17    0.72    0.29
   4  -2 -17    0.55    0.31
  -4  -2  17    0.77    0.33
   4   2 -17    0.27    0.32
  -4   2  17    0.80    0.34
  -4   2  17    0.73    0.36
  -4   2  17    0.58    0.28
  -3  -2  17    0.27    0.23
   3  -2 -17    0.44    0.24
  -3  -2  17    0.18    0.23
  -3   2  17    0.25    0.26
   3   2 -17    0.44    0.25
  -3   2  17    0.15    0.22
  -3   2  17    0.25    0.28
   2  -2 -17    5.42    0.47
  -2  -2  17    5.52    0.39
  -2  -2  17    5.63    0.43
  -2   2  17    5.71    0.48
  -2   2  17    5.95    0.40
  -2   2  17    5.41    0.46
   2   2 -17    5.54    0.44
  -1  -2  17    3.50    0.34
  -1  -2  17    4.16    0.32
   1  -2 -17    4.48    0.38
   1   2 -17    4.30    0.33
  -1   2  17    4.49    0.36
  -1   2  17    3.92    0.40
  -1   2  17    4.30    0.33
   0  -2 -17    1.29    0.22
   0  -2  17    1.10    0.18
   0   2  17    0.83    0.20
   0   2 -17    1.28    0.17
   0   2  17    1.13    0.19
   1  -2  17    4.57    0.32
  -1  -2 -17    4.95    0.47
   1   2  17    4.38    0.34
   1   2  17    4.95    0.37
  -2  -2 -17    4.94    0.47
  -3  -2 -17   -0.50    0.30
  -4  -3  17    0.09    0.31
  -4  -3  17   -0.01    0.28
   4  -3 -17    0.43    0.32
  -4   3  17   -0.08    0.33
  -4   3  17    0.25    0.36
  -4   3  17    0.24    0.28
   4   3 -17    0.08    0.32
  -3  -3  17    0.93    0.25
  -3  -3  17    0.87    0.24
   3  -3 -17    0.58    0.27
  -3   3  17    0.65    0.31
  -3   3  17    0.71    0.29
   3   3 -17    0.61    0.27
  -3   3  17    0.56    0.24
  -2  -3  17    2.14    0.25
  -2  -3  17    1.69    0.24
   2  -3 -17    2.58    0.31
  -2   3  17    2.64    0.31
  -2   3  17    2.02    0.25
  -2   3  17    2.42    0.32
   2   3 -17    2.33    0.29
  -1  -3  17    0.93    0.17
   1  -3 -17    0.77    0.21
  -1  -3  17    0.90    0.19
  -1   3  17    0.86    0.19
   1   3 -17    1.00    0.17
  -1   3  17    1.12    0.21
  -1   3  17    0.74    0.24
   1   3 -17    1.07    0.16
   0  -3  17    7.69    0.43
   0  -3 -17    6.80    0.54
   0   3  17    8.00    0.53
   0   3  17    7.63    0.45
   0   3  17    7.42    0.51
   1  -3  17    0.01    0.14
  -1  -3 -17    0.13    0.23
   1   3  17    0.07    0.17
   1   3  17   -0.14    0.16
  -2  -3 -17    0.82    0.30
   2   3  17    1.28    0.22
  -3  -3 -17   -0.14    0.32
   4  -4 -17    0.90    0.35
  -4  -4  17    0.44    0.32
  -4  -4  17    0.25    0.29
  -4   4  17    0.24    0.29
  -4   4  17    0.42    0.36
  -4   4  17    0.68    0.38
   4   4 -17    0.30    0.33
  -3  -4  17    0.31    0.23
   3  -4 -17    0.74    0.28
  -3  -4  17    0.33    0.24
  -3   4  17    0.45    0.30
  -3   4  17    0.37    0.31
  -3   4  17    0.19    0.25
   3   4 -17    0.21    0.25
  -2  -4  17    1.63    0.22
  -2  -4  17    1.33    0.22
   2  -4 -17    1.77    0.29
  -2   4  17    2.37    0.31
  -2   4  17    1.92    0.25
  -2   4  17    1.83    0.32
   2   4 -17    1.83    0.26
   1  -4 -17    4.41    0.47
  -1  -4  17    6.29    0.38
   1   4 -17    6.11    0.39
  -1   4  17    5.73    0.47
  -1   4  17    6.08    0.40
   1   4 -17    5.66    0.40
  -1   4  17    4.65    0.48
   0  -4 -17    0.21    0.20
   0  -4  17    0.08    0.16
   0   4  17    0.25    0.19
   0   4  17    0.55    0.20
   0   4  17   -0.07    0.18
   1  -4  17    1.65    0.19
  -1  -4 -17    2.03    0.31
   1   4  17    1.69    0.23
   1   4  17    1.09    0.24
  -2  -4 -17    7.03    0.68
   2   4  17    9.36    0.62
  -3  -4 -17    0.22    0.37
  -4  -5  17    0.33    0.30
  -4  -5  17   -0.06    0.29
   4  -5 -17    0.41    0.35
  -4   5  17    0.03    0.30
   4   5 -17    0.24    0.33
  -4   5  17    0.12    0.37
  -4   5  17    0.21    0.40
  -3  -5  17    1.11    0.27
  -3  -5  17    1.50    0.27
   3  -5 -17    1.04    0.32
  -3   5  17    1.52    0.30
  -3   5  17    1.45    0.36
   3   5 -17    1.38    0.31
  -3   5  17    1.98    0.38
   2  -5 -17    1.67    0.31
  -2  -5  17    2.04    0.26
  -2  -5  17    2.06    0.23
  -2   5  17    2.92    0.35
  -2   5  17    2.00    0.28
   2   5 -17    2.11    0.27
  -2   5  17    2.17    0.36
  -1  -5  17    0.84    0.20
   1  -5 -17    0.46    0.24
   1   5 -17    0.71    0.18
  -1   5  17    0.96    0.26
  -1   5  17    0.72    0.27
  -1   5  17    0.60    0.21
   1   5 -17    0.71    0.17
   0  -5  17    8.82    0.48
   0  -5 -17    9.01    0.63
   0   5  17    7.96    0.61
   0   5  17    8.63    0.52
   0   5  17    9.64    0.62
  -1  -5 -17    4.38    0.41
   1  -5  17    3.76    0.29
   1   5  17    2.43    0.34
  -2  -5 -17    0.03    0.29
   2   5  17    0.25    0.25
  -3  -5 -17    1.99    0.46
  -4  -6  17   -0.01    0.30
  -4  -6  17    0.24    0.30
   4  -6 -17    0.20    0.36
  -4   6  17   -0.05    0.31
   4   6 -17   -0.26    0.32
  -4   6  17   -0.37    0.40
  -4   6  17    0.10    0.39
  -3  -6  17    0.56    0.23
  -3  -6  17    0.60    0.27
   3  -6 -17    0.95    0.34
  -3   6  17    0.60    0.30
   3   6 -17    0.80    0.28
  -3   6  17    0.72    0.35
  -3   6  17    0.67    0.38
  -2  -6  17   -0.12    0.20
  -2  -6  17   -0.17    0.15
   2  -6 -17   -0.28    0.23
   2   6 -17    0.20    0.20
  -2   6  17    0.15    0.28
  -2   6  17   -0.10    0.23
  -2   6  17   -0.04    0.31
  -1  -6  17    3.74    0.31
   1  -6 -17    3.80    0.41
  -1   6  17    4.01    0.40
  -1   6  17    3.61    0.41
  -1   6  17    3.74    0.33
   1   6 -17    3.98    0.34
   0  -6 -17    0.02    0.22
   0  -6  17    0.00    0.18
   0   6  17    0.53    0.22
   0   6  17    0.01    0.23
   0   6 -17    0.06    0.16
  -1  -6 -17    3.83    0.40
   1  -6  17    3.52    0.27
   1   6  17    3.19    0.37
   1   6  17    4.31    0.39
  -2  -6 -17    0.46    0.32
   2   6  17    1.64    0.34
  -3  -6 -17    0.12    0.41
  -4  -7  17    0.24    0.31
  -4  -7  17    0.24    0.31
   4  -7 -17    0.82    0.42
   4   7 -17   -0.03    0.34
  -4   7  17   -0.09    0.42
  -4   7  17    0.28    0.34
  -4   7  17   -0.22    0.44
  -3  -7  17    3.31    0.33
  -3  -7  17    2.79    0.34
   3  -7 -17    2.38    0.44
  -3   7  17    2.83    0.48
  -3   7  17    3.60    0.48
   3   7 -17    2.70    0.39
  -3   7  17    3.54    0.39
  -2  -7  17    0.12    0.22
   2  -7 -17   -0.79    0.23
  -2   7  17    0.02    0.26
  -2   7  17    0.24    0.31
  -2   7  17   -0.35    0.32
   2   7 -17    0.23    0.21
   1  -7 -17    0.14    0.26
  -1  -7  17    0.65    0.21
  -1   7  17    0.30    0.30
   1   7 -17    0.33    0.17
  -1   7  17    0.33    0.27
   0  -7  17    0.38    0.19
   0  -7 -17    0.50    0.24
   0   7  17    0.82    0.24
   0   7  17    0.67    0.27
   0   7 -17    0.50    0.18
  -1  -7 -17    2.77    0.36
   1   7  17    3.20    0.38
   1   7  17    2.97    0.36
  -2  -7 -17   -0.14    0.32
   2   7  17   -0.51    0.29
  -3  -7 -17    1.90    0.49
  -3  -8  17   -0.31    0.26
  -3  -8  17    0.31    0.23
   3  -8 -17   -0.67    0.32
  -3   8  17   -0.40    0.37
   3   8 -17   -0.02    0.28
  -3   8  17    0.23    0.42
  -3   8  17    0.17    0.32
   2  -8 -17   -0.60    0.26
  -2  -8  17   -0.16    0.23
  -2   8  17    0.15    0.28
  -2   8  17   -0.28    0.35
  -2   8  17    0.29    0.33
   1  -8 -17    0.47    0.28
  -1  -8  17    0.26    0.23
  -1   8  17    0.79    0.34
  -1   8  17    0.57    0.30
   1   8 -17    0.44    0.19
   0  -8  17   -0.01    0.19
   0  -8 -17    0.10    0.25
   0   8  17    0.11    0.24
   0   8 -17    0.02    0.18
   0   8  17    0.29    0.29
  -1  -8 -17    0.73    0.28
   1   8  17    1.20    0.28
   1   8  17    0.73    0.30
  -2  -8 -17    0.24    0.35
   2   8  17   -0.30    0.31
   3  -9 -17   -1.00    0.35
  -3  -9  17    0.06    0.28
   3   9 -17    0.01    0.30
  -3   9  17    0.00    0.45
  -3   9  17   -0.15    0.33
  -3   9  17   -0.20    0.40
  -2  -9  17    2.05    0.30
   2  -9 -17    1.04    0.36
  -2   9  17    1.54    0.40
  -2   9  17    1.14    0.44
  -2   9  17    2.52    0.36
   1  -9 -17    0.14    0.27
  -1  -9  17   -0.12    0.23
  -1   9  17    0.09    0.29
  -1   9  17   -0.02    0.31
   1   9 -17   -0.14    0.19
   0  -9 -17    3.72    0.40
   0  -9  17    3.62    0.32
   0   9  17    3.08    0.37
   0   9  17    3.73    0.44
  -1  -9 -17    0.13    0.26
   1   9  17    0.14    0.31
   1   9  17    0.82    0.28
  -2  -9 -17    0.96    0.40
   2   9  17   -0.70    0.32
  -3 -10  17   -0.36    0.29
  -3  10  17   -0.08    0.44
   3  10 -17    0.16    0.31
  -3  10  17   -0.07    0.36
  -3  10  17   -0.23    0.45
  -2 -10  17    0.17    0.27
   2 -10 -17   -0.04    0.35
  -2  10  17    0.22    0.44
  -2  10  17    0.18    0.37
  -1 -10  17    0.42    0.27
   1 -10 -17    0.37    0.29
  -1  10  17    0.42    0.31
  -1  10  17    0.55    0.36
   0 -10  17    0.24    0.24
   0 -10 -17   -0.04    0.27
   0  10  17    0.42    0.28
   0  10  17    0.11    0.33
  -1 -10 -17    0.41    0.29
   1  10  17    0.56    0.34
   1  10  17    0.67    0.30
  -2 -10 -17    1.05    0.42
   2  10  17    1.01    0.39
  -2 -11  17    0.60    0.31
   2 -11 -17    0.30    0.38
  -2  11  17    0.70    0.42
  -2  11  17    1.19    0.49
   1 -11 -17    0.17    0.29
  -1 -11  17    0.22    0.28
  -1  11  17    0.00    0.36
  -1  11  17    0.64    0.35
   0 -11  17    0.18    0.26
   0 -11 -17    0.73    0.31
   0  11  17    0.60    0.31
   0  11  17    0.15    0.36
  -1 -11 -17    0.48    0.30
   1  11  17    0.35    0.37
   1  11  17    1.07    0.34
   1 -12 -17    0.92    0.34
  -1 -12  17    0.96    0.32
  -1  12  17    1.17    0.38
  -1  12  17    1.08    0.41
   0 -12 -17    0.07    0.30
   0  12  17    0.30    0.33
   0  12  17   -0.08    0.37
  -1 -12 -17    0.88    0.34
   1  12  17    1.12    0.41
   1  12  17    1.14    0.37
  -4   0  18    1.77    0.33
  -4   0  18    1.75    0.39
   4   0 -18    1.82    0.39
  -3   0  18    0.09    0.26
   3   0 -18    0.04    0.24
  -3   0  18   -0.22    0.22
  -2   0  18    1.74    0.26
  -2   0  18    1.19    0.22
   2   0 -18    1.46    0.25
   1   0 -18   -0.12    0.15
  -1   0  18   -0.21    0.16
  -1   0  18    0.23    0.19
   0   0  18   14.83    0.71
   0   0 -18   15.36    0.88
   0   0  18   13.92    0.84
   1   0  18   -0.05    0.16
  -1   0 -18   -0.25    0.20
  -4  -1  18    0.31    0.34
   4  -1 -18    0.52    0.32
  -4  -1  18    0.12    0.28
  -4   1  18    0.28    0.29
  -4   1  18    0.00    0.36
   4   1 -18    0.20    0.33
   3  -1 -18   -0.08    0.25
  -3  -1  18    0.11    0.24
  -3  -1  18   -0.07    0.25
  -3   1  18    0.48    0.28
  -3   1  18    0.09    0.25
   3   1 -18   -0.16    0.24
  -3   1  18   -0.35    0.22
  -2  -1  18    6.96    0.45
   2  -1 -18    7.07    0.55
  -2  -1  18    7.41    0.53
  -2   1  18    7.20    0.52
  -2   1  18    6.49    0.45
   2   1 -18    7.55    0.54
  -2   1  18    7.17    0.55
   1  -1 -18    1.18    0.21
  -1  -1  18    0.94    0.21
  -1  -1  18    0.88    0.19
   1   1 -18    1.26    0.19
  -1   1  18    0.88    0.20
  -1   1  18    0.54    0.22
   0  -1  18   -0.05    0.11
   0  -1  18    0.12    0.16
   0  -1 -18   -0.01    0.18
   0   1  18   -0.22    0.17
   0   1 -18    0.07    0.15
   0   1  18   -0.24    0.15
  -1  -1 -18    4.06    0.37
   1  -1  18    3.35    0.27
   1   1  18    3.79    0.28
   1   1  18    3.49    0.29
  -2  -1 -18    4.74    0.45
   4  -2 -18    0.90    0.35
  -4  -2  18    0.35    0.29
  -4  -2  18    0.34    0.34
  -4   2  18    0.83    0.38
  -4   2  18    0.73    0.35
   4   2 -18    0.43    0.33
  -4   2  18    0.67    0.30
  -3  -2  18    3.08    0.34
   3  -2 -18    2.52    0.36
  -3  -2  18    2.50    0.31
  -3   2  18    2.84    0.39
  -3   2  18    2.90    0.37
   3   2 -18    3.00    0.38
  -3   2  18    2.21    0.31
  -2  -2  18    0.09    0.20
   2  -2 -18    0.38    0.22
  -2  -2  18    0.46    0.20
  -2   2  18    0.35    0.21
   2   2 -18    0.93    0.21
  -2   2  18    0.66    0.26
  -2   2  18    0.79    0.23
  -1  -2  18    0.99    0.19
   1  -2 -18    0.93    0.22
  -1  -2  18    1.05    0.20
  -1   2  18    0.81    0.20
   1   2 -18    0.72    0.17
  -1   2  18    0.66    0.25
   0  -2  18    6.22    0.40
   0  -2 -18    5.82    0.49
   0   2  18    7.13    0.43
   0   2  18    6.23    0.48
   0   2 -18    6.81    0.44
  -1  -2 -18    0.53    0.24
   1  -2  18    0.25    0.16
   1   2  18    0.20    0.18
   1   2  18    0.35    0.16
  -2  -2 -18    1.56    0.32
  -3  -2 -18    1.33    0.38
  -4  -3  18    0.44    0.33
  -4  -3  18   -0.29    0.29
   4  -3 -18    0.08    0.33
  -4   3  18   -0.02    0.34
  -4   3  18   -0.14    0.29
  -4   3  18    0.18    0.38
   4   3 -18    0.03    0.33
  -3  -3  18    0.16    0.23
   3  -3 -18    0.01    0.27
  -3  -3  18    0.27    0.24
   3   3 -18   -0.05    0.24
  -3   3  18    0.21    0.32
  -3   3  18   -0.07    0.24
  -3   3  18    0.40    0.28
  -2  -3  18    0.13    0.20
   2  -3 -18   -0.06    0.22
  -2  -3  18   -0.02    0.19
  -2   3  18    0.11    0.23
  -2   3  18    0.12    0.26
   2   3 -18    0.08    0.19
  -2   3  18   -0.02    0.20
  -1  -3  18    4.01    0.34
   1  -3 -18    3.83    0.37
  -1  -3  18    3.73    0.31
  -1   3  18    4.32    0.39
   1   3 -18    4.20    0.31
  -1   3  18    3.91    0.40
  -1   3  18    4.08    0.32
   1   3 -18    4.08    0.34
   0  -3  18    0.41    0.18
   0  -3 -18    0.47    0.23
   0   3  18    0.33    0.20
   0   3  18    0.92    0.21
  -1  -3 -18    9.53    0.67
   1  -3  18    9.52    0.49
   1   3  18    8.53    0.60
   1   3  18    9.02    0.51
  -2  -3 -18   -0.27    0.25
   2   3  18    0.28    0.20
  -3  -3 -18    0.52    0.37
   4  -4 -18    0.15    0.34
  -4  -4  18   -0.04    0.29
  -4  -4  18    0.41    0.32
  -4   4  18    0.52    0.42
  -4   4  18    0.16    0.36
   4   4 -18    0.17    0.33
  -4   4  18   -0.39    0.29
  -3  -4  18    3.91    0.37
   3  -4 -18    3.97    0.47
  -3  -4  18    3.27    0.35
  -3   4  18    3.24    0.44
  -3   4  18    4.15    0.47
   3   4 -18    4.26    0.44
  -3   4  18    3.50    0.36
  -2  -4  18   -0.12    0.17
   2  -4 -18   -0.04    0.23
  -2  -4  18    0.18    0.20
  -2   4  18    0.12    0.26
  -2   4  18    0.30    0.29
  -2   4  18    0.23    0.22
   2   4 -18    0.01    0.20
  -1  -4  18    2.70    0.26
   1  -4 -18    2.08    0.32
  -1   4  18    2.56    0.28
  -1   4  18    2.89    0.31
  -1   4  18    2.78    0.35
   1   4 -18    2.52    0.24
   1   4 -18    2.95    0.29
   0  -4  18    1.01    0.21
   0  -4 -18    1.68    0.27
   0   4  18    1.31    0.24
   0   4  18    1.77    0.26
   1  -4  18    0.51    0.17
  -1  -4 -18    0.41    0.25
   1   4  18    0.38    0.22
   1   4  18    0.90    0.23
  -2  -4 -18    0.18    0.27
   2   4  18    0.26    0.23
  -3  -4 -18    1.62    0.44
  -4  -5  18    0.32    0.31
   4  -5 -18    0.22    0.36
  -4  -5  18    0.25    0.32
  -4   5  18    0.68    0.44
  -4   5  18    0.39    0.40
  -4   5  18   -0.38    0.30
   4   5 -18    0.40    0.35
   3  -5 -18    0.19    0.30
  -3  -5  18   -0.16    0.25
  -3  -5  18   -0.08    0.23
  -3   5  18    0.15    0.36
  -3   5  18   -0.49    0.27
  -3   5  18    0.14    0.32
   3   5 -18   -0.18    0.25
  -2  -5  18    0.96    0.25
  -2  -5  18    1.82    0.23
   2  -5 -18    1.45    0.32
  -2   5  18    1.16    0.26
  -2   5  18    1.78    0.34
   2   5 -18    1.80    0.27
  -2   5  18    1.88    0.37
   1  -5 -18    3.03    0.37
  -1  -5  18    3.37    0.29
  -1   5  18    3.54    0.37
  -1   5  18    3.00    0.37
   1   5 -18    3.19    0.29
  -1   5  18    3.10    0.31
   0  -5 -18    0.59    0.24
   0  -5  18    0.41    0.19
   0   5  18    0.68    0.23
   0   5  18    0.55    0.23
   0   5  18    0.71    0.24
  -1  -5 -18    5.20    0.51
   1  -5  18    5.01    0.35
   1   5  18    5.62    0.39
   1   5  18    3.99    0.42
  -2  -5 -18    0.61    0.32
   2   5  18    1.23    0.30
  -3  -5 -18    0.33    0.41
  -4  -6  18    0.76    0.33
  -4  -6  18    0.47    0.32
   4  -6 -18    0.42    0.40
  -4   6  18    1.07    0.43
   4   6 -18    0.44    0.36
  -4   6  18    0.09    0.33
  -4   6  18    0.09    0.45
  -3  -6  18    0.44    0.27
   3  -6 -18    0.61    0.35
  -3  -6  18    0.60    0.24
   3   6 -18    0.22    0.27
  -3   6  18    0.62    0.31
  -3   6  18    0.55    0.40
  -3   6  18    0.85    0.36
   2  -6 -18    0.42    0.28
  -2  -6  18    0.39    0.23
  -2   6  18    0.78    0.32
  -2   6  18    0.42    0.35
  -2   6  18    1.16    0.27
   2   6 -18    1.21    0.24
  -1  -6  18    0.13    0.21
   1  -6 -18   -0.16    0.24
  -1   6  18    0.12    0.29
   1   6 -18    0.16    0.17
  -1   6  18    0.09    0.27
  -1   6  18   -0.10    0.23
   0  -6 -18    3.41    0.38
   0  -6  18    3.33    0.29
   0   6  18    3.33    0.33
   0   6 -18    3.40    0.32
   0   6  18    3.20    0.36
   0   6  18    3.28    0.37
  -1  -6 -18    0.28    0.26
   1   6  18   -0.16    0.23
  -2  -6 -18    1.01    0.37
   2   6  18    1.38    0.34
  -3  -6 -18    0.65    0.43
  -3  -7  18    0.38    0.28
   3  -7 -18   -0.05    0.34
  -3  -7  18    0.19    0.23
   3   7 -18    0.32    0.29
  -3   7  18    0.81    0.45
  -3   7  18    0.63    0.39
  -3   7  18    0.58    0.33
  -2  -7  18    1.29    0.27
   2  -7 -18    0.43    0.31
  -2   7  18    0.87    0.35
   2   7 -18    1.37    0.28
  -2   7  18    0.95    0.30
  -2   7  18    0.48    0.38
   1  -7 -18    0.16    0.28
  -1  -7  18    0.31    0.22
  -1   7  18    0.18    0.24
  -1   7  18    0.66    0.32
   1   7 -18    0.11    0.17
  -1   7  18    0.12    0.29
   0  -7 -18    0.02    0.26
   0  -7  18    0.21    0.20
   0   7  18    0.47    0.24
   0   7  18    0.51    0.28
   0   7 -18    0.10    0.18
  -1  -7 -18    0.42    0.27
   1   7  18    0.05    0.24
  -2  -7 -18    1.08    0.38
   2   7  18    0.64    0.34
   3  -8 -18   -0.33    0.35
  -3  -8  18    0.36    0.29
   3   8 -18    0.61    0.31
  -3   8  18    0.16    0.45
  -3   8  18    0.50    0.42
  -3   8  18    0.03    0.34
   2  -8 -18    0.54    0.33
  -2  -8  18    0.97    0.27
  -2   8  18    1.29    0.39
  -2   8  18    0.66    0.44
  -2   8  18    1.10    0.32
   1  -8 -18    2.46    0.37
  -1  -8  18    2.66    0.31
  -1   8  18    2.38    0.40
   1   8 -18    2.60    0.30
  -1   8  18    2.68    0.37
   0  -8 -18    3.83    0.40
   0  -8  18    3.26    0.30
   0   8  18    2.91    0.36
   0   8  18    3.08    0.41
  -1  -8 -18    0.47    0.28
   1   8  18    0.37    0.30
   1   8  18    0.42    0.27
  -2  -8 -18    0.24    0.37
   2   8  18   -0.20    0.33
   3  -9 -18   -1.03    0.37
  -3  -9  18   -0.02    0.29
  -3   9  18    0.12    0.36
  -3   9  18    0.18    0.48
   3   9 -18   -0.02    0.30
  -3   9  18    0.16    0.42
   2  -9 -18   -0.48    0.31
  -2  -9  18    0.54    0.27
  -2   9  18   -0.15    0.36
  -2   9  18   -0.04    0.43
  -2   9  18    0.53    0.32
  -1  -9  18    1.37    0.28
   1  -9 -18    1.01    0.32
  -1   9  18    1.34    0.37
  -1   9  18    1.28    0.33
   0  -9  18    0.40    0.24
   0  -9 -18    0.54    0.29
   0   9  18    0.52    0.27
   0   9  18    0.55    0.33
  -1  -9 -18    0.72    0.31
   1   9  18    1.01    0.35
   1   9  18    1.46    0.33
  -2  -9 -18    0.29    0.39
   2   9  18   -0.31    0.34
   2 -10 -18    0.29    0.37
  -2 -10  18    0.35    0.30
  -2  10  18    1.11    0.36
  -2  10  18    0.83    0.41
  -2  10  18    0.02    0.47
   1 -10 -18    1.30    0.34
  -1 -10  18    1.28    0.30
  -1  10  18    0.95    0.38
  -1  10  18    1.10    0.35
   0 -10 -18   -0.13    0.29
   0 -10  18   -0.04    0.24
   0  10  18   -0.27    0.33
   0  10  18    0.33    0.29
  -1 -10 -18    0.48    0.31
   1  10  18    0.77    0.32
   1  10  18    0.19    0.35
   2 -11 -18    0.07    0.37
  -2 -11  18   -0.13    0.31
  -2  11  18   -0.07    0.47
  -2  11  18   -0.47    0.39
  -1 -11  18    0.46    0.30
   1 -11 -18    0.94    0.33
  -1  11  18    0.81    0.40
  -1  11  18    0.74    0.35
   0 -11  18    0.00    0.26
   0 -11 -18    0.33    0.31
   0  11  18    0.44    0.31
   0  11  18    0.22    0.37
  -1 -11 -18    1.10    0.35
   1  11  18    1.81    0.38
   1  11  18    1.41    0.40
   1 -12 -18   -0.07    0.31
  -1 -12  18    0.56    0.32
  -1  12  18    0.41    0.38
  -1  12  18   -0.31    0.38
   0 -12  18    0.44    0.29
   0 -12 -18    0.01    0.31
   0  12  18    0.30    0.34
   0  12  18    0.34    0.39
  -4   0  19   -0.20    0.36
  -4   0  19   -0.26    0.29
   4   0 -19   -0.11    0.33
  -3   0  19    3.66    0.35
  -3   0  19    4.14    0.43
   3   0 -19    3.87    0.45
  -2   0  19   -0.11    0.19
   2   0 -19    0.18    0.21
  -2   0  19    0.17    0.23
  -1   0  19    0.97    0.21
   1   0 -19    1.02    0.21
  -1   0  19    1.07    0.25
   0   0  19    0.10    0.18
   0   0 -19   -0.02    0.18
   0   0  19   -0.09    0.14
  -1   0 -19    5.14    0.47
   1   0  19    5.69    0.37
  -4  -1  19    0.08    0.36
   4  -1 -19   -0.07    0.33
  -4  -1  19    0.29    0.30
   4   1 -19    0.21    0.34
  -4   1  19    0.11    0.38
  -4   1  19    0.33    0.31
  -3  -1  19    1.83    0.33
  -3  -1  19    1.68    0.30
   3  -1 -19    1.64    0.34
  -3   1  19    1.96    0.35
   3   1 -19    2.40    0.36
  -3   1  19    1.69    0.29
   2  -1 -19   -0.07    0.21
  -2  -1  19    0.17    0.22
  -2  -1  19   -0.19    0.20
  -2   1  19    0.30    0.21
   2   1 -19    0.21    0.21
  -2   1  19    0.03    0.25
   1  -1 -19    6.54    0.51
  -1  -1  19    6.38    0.50
  -1  -1  19    7.66    0.44
   1   1 -19    6.57    0.49
  -1   1  19    6.65    0.45
  -1   1  19    7.33    0.54
   0  -1 -19    0.74    0.22
   0  -1  19    0.93    0.20
   0   1 -19    0.96    0.19
   0   1  19    0.67    0.19
   0   1  19    0.86    0.22
  -1  -1 -19    0.91    0.25
   1  -1  19    0.98    0.20
   1   1  19    0.89    0.17
   1   1  19    1.57    0.22
  -2  -1 -19    1.56    0.30
  -4  -2  19   -0.33    0.34
  -4  -2  19   -0.07    0.30
   4  -2 -19    0.04    0.33
  -4   2  19    0.14    0.30
  -4   2  19    0.01    0.34
  -4   2  19   -0.19    0.38
   4   2 -19   -0.15    0.33
   3  -2 -19    1.02    0.30
  -3  -2  19    0.24    0.26
  -3  -2  19    1.03    0.29
  -3   2  19    0.94    0.28
  -3   2  19    0.64    0.33
   3   2 -19    0.45    0.28
  -3   2  19    1.20    0.30
  -2  -2  19    8.70    0.54
  -2  -2  19    8.76    0.60
   2  -2 -19    8.47    0.65
   2   2 -19    8.69    0.62
  -2   2  19    8.61    0.52
  -2   2  19    9.11    0.68
  -1  -2  19    0.49    0.21
   1  -2 -19    0.98    0.23
  -1  -2  19    1.12    0.21
  -1   2  19    1.55    0.23
  -1   2  19    0.79    0.26
   1   2 -19    1.28    0.20
   0  -2  19    9.66    0.52
   0  -2 -19    9.63    0.64
   0   2  19    9.10    0.52
   0   2  19    7.89    0.60
   1  -2  19    3.13    0.28
  -1  -2 -19    4.12    0.39
   1   2  19    3.83    0.35
   1   2  19    4.18    0.31
  -2  -2 -19    0.84    0.27
  -4  -3  19    1.01    0.33
  -4  -3  19    1.25    0.37
   4  -3 -19    1.45    0.41
  -4   3  19    1.22    0.45
   4   3 -19    0.89    0.37
  -4   3  19    0.78    0.33
  -4   3  19    0.91    0.38
  -3  -3  19    0.03    0.26
  -3  -3  19   -0.06    0.25
   3  -3 -19    0.52    0.31
  -3   3  19    0.23    0.26
   3   3 -19    0.33    0.28
  -3   3  19    0.43    0.29
  -3   3  19    0.13    0.35
  -2  -3  19   -0.02    0.19
  -2  -3  19   -0.12    0.21
   2  -3 -19    0.13    0.23
  -2   3  19    0.32    0.29
   2   3 -19    0.24    0.22
  -2   3  19    0.33    0.23
  -2   3  19    0.41    0.25
   1  -3 -19    2.35    0.32
  -1  -3  19    2.78    0.28
  -1   3  19    2.46    0.28
  -1   3  19    2.55    0.34
   1   3 -19    2.53    0.26
   0  -3 -19    2.91    0.33
   0  -3  19    2.85    0.27
   0   3  19    2.81    0.31
   0   3  19    2.56    0.29
   1  -3  19    0.19    0.17
  -1  -3 -19    0.08    0.24
   1   3  19   -0.31    0.18
   1   3  19   -0.19    0.20
  -2  -3 -19    2.95    0.39
  -3  -3 -19    0.87    0.39
   4  -4 -19   -0.10    0.35
  -4  -4  19   -0.03    0.33
  -4  -4  19    0.02    0.31
  -4   4  19   -0.27    0.31
  -4   4  19    0.17    0.37
  -4   4  19    0.18    0.43
   4   4 -19   -0.34    0.33
  -3  -4  19    1.20    0.29
  -3  -4  19    1.10    0.28
   3  -4 -19    1.51    0.36
  -3   4  19    1.17    0.30
  -3   4  19    1.41    0.40
  -3   4  19    1.24    0.35
   3   4 -19    1.08    0.32
  -2  -4  19    4.70    0.42
   2  -4 -19    4.64    0.48
  -2  -4  19    4.34    0.36
  -2   4  19    4.76    0.49
  -2   4  19    5.27    0.39
  -2   4  19    5.59    0.52
   2   4 -19    5.39    0.46
   1  -4 -19    0.08    0.23
  -1  -4  19    0.54    0.21
  -1   4  19    0.23    0.23
  -1   4  19    0.27    0.26
  -1   4  19    0.55    0.23
   0  -4  19    4.58    0.37
   0  -4 -19    4.91    0.48
   0   4  19    4.57    0.37
   0   4  19    5.84    0.47
  -1  -4 -19    0.37    0.26
   1  -4  19    0.09    0.19
   1   4  19   -0.19    0.21
   1   4  19    0.45    0.23
  -2  -4 -19    0.31    0.30
   2   4  19    0.10    0.24
  -3  -4 -19    0.73    0.40
  -3  -5  19   -0.10    0.24
  -3  -5  19    0.45    0.27
   3  -5 -19    0.01    0.32
  -3   5  19    0.13    0.33
  -3   5  19    0.31    0.39
   3   5 -19    0.18    0.28
  -3   5  19    0.13    0.29
  -2  -5  19    0.19    0.23
   2  -5 -19    0.21    0.28
  -2   5  19    0.36    0.34
  -2   5  19    0.44    0.30
  -2   5  19    0.08    0.25
   2   5 -19    0.58    0.23
   1  -5 -19    2.21    0.34
  -1  -5  19    2.10    0.27
  -1   5  19    2.18    0.35
  -1   5  19    2.13    0.29
  -1   5  19    2.08    0.33
   0  -5 -19    1.59    0.30
   0  -5  19    1.29    0.22
   0   5  19    1.56    0.28
   0   5  19    1.02    0.28
  -1  -5 -19    0.77    0.28
   1   5  19    0.64    0.27
   1   5  19    0.02    0.24
  -2  -5 -19    0.32    0.34
   2   5  19    0.58    0.28
  -3  -5 -19    0.91    0.41
   3  -6 -19    0.75    0.38
  -3  -6  19    0.77    0.25
  -3  -6  19    1.07    0.30
  -3   6  19    1.01    0.33
   3   6 -19    0.80    0.31
  -3   6  19    1.29    0.40
  -3   6  19    1.06    0.46
   2  -6 -19   -0.66    0.27
  -2  -6  19    0.17    0.24
  -2   6  19   -0.06    0.26
  -2   6  19    0.17    0.32
  -2   6  19   -0.52    0.34
   2   6 -19    0.22    0.22
   1  -6 -19   -0.12    0.26
  -1  -6  19   -0.08    0.22
  -1   6  19   -0.28    0.27
  -1   6  19   -0.12    0.25
  -1   6  19    0.17    0.31
   0  -6 -19    0.14    0.25
   0  -6  19   -0.11    0.20
   0   6 -19   -0.20    0.17
   0   6  19    0.11    0.24
   0   6  19   -0.10    0.26
   0   6  19    0.29    0.26
  -1  -6 -19    2.92    0.37
   1   6  19    2.95    0.34
   1   6  19    2.38    0.35
  -2  -6 -19    0.06    0.35
   2   6  19   -0.25    0.30
  -3  -7  19    0.74    0.30
   3  -7 -19    0.26    0.38
  -3   7  19    0.45    0.39
  -3   7  19    1.30    0.49
   3   7 -19    0.93    0.32
  -3   7  19    1.01    0.35
  -2  -7  19   -0.10    0.25
   2  -7 -19   -0.83    0.27
  -2   7  19   -0.51    0.38
  -2   7  19   -0.20    0.33
  -2   7  19    0.25    0.30
   1  -7 -19    7.70    0.67
  -1  -7  19    7.54    0.53
  -1   7  19    7.85    0.58
  -1   7  19    8.04    0.66
  -1   7  19    8.33    0.69
   0  -7 -19    1.05    0.30
   0  -7  19    0.81    0.24
   0   7  19    1.00    0.30
   0   7  19    1.16    0.28
  -1  -7 -19    0.42    0.29
   1   7  19    0.95    0.30
  -2  -7 -19   -0.23    0.36
   2   7  19   -0.21    0.32
  -3  -8  19    0.06    0.29
   3  -8 -19   -0.42    0.37
  -3   8  19   -0.13    0.35
   3   8 -19    0.11    0.30
  -3   8  19   -0.26    0.47
  -3   8  19    0.88    0.43
  -2  -8  19    0.11    0.27
   2  -8 -19   -0.38    0.31
  -2   8  19   -0.03    0.35
  -2   8  19    0.16    0.31
  -2   8  19    0.42    0.44
  -1  -8  19    0.05    0.25
   1  -8 -19    0.00    0.29
  -1   8  19   -0.29    0.31
  -1   8  19    0.29    0.30
  -1   8  19    0.27    0.28
   0  -8  19    0.70    0.25
   0  -8 -19    0.63    0.30
   0   8  19    0.69    0.32
   0   8  19    0.72    0.28
  -1  -8 -19    3.24    0.41
   1   8  19    3.78    0.44
  -2  -8 -19   -0.16    0.38
   2   8  19   -0.12    0.35
   2  -9 -19   -0.17    0.33
  -2  -9  19    0.32    0.29
  -2   9  19    0.44    0.40
  -2   9  19    0.24    0.34
  -2   9  19    0.21    0.47
  -1  -9  19    0.26    0.27
   1  -9 -19    0.25    0.30
  -1   9  19   -0.09    0.34
  -1   9  19    0.27    0.31
   0  -9 -19    1.09    0.33
   0  -9  19    0.75    0.26
   0   9  19    1.14    0.31
   0   9  19    0.93    0.35
  -1  -9 -19    0.01    0.30
   1   9  19    0.59    0.32
  -2 -10  19   -0.15    0.30
   2 -10 -19   -0.12    0.37
  -2  10  19    1.17    0.38
  -2  10  19   -0.25    0.40
  -2  10  19    0.37    0.50
  -1 -10  19   -0.04    0.28
   1 -10 -19   -0.11    0.29
  -1  10  19    0.73    0.33
  -1  10  19    0.23    0.36
   0 -10  19    2.00    0.30
   0 -10 -19    1.58    0.37
   0  10  19    1.72    0.41
   0  10  19    2.27    0.37
  -1 -10 -19    0.52    0.33
   1  10  19    0.77    0.34
   1 -11 -19    0.67    0.34
  -1 -11  19    0.81    0.32
  -1  11  19    1.13    0.42
  -1  11  19    0.64    0.35
   0 -11 -19    0.29    0.33
   0 -11  19    0.26    0.28
   0  11  19    0.44    0.38
   0  11  19    0.38    0.32
   4   0 -20    0.38    0.37
  -4   0  20    0.35    0.32
  -4   0  20    0.29    0.38
   3   0 -20    0.10    0.29
  -3   0  20    0.12    0.26
  -3   0  20    0.14    0.31
  -2   0  20   -0.21    0.25
  -2   0  20   -0.02    0.21
   2   0 -20   -0.05    0.22
  -1   0  20    0.33    0.21
  -1   0  20    0.08    0.21
   1   0 -20    0.12    0.19
   0   0  20    0.12    0.20
   0   0 -20    0.40    0.19
   0   0  20   -0.06    0.14
   1   0  20   -0.07    0.19
   4  -1 -20   -0.16    0.35
  -4  -1  20   -0.50    0.36
  -4  -1  20   -0.47    0.30
   4   1 -20    0.10    0.36
  -4   1  20   -0.39    0.39
  -4   1  20    0.31    0.33
  -3  -1  20    0.62    0.28
   3  -1 -20    1.01    0.33
  -3  -1  20    0.88    0.32
  -3   1  20    0.81    0.28
   3   1 -20    0.35    0.30
  -3   1  20    1.23    0.35
  -2  -1  20    1.72    0.30
  -2  -1  20    1.40    0.25
   2  -1 -20    2.15    0.32
  -2   1  20    1.16    0.31
  -2   1  20    1.64    0.26
   2   1 -20    1.88    0.30
  -1  -1  20    0.07    0.20
   1  -1 -20    0.35    0.20
  -1  -1  20    0.36    0.20
  -1   1  20    0.34    0.23
  -1   1  20   -0.09    0.21
   1   1 -20    0.44    0.18
   0  -1  20    9.40    0.52
   0  -1 -20    8.97    0.62
   0   1 -20    9.10    0.59
   0   1  20    8.99    0.53
   0   1  20    7.96    0.57
  -1  -1 -20    1.11    0.27
   1  -1  20    0.95    0.22
   1   1  20    0.91    0.22
  -4  -2  20    0.15    0.32
   4  -2 -20    0.10    0.37
  -4  -2  20   -0.26    0.35
  -4   2  20    0.21    0.42
  -4   2  20   -0.21    0.31
   4   2 -20    0.57    0.37
  -3  -2  20   -0.23    0.28
  -3  -2  20   -0.06    0.26
   3  -2 -20   -0.05    0.29
  -3   2  20   -0.15    0.33
   3   2 -20    0.23    0.29
  -3   2  20    0.19    0.26
   2  -2 -20    0.10    0.25
  -2  -2  20   -0.10    0.22
  -2  -2  20   -0.22    0.23
   2   2 -20    0.01    0.21
  -2   2  20    0.01    0.23
  -2   2  20   -0.07    0.28
  -1  -2  20    2.44    0.28
   1  -2 -20    2.92    0.33
   1   2 -20    3.05    0.29
  -1   2  20    2.58    0.34
  -1   2  20    2.86    0.30
   0  -2 -20   -0.05    0.22
   0  -2  20    0.09    0.20
   0   2  20    0.04    0.19
   0   2  20   -0.11    0.21
  -1  -2 -20    2.47    0.33
   1  -2  20    2.35    0.25
   1   2  20    2.20    0.26
   1   2  20    2.32    0.28
  -2  -2 -20    1.41    0.33
  -3  -3  20    0.85    0.29
   3  -3 -20    1.67    0.39
  -3  -3  20    1.20    0.31
  -3   3  20    0.58    0.31
   3   3 -20    1.43    0.33
  -3   3  20    1.76    0.41
  -3   3  20    1.28    0.31
  -2  -3  20    0.07    0.23
  -2  -3  20   -0.23    0.21
   2  -3 -20   -0.16    0.25
   2   3 -20   -0.29    0.21
  -2   3  20   -0.04    0.31
  -2   3  20    0.53    0.25
  -1  -3  20    0.03    0.22
   1  -3 -20    0.00    0.22
   1   3 -20    0.31    0.17
  -1   3  20    0.27    0.26
  -1   3  20    0.41    0.24
   0  -3 -20    0.37    0.25
   0  -3  20    0.43    0.21
   0   3  20    0.33    0.24
   0   3  20    0.15    0.21
  -1  -3 -20    3.71    0.39
   1   3  20    3.33    0.34
   1   3  20    3.88    0.33
  -2  -3 -20    0.42    0.32
  -3  -3 -20    1.90    0.43
   3  -4 -20    0.33    0.34
  -3  -4  20   -0.06    0.27
  -3  -4  20    0.38    0.28
  -3   4  20   -0.03    0.29
  -3   4  20    0.06    0.40
   3   4 -20   -0.26    0.27
  -3   4  20    0.19    0.32
  -2  -4  20    0.39    0.24
  -2  -4  20    1.15    0.26
   2  -4 -20    0.43    0.29
  -2   4  20    1.16    0.30
  -2   4  20    0.78    0.26
  -2   4  20    0.38    0.33
   2   4 -20    0.94    0.26
  -1  -4  20    3.03    0.30
   1  -4 -20    2.59    0.35
  -1   4  20    2.41    0.31
  -1   4  20    3.01    0.38
   0  -4  20   -0.06    0.20
   0  -4 -20   -0.13    0.24
   0   4  20    0.02    0.25
   0   4  20    0.60    0.24
  -1  -4 -20    4.18    0.40
   1   4  20    3.13    0.32
   1   4  20    2.71    0.34
  -2  -4 -20    1.07    0.37
   2   4  20    0.97    0.27
  -3  -5  20   -0.07    0.26
   3  -5 -20   -0.23    0.34
  -3  -5  20    0.49    0.29
  -3   5  20    0.30    0.36
   3   5 -20    0.11    0.30
  -3   5  20   -0.09    0.31
  -3   5  20    0.62    0.43
  -2  -5  20    1.10    0.27
   2  -5 -20    0.67    0.32
  -2   5  20    0.69    0.28
  -2   5  20    1.01    0.33
   2   5 -20    1.00    0.25
  -2   5  20   -0.08    0.35
   1  -5 -20   -0.22    0.25
  -1  -5  20    0.38    0.24
  -1   5  20    0.39    0.26
  -1   5  20    0.35    0.30
   0  -5 -20    3.31    0.39
   0  -5  20    3.14    0.30
   0   5  20    3.07    0.35
   0   5  20    2.94    0.35
  -1  -5 -20    2.84    0.37
   1   5  20    2.18    0.34
   1   5  20    2.84    0.33
  -2  -5 -20    0.13    0.35
   2   5  20    0.43    0.29
   3  -6 -20   -0.27    0.36
  -3  -6  20   -0.39    0.28
  -3   6  20   -0.03    0.36
  -3   6  20   -0.30    0.31
   3   6 -20    0.12    0.30
  -3   6  20   -0.80    0.44
  -2  -6  20    1.26    0.28
   2  -6 -20    0.85    0.35
  -2   6  20    0.88    0.31
  -2   6  20    1.09    0.36
  -2   6  20   -0.07    0.38
  -1  -6  20    0.19    0.25
   1  -6 -20   -0.32    0.26
  -1   6  20    0.49    0.29
  -1   6  20    0.27    0.29
  -1   6  20   -0.05    0.27
   0  -6  20    0.22    0.22
   0  -6 -20    0.23    0.28
   0   6  20    0.27    0.29
   0   6 -20    0.35    0.20
   0   6  20    0.44    0.26
  -1  -6 -20    0.19    0.29
   1   6  20    0.41    0.30
   1   6  20    0.35    0.27
  -2  -6 -20    1.50    0.42
   2   6  20    1.29    0.36
  -3  -7  20    0.63    0.30
   3  -7 -20   -0.40    0.36
  -3   7  20   -0.07    0.35
  -3   7  20    0.38    0.41
   3   7 -20   -0.27    0.28
  -3   7  20    0.42    0.48
   2  -7 -20   -0.52    0.32
  -2  -7  20    0.20    0.27
  -2   7  20    0.52    0.37
  -2   7  20    0.56    0.31
  -2   7  20   -0.06    0.43
  -1  -7  20   -0.13    0.25
   1  -7 -20   -0.08    0.28
  -1   7  20    0.29    0.31
  -1   7  20    0.47    0.29
  -1   7  20    0.56    0.33
   0  -7  20    2.70    0.30
   0  -7 -20    2.98    0.40
   0   7  20    2.28    0.37
   0   7  20    2.66    0.36
  -1  -7 -20    0.03    0.29
   1   7  20   -0.12    0.29
   1   7  20    0.21    0.29
  -2  -7 -20    0.66    0.41
   2   7  20   -0.01    0.34
   2  -8 -20   -0.30    0.33
  -2  -8  20    0.16    0.28
  -2   8  20    0.26    0.47
  -2   8  20    0.64    0.34
  -2   8  20    0.15    0.38
  -1  -8  20    0.27    0.27
   1  -8 -20    0.16    0.30
  -1   8  20   -0.10    0.31
  -1   8  20    0.10    0.30
  -1   8  20   -0.08    0.33
   0  -8 -20    0.08    0.30
   0  -8  20   -0.11    0.24
   0   8  20    0.37    0.29
   0   8  20    0.34    0.33
  -1  -8 -20    0.78    0.33
   1   8  20    0.84    0.33
   2  -9 -20   -0.16    0.35
  -2  -9  20   -0.20    0.29
  -2   9  20   -0.31    0.35
  -2   9  20   -0.07    0.40
  -2   9  20   -0.81    0.46
   1  -9 -20   -0.09    0.30
  -1  -9  20   -0.15    0.28
  -1   9  20    0.24    0.32
  -1   9  20   -0.52    0.34
  -1   9  20    0.16    0.33
   0  -9  20   -0.20    0.25
   0  -9 -20    0.18    0.32
   0   9  20   -0.14    0.33
   0   9  20    0.39    0.30
  -1  -9 -20    0.12    0.32
   1   9  20    0.72    0.35
   1 -10 -20    0.65    0.33
  -1 -10  20    0.82    0.32
  -1  10  20    0.40    0.39
  -1  10  20    0.91    0.35
   0 -10 -20    0.15    0.33
   0 -10  20    0.19    0.27
   0  10  20    0.44    0.36
   0  10  20    0.53    0.32
  -3   0  21    3.33    0.38
   3   0 -21    3.70    0.47
  -3   0  21    3.89    0.45
  -2   0  21   -0.31    0.22
  -2   0  21   -0.06    0.26
   2   0 -21   -0.28    0.23
  -1   0  21    2.54    0.29
   1   0 -21    2.68    0.32
  -1   0  21    2.91    0.31
   0   0  21    0.23    0.23
   0   0 -21    0.04    0.20
   1   0  21    0.99    0.23
   3  -1 -21    0.14    0.32
  -3  -1  21   -0.33    0.27
  -3  -1  21   -0.34    0.30
  -3   1  21   -0.06    0.28
  -3   1  21   -0.53    0.33
   3   1 -21    0.40    0.31
  -2  -1  21    0.11    0.25
  -2  -1  21    0.04    0.24
   2  -1 -21   -0.03    0.25
  -2   1  21   -0.07    0.24
   2   1 -21    0.05    0.24
  -2   1  21    0.23    0.29
  -1  -1  21    2.78    0.30
   1  -1 -21    2.76    0.33
  -1  -1  21    2.69    0.28
  -1   1  21    2.30    0.30
   1   1 -21    3.06    0.31
  -1   1  21    2.65    0.32
   0  -1 -21    0.30    0.23
   0  -1  21    0.77    0.23
   0   1  21    0.29    0.23
   0   1  21    0.29    0.18
  -1  -1 -21    3.67    0.38
   1  -1  21    2.76    0.32
   1   1  21    3.40    0.31
   3  -2 -21    1.49    0.37
  -3  -2  21    0.60    0.32
  -3  -2  21    0.56    0.29
   3   2 -21    0.92    0.33
  -3   2  21    1.01    0.31
  -3   2  21    0.66    0.38
   2  -2 -21    0.29    0.28
  -2  -2  21   -0.12    0.24
  -2  -2  21    0.03    0.24
  -2   2  21   -0.32    0.23
  -2   2  21    0.37    0.31
   2   2 -21   -0.12    0.22
  -1  -2  21   -0.16    0.23
   1  -2 -21   -0.04    0.23
  -1   2  21    0.29    0.25
  -1   2  21    0.39    0.25
   1   2 -21    0.35    0.19
   0  -2 -21    3.20    0.35
   0  -2  21    2.51    0.29
   0   2  21    3.06    0.32
   0   2  21    2.35    0.28
  -1  -2 -21    0.04    0.26
   1   2  21    0.25    0.24
  -3  -3  21   -0.45    0.27
  -3  -3  21   -0.37    0.29
   3  -3 -21   -0.02    0.34
   3   3 -21   -0.05    0.29
  -3   3  21    0.19    0.40
  -3   3  21   -0.19    0.30
  -2  -3  21    1.16    0.28
  -2  -3  21    0.93    0.26
   2  -3 -21    1.29    0.34
  -2   3  21    1.15    0.29
   2   3 -21    1.84    0.30
  -2   3  21    0.12    0.33
  -1  -3  21    0.18    0.24
   1  -3 -21   -0.08    0.25
  -1   3  21    0.24    0.26
  -1   3  21    0.03    0.25
   0  -3  21    0.66    0.24
   0  -3 -21    0.63    0.28
   0   3  21    0.54    0.26
   0   3  21    0.79    0.24
  -1  -3 -21    0.12    0.27
   1   3  21    0.13    0.21
   1   3  21   -0.11    0.24
  -2  -3 -21    0.50    0.35
  -3  -4  21   -0.23    0.28
  -3  -4  21   -0.42    0.27
   3  -4 -21    0.17    0.36
  -3   4  21    0.03    0.43
  -3   4  21   -0.09    0.30
   3   4 -21    0.09    0.30
  -2  -4  21    0.39    0.26
   2  -4 -21    0.23    0.31
   2   4 -21    0.09    0.23
  -2   4  21    0.40    0.28
  -2   4  21   -0.21    0.34
  -1  -4  21    1.95    0.29
   1  -4 -21    1.25    0.32
  -1   4  21    1.47    0.32
  -1   4  21    1.70    0.31
   0  -4 -21    4.23    0.42
   0  -4  21    3.36    0.33
   0   4  21    3.19    0.36
   0   4  21    3.74    0.38
  -1  -4 -21    0.30    0.28
   1   4  21    0.32    0.26
   1   4  21    0.00    0.23
  -2  -4 -21    0.70    0.38
   2   4  21    0.72    0.26
   3  -5 -21    0.01    0.37
  -3  -5  21    0.10    0.30
   3   5 -21    0.13    0.30
  -3   5  21   -0.10    0.35
  -3   5  21   -0.42    0.31
  -3   5  21    0.12    0.46
  -2  -5  21    1.66    0.30
   2  -5 -21    1.32    0.37
  -2   5  21    0.56    0.40
  -2   5  21    1.52    0.33
   1  -5 -21    0.33    0.30
  -1  -5  21    0.65    0.27
  -1   5  21    1.17    0.30
  -1   5  21    0.54    0.29
   0  -5 -21    0.53    0.30
   0  -5  21    0.58    0.25
   0   5  21    1.13    0.28
   0   5 -21    0.74    0.21
   0   5  21    0.50    0.29
  -1  -5 -21    1.37    0.33
   1   5  21    1.16    0.30
   1   5  21    0.94    0.29
  -2  -5 -21    0.51    0.38
   2   5  21    0.43    0.29
  -3  -6  21    0.57    0.32
   3  -6 -21   -0.15    0.38
   3   6 -21    0.26    0.30
  -3   6  21    0.21    0.34
  -3   6  21    0.94    0.51
  -3   6  21   -0.16    0.38
   2  -6 -21   -0.25    0.33
  -2  -6  21    0.06    0.28
  -2   6  21    0.51    0.35
  -2   6  21   -0.01    0.30
  -2   6  21   -0.06    0.41
  -1  -6  21    0.63    0.27
   1  -6 -21    0.28    0.31
  -1   6  21    1.04    0.32
  -1   6  21    0.90    0.31
   0  -6  21    0.78    0.26
   0  -6 -21    0.94    0.32
   0   6  21    1.21    0.30
   0   6  21    0.76    0.32
  -1  -6 -21    0.41    0.30
   1   6  21    0.06    0.28
   1   6  21    0.25    0.30
  -2  -6 -21   -0.23    0.37
   2   6  21   -0.31    0.30
   2  -7 -21   -0.31    0.35
  -2  -7  21    0.40    0.29
  -2   7  21    0.46    0.37
  -2   7  21   -0.14    0.44
  -2   7  21    0.28    0.33
   1  -7 -21    0.06    0.30
  -1  -7  21    0.16    0.27
  -1   7  21    0.93    0.32
  -1   7  21    0.69    0.34
   0  -7 -21    0.24    0.32
   0  -7  21    0.18    0.25
   0   7  21    0.20    0.28
   0   7  21    0.21    0.33
  -1  -7 -21    1.04    0.34
   1   7  21    1.47    0.34
   1   7  21    1.12    0.35
  -2  -8  21    0.13    0.30
   2  -8 -21   -0.50    0.34
  -2   8  21    0.17    0.35
  -2   8  21    0.21    0.47
  -2   8  21    0.05    0.39
   1  -8 -21    0.62    0.33
  -1  -8  21    0.99    0.30
  -1   8  21    0.63    0.33
  -1   8  21    1.01    0.39
  -1   8  21    0.96    0.37
   0  -8 -21    0.26    0.33
   0  -8  21    0.27    0.26
   0   8  21    0.00    0.34
   0   8  21    0.11    0.29
  -1  -8 -21    0.21    0.32
   1   8  21    0.09    0.35
   1   8  21    0.48    0.33
  -1  -9  21    0.05    0.29
   1  -9 -21    0.06    0.31
  -1   9  21    0.33    0.33
  -1   9  21    0.14    0.37
  -1   9  21   -0.01    0.36
   0  -9 -21   -0.07    0.33
   0  -9  21   -0.05    0.27
   0   9  21   -0.10    0.37
   0   9  21    0.19    0.30
   3   0 -22    0.37    0.35
  -3   0  22   -0.24    0.33
  -3   0  22   -0.34    0.29
  -2   0  22    0.91    0.31
   2   0 -22    1.55    0.32
  -2   0  22    1.20    0.29
   1   0 -22   -0.22    0.21
  -1   0  22   -0.10    0.24
  -1   0  22    0.01    0.20
   0   0  22    3.00    0.31
   3  -1 -22    0.73    0.36
  -3  -1  22    0.20    0.30
  -3  -1  22   -0.14    0.33
  -3   1  22    0.16    0.30
   3   1 -22    0.25    0.33
  -3   1  22    0.08    0.37
   2  -1 -22    2.62    0.37
  -2  -1  22    1.51    0.30
  -2  -1  22    1.71    0.32
  -2   1  22    1.81    0.30
  -2   1  22    1.21    0.33
   2   1 -22    2.32    0.34
   1  -1 -22    2.17    0.31
  -1  -1  22    1.63    0.29
   1   1 -22    1.97    0.28
  -1   1  22    1.52    0.29
  -1   1  22    1.60    0.28
   0  -1 -22    1.64    0.29
   0  -1  22    1.39    0.27
   0   1  22    1.27    0.28
   1   1  22   -0.28    0.23
   3  -2 -22    0.34    0.35
  -3  -2  22   -0.26    0.32
  -3  -2  22   -0.37    0.28
  -3   2  22    0.13    0.39
  -3   2  22   -0.11    0.30
   3   2 -22    0.50    0.33
  -2  -2  22    0.99    0.28
  -2  -2  22    0.94    0.27
   2  -2 -22    0.80    0.33
   2   2 -22    1.01    0.29
  -2   2  22    0.97    0.28
  -2   2  22    0.74    0.33
  -1  -2  22    0.01    0.26
   1  -2 -22   -0.03    0.24
  -1   2  22   -0.06    0.26
  -1   2  22   -0.09    0.24
   0  -2 -22    1.27    0.29
   0  -2  22    0.88    0.26
   0   2  22    1.33    0.29
   0   2  22    1.06    0.23
  -1  -2 -22    2.62    0.36
   1   2  22    2.28    0.31
  -3  -3  22    0.51    0.31
  -3  -3  22    0.55    0.33
   3  -3 -22    0.94    0.40
  -3   3  22    1.03    0.34
   3   3 -22    0.95    0.34
  -3   3  22    1.29    0.45
   2  -3 -22    0.06    0.30
  -2  -3  22    0.22    0.27
   2   3 -22   -0.05    0.25
  -2   3  22    0.28    0.29
  -2   3  22   -0.07    0.33
   1  -3 -22    4.44    0.45
  -1  -3  22    4.81    0.39
  -1   3  22    4.13    0.43
  -1   3  22    4.49    0.40
   0  -3 -22    0.36    0.29
   0  -3  22    0.23    0.25
   0   3  22    0.84    0.29
   0   3  22    0.35    0.23
  -1  -3 -22    0.40    0.29
   1   3  22    0.29    0.21
   1   3  22    0.42    0.27
  -2  -3 -22    0.30    0.36
  -3  -4  22    0.09    0.34
   3  -4 -22    0.51    0.39
  -3  -4  22    0.12    0.31
  -3   4  22    0.14    0.32
  -3   4  22    0.65    0.46
   3   4 -22    0.65    0.33
   2  -4 -22   -0.10    0.31
  -2  -4  22    0.26    0.28
  -2   4  22    0.05    0.36
  -2   4  22   -0.32    0.29
  -1  -4  22   -0.12    0.26
   1  -4 -22   -0.41    0.27
  -1   4  22    0.24    0.28
  -1   4  22    0.15    0.29
   0  -4 -22    0.75    0.31
   0  -4  22    0.44    0.25
   0   4  22    0.43    0.25
   0   4  22    0.58    0.29
  -1  -4 -22    1.44    0.34
   1   4  22    1.67    0.32
   1   4  22    1.07    0.27
  -2  -4 -22   -0.26    0.35
   3  -5 -22   -0.23    0.39
  -3  -5  22    0.15    0.31
  -3   5  22    0.07    0.47
  -3   5  22   -0.34    0.34
   3   5 -22    0.12    0.31
  -2  -5  22   -0.04    0.28
   2  -5 -22    0.12    0.35
  -2   5  22    0.62    0.31
  -2   5  22    0.31    0.41
  -1  -5  22    0.98    0.29
   1  -5 -22    1.01    0.33
  -1   5  22    1.14    0.33
  -1   5  22    2.10    0.35
   0  -5  22    0.18    0.25
   0  -5 -22    0.45    0.31
   0   5  22    0.50    0.31
   0   5  22    0.06    0.26
  -1  -5 -22    0.09    0.30
   1   5  22    0.13    0.30
   1   5  22    0.00    0.26
   2  -6 -22    0.20    0.37
  -2  -6  22    0.40    0.30
  -2   6  22    0.33    0.34
  -2   6  22    0.94    0.47
   1  -6 -22   -0.04    0.31
  -1  -6  22    0.10    0.28
  -1   6  22    0.12    0.32
  -1   6  22    0.29    0.30
   0  -6 -22    1.78    0.37
   0  -6  22    1.93    0.30
   0   6  22    1.61    0.33
   0   6  22    1.48    0.36
  -1  -6 -22    0.42    0.32
   1   6  22    0.19    0.29
   1   6  22   -0.35    0.31
  -2  -7  22    0.27    0.31
   2  -7 -22   -0.01    0.37
  -2   7  22    0.37    0.47
  -2   7  22    0.60    0.35
  -1  -7  22    0.55    0.29
   1  -7 -22    0.36    0.33
  -1   7  22    0.09    0.34
  -1   7  22    0.34    0.32
   0  -7  22    1.24    0.29
   0  -7 -22    1.14    0.36
   0   7  22    1.33    0.38
   0   7  22    1.37    0.33
  -1  -7 -22    0.17    0.33
   1   7  22    0.32    0.35
   1   7  22   -0.06    0.30
   1  -8 -22   -0.16    0.32
  -1  -8  22    0.56    0.30
  -1   8  22    0.24    0.33
  -1   8  22   -0.11    0.36
   0  -8 -22    1.59    0.39
   0  -8  22    1.21    0.30
   0   8  22    1.08    0.34
   0   8  22    1.25    0.40
   3   0 -23    0.03    0.35
  -3   0  23   -0.45    0.35
  -3   0  23    0.07    0.31
  -2   0  23   -0.38    0.28
  -2   0  23    0.14    0.28
   2   0 -23   -0.14    0.28
   1   0 -23    2.71    0.36
  -1   0  23    3.44    0.36
   0   0  23    0.22    0.26
  -3  -1  23    0.04    0.31
  -3  -1  23   -0.40    0.34
   3  -1 -23   -0.11    0.35
  -3   1  23   -0.18    0.37
  -3   1  23    0.12    0.32
   3   1 -23   -0.09    0.33
  -2  -1  23    0.01    0.29
  -2  -1  23    1.08    0.29
   2  -1 -23    0.04    0.30
  -2   1  23   -0.07    0.29
  -2   1  23    0.13    0.30
   2   1 -23   -0.03    0.26
   1  -1 -23    0.77    0.28
  -1  -1  23   -0.11    0.27
   1   1 -23    1.09    0.25
  -1   1  23    1.01    0.30
  -1   1  23    0.92    0.25
   0  -1 -23    0.85    0.28
   0  -1  23    0.68    0.27
   0   1  23    1.26    0.29
   3  -2 -23   -0.50    0.36
  -3  -2  23    0.06    0.31
  -3  -2  23   -0.84    0.31
  -3   2  23    0.00    0.32
   3   2 -23    0.19    0.34
  -3   2  23   -0.06    0.40
   2  -2 -23    0.87    0.35
  -2  -2  23    0.53    0.30
   2   2 -23    0.62    0.29
  -2   2  23    0.51    0.34
  -2   2  23    1.33    0.32
   1  -2 -23    0.85    0.30
  -1  -2  23    1.44    0.31
  -1   2  23    0.49    0.30
  -1   2  23    1.31    0.28
   0  -2  23    0.43    0.27
   0  -2 -23    0.30    0.28
   0   2  23    1.33    0.30
  -2  -3  23    0.38    0.30
   2  -3 -23   -0.14    0.33
  -2   3  23    0.23    0.31
  -2   3  23    0.69    0.37
   2   3 -23    0.55    0.29
  -1  -3  23    0.19    0.28
   1  -3 -23   -0.16    0.28
  -1   3  23    0.03    0.30
  -1   3  23    0.49    0.28
   0  -3 -23    3.29    0.40
   0  -3  23    2.28    0.32
   0   3  23    3.06    0.37
   0   3  23    1.93    0.30
  -1  -3 -23    0.10    0.29
   1   3  23    0.34    0.30
   2  -4 -23    0.11    0.35
  -2  -4  23    0.06    0.29
  -2   4  23    0.39    0.39
  -2   4  23    0.27    0.32
   1  -4 -23   -0.06    0.30
  -1  -4  23   -0.09    0.28
  -1   4  23   -0.26    0.30
  -1   4  23    0.34    0.29
   0  -4  23    0.50    0.27
   0  -4 -23    0.30    0.31
   0   4  23    0.62    0.27
   0   4  23    0.46    0.32
  -1  -4 -23   -0.06    0.29
   1   4  23   -0.21    0.29
   1   4  23   -0.14    0.24
  -2  -5  23    0.31    0.31
   2  -5 -23   -0.41    0.35
  -2   5  23   -0.01    0.34
  -2   5  23    0.07    0.41
  -1  -5  23    0.10    0.29
   1  -5 -23    0.04    0.31
  -1   5  23    0.34    0.31
  -1   5  23   -0.21    0.32
   0  -5 -23    2.07    0.38
   0  -5  23    2.19    0.32
   0   5  23    1.68    0.36
   0   5  23    1.74    0.33
  -1  -5 -23    0.09    0.32
   1   5  23    0.45    0.28
   1   5  23    0.72    0.33
   2  -6 -23   -0.63    0.36
  -2  -6  23   -0.20    0.31
  -2   6  23    0.08    0.36
  -2   6  23   -0.02    0.43
   1  -6 -23    0.26    0.33
  -1  -6  23    0.64    0.31
  -1   6  23    0.88    0.33
  -1   6  23    0.95    0.37
   0  -6  23   -0.09    0.27
   0  -6 -23   -0.17    0.33
   0   6  23    0.31    0.29
   0   6  23   -0.07    0.34
  -1  -6 -23    1.12    0.36
   1   6  23    0.74    0.35
   1   6  23    0.77    0.32
   1  -7 -23    0.02    0.34
  -1  -7  23    0.39    0.31
  -1   7  23    0.90    0.34
  -1   7  23    0.16    0.36
   0  -7  23    0.03    0.28
   0  -7 -23    0.47    0.36
   0   7  23    0.36    0.30
   0   7  23    0.39    0.37
  -2   0  24    0.18    0.31
  -2   0  24    0.22    0.30
   2   0 -24   -0.18    0.29
   1   0 -24    0.22    0.25
  -1   0  24   -0.14    0.29
   0   0  24    2.04    0.33
  -2  -1  24    1.23    0.34
   2  -1 -24    0.99    0.35
  -2   1  24    1.02    0.33
  -2   1  24    1.11    0.36
   2   1 -24    1.41    0.34
  -1  -1  24    0.32    0.30
   1  -1 -24   -0.06    0.26
  -1   1  24   -0.12    0.29
   0  -1  24    0.03    0.27
   0   1  24   -0.03    0.29
   2  -2 -24   -0.18    0.32
  -2  -2  24    0.19    0.32
   2   2 -24    0.34    0.29
  -2   2  24    0.14    0.35
  -2   2  24    0.19    0.32
   1  -2 -24    0.71    0.31
  -1  -2  24    1.38    0.32
  -1   2  24    0.77    0.27
  -1   2  24    0.86    0.32
   0  -2  24    0.61    0.28
   0  -2 -24   -0.03    0.29
   0   2  24    0.58    0.31
  -2  -3  24    0.26    0.31
   2  -3 -24   -0.15    0.35
  -2   3  24   -0.23    0.33
  -2   3  24    0.04    0.36
  -1  -3  24    0.81    0.31
   1  -3 -24   -0.16    0.30
  -1   3  24    0.55    0.28
  -1   3  24    0.09    0.33
   0  -3  24    0.06    0.28
   0  -3 -24   -0.08    0.30
   0   3  24   -0.02    0.24
   0   3  24    0.09    0.30
  -1  -3 -24    0.04    0.30
   2  -4 -24   -0.14    0.37
  -2  -4  24    0.26    0.32
  -2   4  24    0.14    0.38
  -2   4  24    0.23    0.34
  -1  -4  24    1.03    0.33
   1  -4 -24    0.95    0.36
  -1   4  24    1.13    0.32
  -1   4  24    1.86    0.37
   0  -4  24    0.13    0.28
   0  -4 -24    0.66    0.34
   0   4  24    0.36    0.33
   0   4  24    0.13    0.25
  -1  -4 -24    0.15    0.32
  -1  -5  24    0.57    0.32
   1  -5 -24    0.15    0.34
  -1   5  24    0.09    0.35
  -1   5  24    0.41    0.31
   0  -5  24    0.22    0.28
   0  -5 -24   -0.03    0.34
   0   5  24   -0.07    0.28
   0   5  24    0.43    0.35
   1  -6 -24    0.73    0.36
  -1  -6  24    0.29    0.31
  -1   6  24    0.32    0.37
  -1   6  24    0.27    0.32
   0  -6  24    0.09    0.30
   0  -6 -24    0.31    0.36
   0   6  24    0.41    0.31
   0   6  24    0.35    0.37
   2   0 -25   -0.18    0.31
  -2   0  25   -0.34    0.33
  -1   0  25    0.10    0.32
   0   0  25    0.03    0.31
   2  -1 -25   -0.38    0.33
  -2  -1  25    0.18    0.33
   2   1 -25   -0.53    0.28
  -2   1  25   -0.30    0.32
  -1  -1  25    1.55    0.35
   1  -1 -25    0.93    0.32
  -1   1  25    0.88    0.34
   0  -1  25   -0.07    0.30
   0   1  25    0.15    0.30
   1  -2 -25   -0.28    0.30
  -1  -2  25   -0.46    0.31
  -1   2  25   -0.36    0.33
   0  -2 -25    0.99    0.33
   0  -2  25    0.95    0.32
   0   2  25    0.32    0.32
   1  -3 -25   -0.35    0.31
  -1  -3  25   -0.15    0.31
  -1   3  25    0.21    0.29
  -1   3  25   -0.55    0.32
   0  -3  25    0.09    0.29
   0  -3 -25    0.79    0.34
   0   3  25    0.53    0.33
  -1  -4  25    0.48    0.33
   1  -4 -25   -0.14    0.33
  -1   4  25    0.01    0.30
  -1   4  25    0.36    0.36
   0   0   0    0.00    0.00
;
_shelx_hkl_checksum              8572
_shelx_res_file
;
    shelx.res created by SHELXL-2014/7
TITL KY3_0m in P2(1)/n
CELL  0.71073   4.0634  11.9235  18.0978   90.000   96.170   90.000
ZERR     4.00   0.0001   0.0003   0.0005    0.000    0.002    0.000
LATT   1
SYMM  1/2 - X, 1/2 + Y, 1/2 - Z
SFAC  C    H    N    O    BR
UNIT  36   24   4    8    4
MERG   2
OMIT     0   1   1
OMIT     0   0   2
SHEL 50 0.76
HTAB C9 O2_$1
HTAB C9 O1_$2
eqiv $1 1/2-x, y-1/2, 3/2-z
eqiv $2 3/2-x, y- 1/2, 3/2-z
FMAP   2
PLAN   10
SIZE     0.032   0.222   0.566
ACTA
BOND   $H
L.S.  10
TEMP    23.00
WGHT    0.038600    0.958500
FVAR       0.14209
MOLE    1
C1    1    0.856044    0.309029    0.904003    11.00000    0.04397    0.02912 =
         0.04928    0.00134    0.01116   -0.00378
C2    1    0.811813    0.217843    0.855389    11.00000    0.03770    0.03181 =
         0.04311    0.00215    0.01204   -0.00291
C3    1    0.955681    0.115516    0.873790    11.00000    0.04811    0.03298 =
         0.04650   -0.00299    0.01167    0.00456
AFIX  43
H3    2    0.930819    0.054953    0.841287    11.00000   -1.20000
AFIX   0
C4    1    1.138287    0.106535    0.942452    11.00000    0.04490    0.03507 =
         0.05255    0.00323    0.01336    0.00806
AFIX  43
H4    2    1.237699    0.038457    0.956535    11.00000   -1.20000
AFIX   0
C5    1    1.176497    0.197108    0.990907    11.00000    0.03608    0.04497 =
         0.04262    0.00105    0.00913    0.00045
C6    1    1.036870    0.300103    0.972347    11.00000    0.04647    0.03414 =
         0.05044   -0.00354    0.01083   -0.00467
AFIX  43
H6    2    1.063975    0.360823    1.004683    11.00000   -1.20000
AFIX   0
C7    1    0.662400    0.402559    0.867305    11.00000    0.06075    0.03237 =
         0.05615    0.00742    0.01166    0.00076
C8    1    0.501594    0.353987    0.792794    11.00000    0.05625    0.03431 =
         0.05590    0.01012    0.01161    0.00374
C9    1    0.509142    0.166272    0.730876    11.00000    0.06540    0.04530 =
         0.04607   -0.00206    0.00106   -0.00188
AFIX 137
H9A   2    0.364418    0.202862    0.692902    11.00000   -1.50000
H9B   2    0.395866    0.104060    0.750378    11.00000   -1.50000
H9C   2    0.702304    0.139676    0.710090    11.00000   -1.50000
AFIX   0
N1    3    0.607835    0.245757    0.790633    11.00000    0.04779    0.03228 =
         0.04733    0.00201    0.00601   -0.00175
O1    4    0.625031    0.497144    0.887820    11.00000    0.10324    0.02913 =
         0.07313   -0.00324    0.00356    0.01021
O2    4    0.314157    0.401988    0.746953    11.00000    0.08442    0.05019 =
         0.06792    0.01110   -0.00509    0.01323
BR1   5    1.417616    0.174257    1.085618    11.00000    0.05144    0.05859 =
         0.05114   -0.00134    0.00106    0.00589
HKLF 4
REM  KY3_0m in P2(1)/n
REM R1 =  0.0388 for    1606 Fo > 4sig(Fo)  and  0.0528 for all    2022 data
REM    119 parameters refined using      0 restraints
END
WGHT      0.0386      0.9587
REM Highest difference peak  0.553,  deepest hole -0.344,  1-sigma level  0.077
Q1    1   1.3573  0.1671  1.0413  11.00000  0.05    0.55
Q2    1   1.4833  0.2342  1.0780  11.00000  0.05    0.53
Q3    1   1.2765  0.2198  1.1112  11.00000  0.05    0.37
Q4    1   1.7052  0.1741  1.0831  11.00000  0.05    0.31
Q5    1   0.7693  0.3520  0.8982  11.00000  0.05    0.30
Q6    1   0.5901  0.2198  0.7610  11.00000  0.05    0.29
Q7    1   0.8337  0.2722  0.8836  11.00000  0.05    0.28
Q8    1   1.1573  0.1757  1.0863  11.00000  0.05    0.28
Q9    1   0.8719  0.3045  0.9399  11.00000  0.05    0.28
Q10   1   1.2149  0.1607  0.9627  11.00000  0.05    0.28
;
_shelx_res_checksum              90791
loop_
_space_group_symop_operation_xyz
'x, y, z'
'-x+1/2, y+1/2, -z+1/2'
'-x, -y, -z'
'x-1/2, -y-1/2, z-1/2'
loop_
_atom_site_type_symbol
_atom_site_label
_atom_site_fract_x
_atom_site_fract_y
_atom_site_fract_z
_atom_site_U_iso_or_equiv
_atom_site_adp_type
_atom_site_calc_flag
_atom_site_occupancy
C C1 0.8560(9) 0.3090(2) 0.90400(19) 0.0403(7) Uani d 1
C C2 0.8118(8) 0.2178(3) 0.85539(18) 0.0370(7) Uani d 1
C C3 0.9557(8) 0.1155(3) 0.87379(19) 0.0421(7) Uani d 1
H H3 0.9308 0.0550 0.8413 0.050 Uiso calc 1
C C4 1.1383(8) 0.1065(3) 0.9425(2) 0.0436(8) Uani d 1
H H4 1.2377 0.0385 0.9565 0.052 Uiso calc 1
C C5 1.1765(8) 0.1971(3) 0.99091(19) 0.0409(7) Uani d 1
C C6 1.0369(9) 0.3001(3) 0.9723(2) 0.0433(8) Uani d 1
H H6 1.0640 0.3608 1.0047 0.052 Uiso calc 1
C C7 0.6624(10) 0.4026(3) 0.8673(2) 0.0494(8) Uani d 1
C C8 0.5016(10) 0.3540(3) 0.7928(2) 0.0484(8) Uani d 1
C C9 0.5091(11) 0.1663(3) 0.7309(2) 0.0526(9) Uani d 1
H H9A 0.3644 0.2029 0.6929 0.079 Uiso calc 1
H H9B 0.3959 0.1041 0.7504 0.079 Uiso calc 1
H H9C 0.7023 0.1397 0.7101 0.079 Uiso calc 1
N N1 0.6078(7) 0.2458(2) 0.79063(16) 0.0424(6) Uani d 1
O O1 0.6250(8) 0.4971(2) 0.88782(17) 0.0689(8) Uani d 1
O O2 0.3142(8) 0.4020(2) 0.74695(17) 0.0685(8) Uani d 1
Br Br1 1.41762(10) 0.17426(3) 1.08562(2) 0.05405(16) Uani d 1
loop_
_atom_site_aniso_label
_atom_site_aniso_U_11
_atom_site_aniso_U_22
_atom_site_aniso_U_33
_atom_site_aniso_U_12
_atom_site_aniso_U_13
_atom_site_aniso_U_23
C1 0.0440(18) 0.0291(15) 0.0493(19) -0.0038(13) 0.0112(15) 0.0013(13)
C2 0.0377(16) 0.0318(15) 0.0431(17) -0.0029(13) 0.0120(14) 0.0021(13)
C3 0.0481(19) 0.0330(16) 0.0465(18) 0.0046(14) 0.0117(15) -0.0030(14)
C4 0.0449(18) 0.0351(17) 0.0526(19) 0.0081(13) 0.0134(15) 0.0032(15)
C5 0.0361(17) 0.0450(18) 0.0426(17) 0.0005(13) 0.0091(14) 0.0010(14)
C6 0.0465(19) 0.0341(16) 0.0504(19) -0.0047(14) 0.0108(16) -0.0035(14)
C7 0.061(2) 0.0324(17) 0.056(2) 0.0008(15) 0.0117(18) 0.0074(15)
C8 0.056(2) 0.0343(17) 0.056(2) 0.0037(15) 0.0116(18) 0.0101(15)
C9 0.065(2) 0.045(2) 0.0461(19) -0.0019(17) 0.0011(18) -0.0021(16)
N1 0.0478(16) 0.0323(14) 0.0473(16) -0.0017(11) 0.0060(13) 0.0020(12)
O1 0.103(2) 0.0291(13) 0.0731(18) 0.0102(13) 0.0036(16) -0.0032(13)
O2 0.084(2) 0.0502(16) 0.0679(18) 0.0132(15) -0.0051(16) 0.0111(14)
Br1 0.0514(3) 0.0586(3) 0.0511(2) 0.00589(17) 0.00106(17) -0.00134(17)
loop_
_atom_type_symbol
_atom_type_description
_atom_type_scat_dispersion_real
_atom_type_scat_dispersion_imag
_atom_type_scat_source
C C 0.0033 0.0016 'International Tables Vol C Tables 4.2.6.8 and 6.1.1.4'
H H 0.0000 0.0000 'International Tables Vol C Tables 4.2.6.8 and 6.1.1.4'
N N 0.0061 0.0033 'International Tables Vol C Tables 4.2.6.8 and 6.1.1.4'
O O 0.0106 0.0060 'International Tables Vol C Tables 4.2.6.8 and 6.1.1.4'
Br Br -0.2901 2.4595 'International Tables Vol C Tables 4.2.6.8 and 6.1.1.4'
loop_
_geom_angle_atom_site_label_1
_geom_angle_atom_site_label_2
_geom_angle_atom_site_label_3
_geom_angle
C6 C1 C2 121.8(3)
C6 C1 C7 132.0(3)
C2 C1 C7 106.1(3)
C3 C2 C1 120.9(3)
C3 C2 N1 127.6(3)
C1 C2 N1 111.5(3)
C2 C3 C4 117.3(3)
C2 C3 H3 121.3
C4 C3 H3 121.3
C3 C4 C5 121.4(3)
C3 C4 H4 119.3
C5 C4 H4 119.3
C6 C5 C4 121.6(3)
C6 C5 Br1 120.4(3)
C4 C5 Br1 118.0(3)
C1 C6 C5 117.0(3)
C1 C6 H6 121.5
C5 C6 H6 121.5
O1 C7 C1 130.3(4)
O1 C7 C8 124.4(3)
C1 C7 C8 105.3(3)
O2 C8 N1 127.4(4)
O2 C8 C7 126.7(3)
N1 C8 C7 105.9(3)
N1 C9 H9A 109.5
N1 C9 H9B 109.5
H9A C9 H9B 109.5
N1 C9 H9C 109.5
H9A C9 H9C 109.5
H9B C9 H9C 109.5
C8 N1 C2 111.2(3)
C8 N1 C9 124.9(3)
C2 N1 C9 123.8(3)
loop_
_geom_bond_atom_site_label_1
_geom_bond_atom_site_label_2
_geom_bond_distance
C1 C6 1.373(5)
C1 C2 1.398(5)
C1 C7 1.480(5)
C2 C3 1.378(5)
C2 N1 1.401(5)
C3 C4 1.381(5)
C3 H3 0.9300
C4 C5 1.389(5)
C4 H4 0.9300
C5 C6 1.379(5)
C5 Br1 1.900(4)
C6 H6 0.9300
C7 O1 1.202(4)
C7 C8 1.546(6)
C8 O2 1.208(5)
C8 N1 1.363(4)
C9 N1 1.461(5)
C9 H9A 0.9600
C9 H9B 0.9600
C9 H9C 0.9600
loop_
_geom_hbond_atom_site_label_D
_geom_hbond_atom_site_label_H
_geom_hbond_atom_site_label_A
_geom_hbond_site_symmetry_A
_geom_hbond_distance_DH
_geom_hbond_distance_HA
_geom_hbond_distance_DA
_geom_hbond_angle_DHA
C9 H9B O2 2_546 0.96 2.56 3.454(5) 155.3
C9 H9C O1 2_646 0.96 2.61 3.403(5) 140.6

_cod_database_fobs_code 1543457
