#------------------------------------------------------------------------------
#$Date: 2016-07-27 04:33:42 +0300 (Wed, 27 Jul 2016) $
#$Revision: 184681 $
#$URL: file:///home/coder/svn-repositories/cod/cif/1/54/37/1543740.cif $
#------------------------------------------------------------------------------
#
# This file is available in the Crystallography Open Database (COD),
# http://www.crystallography.net/. The original data for this entry
# were provided by IUCr Journals, http://journals.iucr.org/.
#
# The file may be used within the scientific community so long as
# proper attribution is given to the journal article from which the
# data were obtained.
#
data_1543740
loop_
_publ_author_name
'Mohamooda Sumaya, U.'
'Reuben Jonathan, D.'
'Dravida Thendral, E. R. A.'
'Revathi, B. K.'
'Usha, G.'
_publ_section_title
;
 <i>N</i>,<i>N</i>'-(Ethane-1,2-diyl)bis(2-chlorobenzamide)
;
_journal_issue                   7
_journal_name_full               IUCrData
_journal_page_first              x161190
_journal_paper_doi               10.1107/S2414314616011901
_journal_volume                  1
_journal_year                    2016
_chemical_formula_iupac          'C16 H14 Cl2 N2 O2'
_chemical_formula_moiety         'C16 H14 Cl2 N2 O2'
_chemical_formula_sum            'C16 H14 Cl2 N2 O2'
_chemical_formula_weight         337.19
_chemical_name_systematic
;
<i>N</i>,<i>N</i>'-(Ethane-1,2-diyl)bis(2-chlorobenzamide)
;
_space_group_crystal_system      monoclinic
_space_group_IT_number           14
_space_group_name_Hall           '-P 2ybc'
_space_group_name_H-M_alt        'P 1 21/c 1'
_symmetry_space_group_name_Hall  '-P 2ybc'
_symmetry_space_group_name_H-M   'P 1 21/c 1'
_atom_sites_solution_hydrogens   mixed
_audit_creation_method           'SHELXL-2014/7.(Sheldrick, 2014)'
_cell_angle_alpha                90
_cell_angle_beta                 104.189(4)
_cell_angle_gamma                90
_cell_formula_units_Z            2
_cell_length_a                   4.9667(6)
_cell_length_b                   23.701(3)
_cell_length_c                   7.1113(8)
_cell_measurement_reflns_used    6198
_cell_measurement_temperature    293(2)
_cell_measurement_theta_max      29.26
_cell_measurement_theta_min      2.57
_cell_volume                     811.57(17)
_computing_cell_refinement
;
APEX2 and SAINT (Bruker, 2004)
;
_computing_data_collection
;
APEX2 (Bruker, 2004)
;
_computing_data_reduction
;
SAINT and XPREP (Bruker, 2004)
;
_computing_molecular_graphics
;
ORTEP-3 for Windows (Farrugia, 2012)
;
_computing_publication_material
;
SHELXL2014 (Sheldrick, 2015)
;
_computing_structure_refinement
;
SHELXL2014 (Sheldrick, 2015)
;
_computing_structure_solution
;
SIR92 (Altomare <i>et al.</i>,  1993)
;
_diffrn_ambient_temperature      293(2)
_diffrn_measured_fraction_theta_full 0.994
_diffrn_measured_fraction_theta_max 0.994
_diffrn_measurement_device_type  'Bruker Kappa APEXII CCD'
_diffrn_measurement_method       '\w and \f scan'
_diffrn_radiation_monochromator  graphite
_diffrn_radiation_source         'fine-focus sealed tube'
_diffrn_radiation_type           MoK\a
_diffrn_radiation_wavelength     0.71073
_diffrn_reflns_av_R_equivalents  0.0609
_diffrn_reflns_limit_h_max       5
_diffrn_reflns_limit_h_min       -5
_diffrn_reflns_limit_k_max       28
_diffrn_reflns_limit_k_min       -28
_diffrn_reflns_limit_l_max       8
_diffrn_reflns_limit_l_min       -8
_diffrn_reflns_number            11558
_diffrn_reflns_theta_full        24.999
_diffrn_reflns_theta_max         24.999
_diffrn_reflns_theta_min         3.077
_exptl_absorpt_coefficient_mu    0.407
_exptl_absorpt_correction_T_max  0.922
_exptl_absorpt_correction_T_min  0.885
_exptl_absorpt_correction_type   multi-scan
_exptl_absorpt_process_details
;
(SADABS; Bruker, 2004)
;
_exptl_crystal_colour            yellow
_exptl_crystal_density_diffrn    1.380
_exptl_crystal_description       block
_exptl_crystal_F_000             348
_exptl_crystal_size_max          0.300
_exptl_crystal_size_mid          0.250
_exptl_crystal_size_min          0.200
_refine_diff_density_max         0.402
_refine_diff_density_min         -0.317
_refine_ls_extinction_method     none
_refine_ls_goodness_of_fit_ref   1.168
_refine_ls_hydrogen_treatment    mixed
_refine_ls_matrix_type           full
_refine_ls_number_parameters     105
_refine_ls_number_reflns         11558
_refine_ls_number_restraints     0
_refine_ls_restrained_S_all      1.168
_refine_ls_R_factor_all          0.0735
_refine_ls_R_factor_gt           0.0641
_refine_ls_shift/su_max          0.000
_refine_ls_shift/su_mean         0.000
_refine_ls_structure_factor_coef Fsqd
_refine_ls_weighting_details
'w=1/[\s^2^(Fo^2^)+1.3152P] where P=(Fo^2^+2Fc^2^)/3'
_refine_ls_weighting_scheme      calc
_refine_ls_wR_factor_gt          0.1512
_refine_ls_wR_factor_ref         0.1561
_reflns_number_gt                1429
_reflns_number_total             1429
_reflns_threshold_expression     'I > 2\s(I)'
_cod_data_source_file            su4058sup1.cif
_cod_data_source_block           I
_cod_original_cell_volume        811.59(17)
_cod_database_code               1543740
_shelx_space_group_comment
;
The symmetry employed for this shelxl refinement is uniquely defined
by the following loop, which should always be used as a source of
symmetry information in preference to the above space-group names.
They are only intended as comments.
;
_shelx_estimated_absorpt_t_min   0.886
_shelx_estimated_absorpt_t_max   0.923
_shelx_hkl_file
;
  -1   0   0   89.56    5.18   1
  -1   0   0   87.44    4.36   1
  -1   0   0   95.10    4.36   1
   1   0   0   89.73    4.38   1
   1   0   0   92.66    4.36   1
   1   0   0   86.10    4.36   1
  -1   0   0   89.00    4.38   1
  -2   0   0    1.24    0.11   1
   2   0   0    1.25    0.12   1
  -2   0   0    1.50    0.15   1
   2   0   0    1.22    0.11   1
  -2   0   0    1.42    0.13   1
  -2   0   0    1.29    0.11   1
  -3   0   0   90.45    4.43   1
   3   0   0   90.43    4.40   1
  -3   0   0   84.46    5.25   1
   3   0   0   90.80    4.40   1
  -3   0   0   93.19    4.39   1
   4   0   0    3.38    0.28   1
   4   0   0    3.05    0.30   1
  -4   0   0    2.97    0.26   1
  -4   0   0    3.97    0.29   1
   5   0   0    1.95    0.30   1
  -5   0   0    2.00    0.25   1
  -5   0   0    2.28    0.28   1
  -6   0   0    0.09    0.20   1
   6   0   0    0.07    0.22   1
   0   1   0    0.00    0.00  -2
   0  -1   0    0.00    0.00   1
   0   1   0    0.00    0.00  -2
   0  -1   0    0.00    0.00   1
   0   1   0    0.00    0.00  -2
   0  -1   0    0.00    0.00   1
   0   1   0    0.00    0.00  -2
   0  -1   0    0.00    0.00   1
   0  -1   0    0.00    0.00  -2
   0   1   0    0.00    0.00   1
   0  -1   0    0.00    0.00  -2
   0   1   0    0.00    0.00   1
   0  -1   0   -0.01    0.00  -2
   0   1   0   -0.01    0.00   1
   0  -1   0    0.00    0.00  -2
   0   1   0    0.00    0.00   1
   0  -1   0    0.00    0.00  -2
   0   1   0    0.00    0.00   1
   1  -1   0    1.57    0.10   1
  -1  -1   0    1.41    0.10   1
   1  -1   0    1.42    0.10   1
  -1  -1   0    1.75    0.12   1
  -1  -1   0    1.51    0.12   1
  -1  -1   0    1.34    0.10   1
   1  -1   0    1.43    0.10   1
  -1   1   0    1.68    0.10   1
  -1   1   0    1.58    0.13   1
   1   1   0    1.41    0.10   1
  -1   1   0    1.75    0.10   1
  -1   1   0    1.46    0.10   1
   1   1   0    1.70    0.13   1
   1   1   0    1.43    0.10   1
  -2  -1   0   22.82    1.18   1
   2  -1   0   24.62    1.18   1
  -2  -1   0   23.41    1.20   1
  -2  -1   0   23.88    1.18   1
   2  -1   0   24.40    1.19   1
  -2  -1   0   22.87    1.41   1
   2  -1   0   24.25    1.20   1
  -2   1   0   23.40    1.19   1
  -2   1   0   23.76    1.18   1
   2   1   0   22.11    1.40   1
  -2   1   0   25.56    1.18   1
   2   1   0   23.22    1.19   1
  -2   1   0   23.57    1.42   1
   2   1   0   24.17    1.19   1
  -3  -1   0    4.22    0.26   1
   3  -1   0    4.44    0.29   1
  -3  -1   0    3.29    0.27   1
  -3  -1   0    3.08    0.30   1
  -3   1   0    4.46    0.26   1
   3   1   0    4.10    0.28   1
  -3   1   0    3.61    0.27   1
  -4  -1   0    2.04    0.22   1
  -4  -1   0    1.84    0.21   1
   4  -1   0    1.69    0.22   1
   4  -1   0    1.98    0.25   1
  -4   1   0    1.89    0.22   1
  -4   1   0    1.89    0.21   1
   4   1   0    1.58    0.21   1
   4   1   0    1.86    0.24   1
  -5  -1   0    0.52    0.15   1
   5  -1   0    0.83    0.22   1
  -5  -1   0    0.71    0.20   1
  -5   1   0    0.68    0.16   1
  -5   1   0    0.77    0.19   1
   5   1   0    0.71    0.22   1
  -6  -1   0    0.69    0.24   1
   6  -1   0    0.57    0.26   1
  -6   1   0    0.58    0.22   1
   1  -2   0   90.27    4.14   1
  -1  -2   0   83.64    4.14   1
  -1  -2   0   93.68    4.15   1
   1  -2   0   90.30    4.17   1
  -1  -2   0   85.25    4.99   1
   1  -2   0   81.14    4.14   1
  -1  -2   0   83.29    4.93   1
  -1   2   0   87.27    4.17   1
  -1   2   0   88.12    4.15   1
  -1   2   0   79.83    4.14   1
   1   2   0   83.78    4.99   1
   1   2   0   86.52    4.92   1
   1   2   0   82.55    4.14   1
   1   2   0   80.59    4.14   1
  -2  -2   0    3.01    0.19   1
  -2  -2   0    2.80    0.19   1
  -2  -2   0    2.78    0.20   1
  -2  -2   0    3.05    0.23   1
  -2  -2   0    3.29    0.22   1
  -2   2   0    3.39    0.21   1
  -2   2   0    3.13    0.25   1
  -2   2   0    3.15    0.19   1
  -2   2   0    3.50    0.20   1
  -3  -2   0    9.46    0.54   1
  -3  -2   0    8.61    0.62   1
   3  -2   0    8.70    0.53   1
  -3  -2   0    9.65    0.52   1
   3  -2   0   10.27    0.54   1
   3   2   0    8.39    0.59   1
  -3   2   0   10.27    0.54   1
  -3   2   0   10.91    0.52   1
   3   2   0    9.21    0.53   1
  -4  -2   0    1.41    0.21   1
   4  -2   0    1.60    0.20   1
  -4  -2   0    1.20    0.17   1
   4  -2   0    1.40    0.22   1
   4   2   0    1.23    0.21   1
  -4   2   0    1.66    0.20   1
  -4   2   0    1.25    0.19   1
   4   2   0    1.20    0.19   1
  -5  -2   0    1.93    0.24   1
  -5  -2   0    2.14    0.28   1
   5  -2   0    2.67    0.32   1
  -5   2   0    2.21    0.25   1
   5   2   0    2.60    0.32   1
  -5   2   0    2.23    0.28   1
  -6  -2   0    0.12    0.19   1
   6   2   0    0.22    0.23   1
  -6   2   0    0.31    0.21   1
   0   3   0   -0.25    0.03  -2
   0  -3   0   -0.25    0.03   1
   0   3   0   -0.20    0.05  -2
   0  -3   0   -0.20    0.05   1
   0   3   0   -0.19    0.03  -2
   0  -3   0   -0.19    0.03   1
   0   3   0   -0.20    0.03  -2
   0  -3   0   -0.20    0.03   1
   0  -3   0   -0.13    0.05  -2
   0   3   0   -0.13    0.05   1
   0  -3   0   -0.19    0.04  -2
   0   3   0   -0.19    0.04   1
  -1  -3   0    9.26    0.48   1
  -1  -3   0    9.47    0.56   1
  -1  -3   0    9.68    0.58   1
   1  -3   0    8.61    0.48   1
  -1  -3   0    9.26    0.48   1
   1  -3   0    9.44    0.48   1
   1  -3   0    9.97    0.49   1
   1   3   0    9.07    0.48   1
  -1   3   0   10.02    0.48   1
   1   3   0    9.36    0.58   1
  -1   3   0    9.94    0.49   1
   1   3   0    9.11    0.48   1
  -1   3   0    9.32    0.48   1
   1   3   0    9.56    0.56   1
  -2  -3   0    0.19    0.07   1
  -2  -3   0    0.05    0.05   1
  -2  -3   0    0.15    0.06   1
  -2  -3   0    0.10    0.07   1
   2   3   0    0.17    0.06   1
  -2   3   0    0.06    0.08   1
  -2   3   0    0.20    0.07   1
  -2   3   0    0.18    0.06   1
  -2   3   0    0.16    0.06   1
   2   3   0    0.23    0.07   1
  -3  -3   0    8.22    0.61   1
   3  -3   0    9.09    0.53   1
  -3  -3   0   10.24    0.53   1
  -3  -3   0    8.93    0.53   1
   3  -3   0   10.47    0.54   1
   3   3   0    8.85    0.60   1
   3   3   0    7.77    0.53   1
   3   3   0    9.78    0.54   1
  -3   3   0   10.36    0.54   1
  -3   3   0   11.00    0.52   1
  -4  -3   0    0.93    0.19   1
  -4  -3   0    0.46    0.13   1
   4  -3   0    0.63    0.19   1
   4  -3   0    0.63    0.14   1
  -4   3   0    0.53    0.13   1
   4   3   0    0.38    0.14   1
   4   3   0    0.60    0.11   1
  -4   3   0    0.72    0.16   1
   4   3   0    0.55    0.16   1
   5  -3   0    4.81    0.42   1
  -5  -3   0    4.58    0.37   1
  -5  -3   0    4.71    0.39   1
  -5   3   0    5.25    0.40   1
   5   3   0    4.87    0.41   1
  -5   3   0    4.89    0.37   1
  -6  -3   0    0.15    0.20   1
  -6   3   0    0.14    0.21   1
   0   4   0   56.40    2.77  -2
   0  -4   0   56.40    2.77   1
   0   4   0   56.35    2.76  -2
   0  -4   0   56.35    2.76   1
   0   4   0   55.73    2.76  -2
   0  -4   0   55.73    2.76   1
   0   4   0   56.74    3.33  -2
   0  -4   0   56.74    3.33   1
   0   4   0   56.02    2.75  -2
   0  -4   0   56.02    2.75   1
   0  -4   0   56.23    2.75  -2
   0   4   0   56.23    2.75   1
   0  -4   0   57.15    3.33  -2
   0   4   0   57.15    3.33   1
   0  -4   0   57.30    2.77  -2
   0   4   0   57.30    2.77   1
   0  -4   0   57.18    2.76  -2
   0   4   0   57.18    2.76   1
   0  -4   0   55.26    2.76  -2
   0   4   0   55.26    2.76   1
  -1  -4   0   72.14    3.53   1
   1  -4   0   72.68    3.55   1
  -1  -4   0   70.26    4.25   1
  -1  -4   0   70.52    3.53   1
  -1  -4   0   75.92    3.52   1
   1  -4   0   73.98    4.23   1
  -1  -4   0   71.87    4.18   1
   1  -4   0   76.94    3.53   1
   1  -4   0   72.39    3.52   1
   1   4   0   67.95    3.53   1
  -1   4   0   77.00    3.53   1
   1   4   0   71.64    4.18   1
   1   4   0   71.93    4.25   1
  -1   4   0   71.95    4.23   1
   1   4   0   71.53    3.53   1
  -1   4   0   71.95    3.53   1
  -1   4   0   72.57    3.55   1
   2  -4   0    8.01    0.47   1
  -2  -4   0    8.40    0.55   1
  -2  -4   0    8.42    0.54   1
  -2  -4   0    8.65    0.46   1
   2  -4   0    9.08    0.46   1
  -2  -4   0    8.87    0.46   1
   2  -4   0    8.82    0.47   1
  -2   4   0    8.96    0.46   1
  -2   4   0    8.25    0.45   1
   2   4   0    8.68    0.55   1
  -2   4   0    8.69    0.56   1
  -2   4   0    8.68    0.47   1
   2   4   0    8.37    0.55   1
   2   4   0    8.56    0.47   1
   2   4   0    8.56    0.46   1
   3  -4   0   15.22    0.81   1
  -3  -4   0   14.16    0.94   1
  -3  -4   0   15.42    0.81   1
  -3  -4   0   16.06    0.80   1
  -3   4   0   15.72    0.79   1
   3   4   0   15.30    0.81   1
   3   4   0   13.98    0.94   1
   3   4   0   16.08    0.81   1
  -3   4   0   14.63    0.81   1
   4  -4   0    1.89    0.25   1
  -4  -4   0    1.75    0.20   1
   4  -4   0    2.09    0.24   1
  -4  -4   0    1.93    0.23   1
  -4   4   0    1.78    0.22   1
   4   4   0    1.95    0.22   1
  -4   4   0    1.66    0.20   1
   4   4   0    1.55    0.19   1
   4   4   0    2.08    0.24   1
  -5  -4   0    2.06    0.25   1
  -5  -4   0    2.18    0.28   1
  -5   4   0    1.65    0.27   1
  -5   4   0    2.85    0.27   1
   5   4   0    2.57    0.33   1
  -6  -4   0   -0.19    0.17   1
  -6   4   0   -0.22    0.20   1
   0   5   0    0.04    0.04  -2
   0  -5   0    0.04    0.04   1
   0   5   0    0.07    0.03  -2
   0  -5   0    0.07    0.03   1
   0   5   0    0.08    0.03  -2
   0  -5   0    0.08    0.03   1
   0   5   0    0.10    0.03  -2
   0  -5   0    0.10    0.03   1
   0   5   0    0.22    0.06  -2
   0  -5   0    0.22    0.06   1
   0  -5   0    0.16    0.03  -2
   0   5   0    0.16    0.03   1
   0  -5   0    0.11    0.03  -2
   0   5   0    0.11    0.03   1
   0  -5   0    0.09    0.04  -2
   0   5   0    0.09    0.04   1
   0  -5   0    0.20    0.06  -2
   0   5   0    0.20    0.06   1
   0  -5   0    0.08    0.03  -2
   0   5   0    0.08    0.03   1
  -1  -5   0    4.04    0.22   1
  -1  -5   0    4.03    0.25   1
   1  -5   0    4.27    0.27   1
   1  -5   0    4.17    0.23   1
   1  -5   0    3.79    0.23   1
  -1  -5   0    4.37    0.22   1
  -1  -5   0    4.23    0.29   1
  -1  -5   0    3.90    0.23   1
   1  -5   0    3.71    0.22   1
  -1   5   0    3.67    0.22   1
  -1   5   0    3.90    0.26   1
  -1   5   0    3.89    0.23   1
   1   5   0    3.95    0.25   1
   1   5   0    4.24    0.22   1
   1   5   0    3.88    0.22   1
  -1   5   0    3.65    0.23   1
  -1   5   0    3.63    0.22   1
   1   5   0    4.37    0.29   1
   1   5   0    3.96    0.23   1
  -2  -5   0    0.51    0.10   1
  -2  -5   0    0.47    0.08   1
  -2  -5   0    0.49    0.09   1
  -2  -5   0    0.45    0.09   1
  -2   5   0    0.29    0.07   1
  -2   5   0    0.31    0.10   1
  -2   5   0    0.25    0.09   1
   2   5   0    0.45    0.08   1
  -2   5   0    0.33    0.08   1
   3  -5   0   15.40    0.85   1
  -3  -5   0   15.11    0.98   1
  -3  -5   0   16.15    0.99   1
  -3  -5   0   16.58    0.84   1
  -3  -5   0   16.22    0.85   1
   3  -5   0   17.14    0.84   1
  -3   5   0   16.09    0.85   1
   3   5   0   15.23    0.99   1
   3   5   0   16.35    0.85   1
   3   5   0   15.22    0.84   1
  -3   5   0   15.95    0.83   1
  -4  -5   0    1.96    0.22   1
  -4  -5   0    1.88    0.25   1
   4  -5   0    2.53    0.24   1
   4   5   0    2.13    0.25   1
  -4   5   0    2.28    0.24   1
   4   5   0    1.75    0.22   1
  -4   5   0    2.44    0.23   1
  -5  -5   0   10.61    0.66   1
   5  -5   0   11.26    0.71   1
  -5  -5   0   11.84    0.70   1
   5   5   0   11.77    0.71   1
  -5   5   0   10.54    0.66   1
  -5   5   0   11.69    0.70   1
  -6  -5   0   -0.13    0.17   1
   6  -5   0    0.10    0.23   1
  -6   5   0    0.23    0.21   1
   0   6   0  333.67   16.29  -2
   0  -6   0  333.67   16.29   1
   0   6   0  331.06   16.35  -2
   0  -6   0  331.06   16.35   1
   0   6   0  345.81   19.68  -2
   0  -6   0  345.81   19.68   1
   0   6   0  334.02   16.41  -2
   0  -6   0  334.02   16.41   1
   0   6   0  332.09   16.28  -2
   0  -6   0  332.09   16.28   1
   0  -6   0  336.84   16.42  -2
   0   6   0  336.84   16.42   1
   0  -6   0  333.26   16.35  -2
   0   6   0  333.26   16.35   1
   0  -6   0  336.83   16.27  -2
   0   6   0  336.83   16.27   1
   0  -6   0  334.95   16.28  -2
   0   6   0  334.95   16.28   1
   0  -6   0  345.48   19.62  -2
   0   6   0  345.48   19.62   1
   1  -6   0   13.44    0.74   1
  -1  -6   0   15.18    0.73   1
  -1  -6   0   14.80    0.73   1
   1  -6   0   14.84    0.88   1
   1  -6   0   14.64    0.73   1
  -1  -6   0   14.60    0.89   1
  -1  -6   0   14.14    0.85   1
   1  -6   0   15.45    0.74   1
  -1  -6   0   15.26    0.74   1
  -1   6   0   14.64    0.73   1
  -1   6   0   15.07    0.74   1
   1   6   0   15.00    0.90   1
   1   6   0   13.83    0.74   1
   1   6   0   14.08    0.73   1
  -1   6   0   14.61    0.73   1
  -1   6   0   14.27    0.74   1
   1   6   0   13.97    0.85   1
  -1   6   0   14.26    0.87   1
   1   6   0   14.32    0.73   1
  -2  -6   0    0.49    0.08   1
   2  -6   0    0.57    0.10   1
  -2  -6   0    0.43    0.08   1
   2  -6   0    0.52    0.09   1
  -2  -6   0    0.38    0.08   1
  -2  -6   0    0.48    0.09   1
   2  -6   0    0.52    0.11   1
  -2  -6   0    0.52    0.11   1
   2   6   0    0.55    0.12   1
   2   6   0    0.38    0.09   1
   2   6   0    0.39    0.08   1
  -2   6   0    0.42    0.09   1
  -2   6   0    0.44    0.09   1
  -2   6   0    0.54    0.13   1
   2   6   0    0.89    0.13   1
  -2   6   0    0.55    0.09   1
   3  -6   0    5.48    0.33   1
  -3  -6   0    5.41    0.38   1
  -3  -6   0    4.99    0.36   1
  -3  -6   0    5.18    0.33   1
   3  -6   0    4.93    0.34   1
   3   6   0    4.64    0.33   1
  -3   6   0    4.99    0.32   1
  -3   6   0    5.07    0.33   1
   3   6   0    5.00    0.39   1
   3   6   0    5.43    0.34   1
  -4  -6   0   10.16    0.59   1
  -4  -6   0   10.77    0.61   1
   4  -6   0   11.22    0.63   1
   4   6   0   10.68    0.61   1
   4   6   0    8.61    0.67   1
  -4   6   0   10.67    0.61   1
  -4   6   0    9.82    0.58   1
  -5  -6   0    0.49    0.15   1
   5  -6   0    0.89    0.24   1
  -5  -6   0    0.31    0.19   1
   5   6   0    0.89    0.22   1
  -5   6   0    0.62    0.19   1
  -5   6   0    0.48    0.16   1
  -6  -6   0    0.14    0.19   1
   6  -6   0    0.51    0.27   1
  -6   6   0    0.16    0.18   1
  -1  -7   0  146.23    6.93   1
   1  -7   0  149.04    6.99   1
   1  -7   0  145.69    8.37   1
  -1  -7   0  138.00    6.96   1
   1  -7   0  144.23    6.95   1
  -1  -7   0  145.01    6.95   1
   1  -7   0  144.65    6.96   1
  -1  -7   0  136.14    8.26   1
  -1   7   0  146.67    6.95   1
  -1   7   0  142.52    8.37   1
   1   7   0  141.57    8.24   1
   1   7   0  143.09    8.39   1
  -1   7   0  155.74    6.99   1
   1   7   0  133.71    6.96   1
   1   7   0  141.32    6.95   1
  -1   7   0  137.01    6.96   1
  -1   7   0  143.19    6.93   1
   1   7   0  146.49    6.93   1
  -2  -7   0   61.33    2.99   1
   2  -7   0   59.56    3.56   1
  -2  -7   0   59.32    3.59   1
   2  -7   0   63.59    2.98   1
  -2  -7   0   60.68    2.97   1
   2  -7   0   60.52    3.01   1
  -2  -7   0   59.79    3.53   1
   2  -7   0   63.08    3.00   1
  -2  -7   0   60.01    2.98   1
  -2   7   0   63.55    2.99   1
  -2   7   0   61.79    3.56   1
   2   7   0   60.45    3.60   1
   2   7   0   59.69    2.99   1
  -2   7   0   63.75    2.98   1
   2   7   0   56.48    2.99   1
   2   7   0   60.23    3.53   1
  -2   7   0   60.84    3.01   1
   3  -7   0    3.61    0.28   1
   3  -7   0    3.70    0.25   1
  -3  -7   0    3.36    0.26   1
  -3  -7   0    3.53    0.30   1
  -3  -7   0    3.12    0.26   1
   3   7   0    3.26    0.26   1
  -3   7   0    3.19    0.25   1
   3   7   0    3.36    0.31   1
   3   7   0    3.17    0.25   1
  -3   7   0    3.60    0.25   1
  -4  -7   0   24.22    1.26   1
   4  -7   0   26.14    1.27   1
  -4  -7   0   23.11    1.23   1
   4   7   0   20.18    1.45   1
  -4   7   0   24.02    1.26   1
   4   7   0   23.50    1.25   1
  -4   7   0   24.78    1.23   1
   5  -7   0    1.93    0.32   1
  -5  -7   0    1.64    0.24   1
  -5  -7   0    2.16    0.30   1
  -5   7   0    1.99    0.25   1
   5   7   0    1.62    0.30   1
  -5   7   0    1.74    0.26   1
  -6  -7   0    0.78    0.24   1
  -6   7   0    0.34    0.22   1
   0   8   0  232.24   12.03  -2
   0  -8   0  232.24   12.03   1
   0   8   0  267.51   12.00  -2
   0  -8   0  267.51   12.00   1
   0   8   0  252.56   11.98  -2
   0  -8   0  252.56   11.98   1
   0   8   0  244.38   14.44  -2
   0  -8   0  244.38   14.44   1
   0  -8   0  258.64   14.44  -2
   0   8   0  258.64   14.44   1
   0  -8   0  250.78   11.99  -2
   0   8   0  250.78   11.99   1
   0  -8   0  243.25   12.10  -2
   0   8   0  243.25   12.10   1
   0  -8   0  241.00   12.01  -2
   0   8   0  241.00   12.01   1
   0  -8   0  238.26   11.95  -2
   0   8   0  238.26   11.95   1
   1  -8   0    0.92    0.10   1
  -1  -8   0    0.58    0.10   1
  -1  -8   0    0.51    0.08   1
   1  -8   0    0.68    0.11   1
  -1  -8   0    0.63    0.08   1
  -1   8   0    0.92    0.11   1
   1   8   0    0.93    0.10   1
  -1   8   0    0.67    0.11   1
  -1   8   0    0.91    0.09   1
  -1   8   0    1.01    0.09   1
   1   8   0    0.65    0.09   1
   1   8   0    0.64    0.08   1
  -2  -8   0   15.69    0.82   1
  -2  -8   0   14.70    0.99   1
  -2  -8   0   15.27    0.81   1
   2  -8   0   16.98    0.96   1
   2  -8   0   15.36    0.82   1
  -2  -8   0   14.54    0.94   1
   2  -8   0   15.37    0.81   1
  -2  -8   0   15.16    0.81   1
   2  -8   0   17.76    0.84   1
   2   8   0   14.33    0.82   1
  -2   8   0   15.70    0.82   1
   2   8   0   17.80    0.96   1
  -2   8   0   15.10    0.95   1
  -2   8   0   16.20    0.81   1
   2   8   0   16.04    0.82   1
  -2   8   0   15.23    0.82   1
   2   8   0   17.64    1.01   1
  -2   8   0   15.37    0.81   1
   3  -8   0   22.96    1.12   1
   3  -8   0   22.81    1.14   1
  -3  -8   0   20.37    1.33   1
  -3  -8   0   20.63    1.30   1
  -3  -8   0   22.21    1.12   1
   3   8   0   20.58    1.12   1
  -3   8   0   22.30    1.13   1
   3   8   0   22.12    1.13   1
   3   8   0   20.80    1.32   1
  -3   8   0   22.55    1.11   1
   3   8   0   20.63    1.35   1
   4  -8   0    2.54    0.28   1
  -4  -8   0    2.34    0.26   1
  -4  -8   0    2.50    0.26   1
   4   8   0    3.17    0.29   1
  -4   8   0    2.54    0.25   1
  -4   8   0    2.09    0.24   1
  -5  -8   0    0.63    0.21   1
  -5  -8   0    0.72    0.18   1
   5  -8   0    0.91    0.25   1
   5   8   0    0.72    0.22   1
  -5   8   0    0.93    0.22   1
  -5   8   0    0.87    0.19   1
  -6  -8   0    1.64    0.30   1
  -6   8   0    1.54    0.30   1
   0   9   0    3.59    0.28  -2
   0  -9   0    3.59    0.28   1
   0  -9   0    3.26    0.20  -2
   0   9   0    3.26    0.20   1
   1  -9   0    6.81    0.38   1
   1  -9   0    6.84    0.39   1
  -1  -9   0    7.63    0.39   1
   1  -9   0    7.17    0.48   1
  -1  -9   0    6.91    0.49   1
   1  -9   0    7.36    0.39   1
  -1  -9   0    7.01    0.40   1
   1  -9   0    7.48    0.41   1
  -1  -9   0    7.50    0.38   1
  -1   9   0    6.84    0.38   1
  -1   9   0    6.86    0.47   1
   1   9   0    7.36    0.50   1
   1   9   0    6.90    0.39   1
   1   9   0    6.86    0.40   1
  -1   9   0    6.88    0.39   1
   1   9   0    7.40    0.38   1
  -1   9   0    6.67    0.40   1
   1   9   0    7.07    0.43   1
  -1   9   0    7.47    0.39   1
  -2  -9   0    3.61    0.26   1
   2  -9   0    4.74    0.26   1
  -2  -9   0    3.34    0.26   1
  -2  -9   0    3.67    0.33   1
   2   9   0    3.46    0.26   1
  -2   9   0    4.26    0.27   1
   2   9   0    3.65    0.26   1
  -2   9   0    4.19    0.28   1
  -2   9   0    4.87    0.27   1
  -3  -9   0    4.09    0.37   1
   3  -9   0    4.41    0.29   1
   3  -9   0    4.69    0.33   1
  -3  -9   0    3.80    0.31   1
  -3  -9   0    4.38    0.31   1
  -3   9   0    4.70    0.30   1
  -3   9   0    4.66    0.31   1
   3   9   0    4.20    0.31   1
   3   9   0    3.66    0.37   1
   3   9   0    4.69    0.36   1
   3   9   0    3.97    0.31   1
  -4  -9   0    4.70    0.36   1
   4  -9   0    4.31    0.38   1
  -4  -9   0    4.56    0.35   1
  -4   9   0    4.36    0.35   1
   4   9   0    4.98    0.38   1
  -4   9   0    4.42    0.34   1
  -5  -9   0    4.35    0.37   1
  -5  -9   0    3.96    0.36   1
   5  -9   0    4.13    0.43   1
  -5   9   0    4.33    0.38   1
   5   9   0    4.46    0.40   1
  -5   9   0    4.04    0.36   1
  -6  -9   0    0.22    0.20   1
  -6   9   0    0.00    0.22   1
   0  10   0    9.36    0.61  -2
   0 -10   0    9.36    0.61   1
   0  10   0    9.44    0.49  -2
   0 -10   0    9.44    0.49   1
   0  10   0    9.48    0.51  -2
   0 -10   0    9.48    0.51   1
   0  10   0    8.62    0.48  -2
   0 -10   0    8.62    0.48   1
   0  10   0    8.61    0.48  -2
   0 -10   0    8.61    0.48   1
   0 -10   0    9.80    0.61  -2
   0  10   0    9.80    0.61   1
   0 -10   0    8.98    0.48  -2
   0  10   0    8.98    0.48   1
   0 -10   0    9.51    0.50  -2
   0  10   0    9.51    0.50   1
   0 -10   0    9.03    0.49  -2
   0  10   0    9.03    0.49   1
   1 -10   0    7.96    0.46   1
   1 -10   0    7.93    0.43   1
  -1 -10   0    8.09    0.45   1
  -1 -10   0    7.79    0.55   1
   1 -10   0    7.96    0.54   1
  -1 -10   0    8.67    0.43   1
   1 -10   0    8.27    0.44   1
   1 -10   0    8.50    0.44   1
  -1 -10   0    8.01    0.44   1
   1  10   0    8.44    0.44   1
  -1  10   0    8.09    0.44   1
   1  10   0    8.05    0.46   1
   1  10   0    7.95    0.49   1
  -1  10   0    7.57    0.45   1
   1  10   0    7.67    0.55   1
  -1  10   0    7.97    0.44   1
  -1  10   0    7.88    0.43   1
  -1  10   0    7.86    0.53   1
   1  10   0    8.27    0.44   1
  -2 -10   0    0.27    0.13   1
  -2 -10   0    0.27    0.10   1
  -2 -10   0    0.31    0.07   1
   2  10   0    0.35    0.11   1
   2  10   0    0.45    0.10   1
  -2  10   0    0.31    0.09   1
  -2  10   0    0.27    0.09   1
   3 -10   0    1.38    0.19   1
  -3 -10   0    0.93    0.16   1
  -3 -10   0    0.77    0.19   1
  -3 -10   0    0.85    0.13   1
   3 -10   0    1.44    0.16   1
  -3  10   0    1.50    0.18   1
   3  10   0    0.67    0.15   1
   3  10   0    0.74    0.16   1
  -3  10   0    1.40    0.18   1
   3  10   0    0.78    0.17   1
   4 -10   0    0.62    0.20   1
  -4 -10   0    0.23    0.15   1
  -4 -10   0    0.10    0.13   1
   4  10   0    0.35    0.17   1
  -4  10   0    0.40    0.14   1
  -4  10   0    0.37    0.16   1
  -5 -10   0    2.15    0.29   1
  -5 -10   0    2.71    0.32   1
   5 -10   0    2.24    0.34   1
  -5  10   0    2.90    0.31   1
  -6 -10   0    0.33    0.22   1
   0  11   0    0.26    0.11  -2
   0 -11   0    0.26    0.11   1
   0  11   0    0.03    0.08  -2
   0 -11   0    0.03    0.08   1
   0  11   0    0.01    0.04  -2
   0 -11   0    0.01    0.04   1
   0  11   0    0.13    0.06  -2
   0 -11   0    0.13    0.06   1
   0  11   0    0.12    0.07  -2
   0 -11   0    0.12    0.07   1
   0 -11   0    0.20    0.08  -2
   0  11   0    0.20    0.08   1
   0 -11   0    0.10    0.09  -2
   0  11   0    0.10    0.09   1
   0 -11   0    0.10    0.06  -2
   0  11   0    0.10    0.06   1
   0 -11   0    0.04    0.05  -2
   0  11   0    0.04    0.05   1
   1 -11   0   43.29    2.13   1
  -1 -11   0   44.86    2.13   1
   1 -11   0   43.99    2.16   1
   1 -11   0   42.93    2.14   1
  -1 -11   0   42.34    2.60   1
   1 -11   0   41.40    2.16   1
   1 -11   0   46.17    2.59   1
  -1 -11   0   41.55    2.16   1
  -1 -11   0   43.72    2.15   1
  -1  11   0   43.84    2.15   1
   1  11   0   43.73    2.13   1
  -1  11   0   43.32    2.16   1
  -1  11   0   43.37    2.13   1
   1  11   0   44.61    2.61   1
  -1  11   0   43.35    2.58   1
  -1  11   0   42.55    2.15   1
   1  11   0   44.59    2.16   1
   1  11   0   41.35    2.14   1
   1  11   0   43.03    2.51   1
  -2 -11   0    0.31    0.14   1
   2 -11   0    0.29    0.08   1
  -2 -11   0    0.21    0.10   1
   2 -11   0    0.43    0.13   1
   2 -11   0    0.47    0.12   1
  -2  11   0    0.39    0.09   1
  -2  11   0    0.44    0.11   1
   2  11   0    0.19    0.11   1
  -2  11   0    0.33    0.10   1
  -2  11   0    0.41    0.09   1
   2  11   0    0.16    0.09   1
   2  11   0    0.48    0.09   1
   3 -11   0   12.69    0.71   1
   3 -11   0   12.72    0.74   1
  -3 -11   0   13.19    0.81   1
  -3 -11   0   13.90    0.73   1
  -3 -11   0   12.80    0.88   1
  -3  11   0   13.56    0.73   1
   3  11   0   13.78    0.74   1
  -3  11   0   12.98    0.71   1
  -3  11   0   12.53    0.71   1
   3  11   0   12.98    0.84   1
   4 -11   0    4.17    0.36   1
  -4 -11   0    3.43    0.38   1
  -4 -11   0    3.63    0.32   1
  -4  11   0    4.01    0.33   1
   4  11   0    3.64    0.33   1
  -4  11   0    4.00    0.31   1
  -5 -11   0    0.41    0.20   1
   5 -11   0   -0.08    0.21   1
  -5 -11   0    0.09    0.16   1
  -5  11   0    0.03    0.17   1
   5  11   0    0.30    0.22   1
  -6 -11   0    1.15    0.27   1
   0  12   0    0.23    0.06  -2
   0 -12   0    0.23    0.06   1
   0  12   0    0.14    0.09  -2
   0 -12   0    0.14    0.09   1
   0  12   0    0.09    0.07  -2
   0 -12   0    0.09    0.07   1
   0  12   0    0.19    0.07  -2
   0 -12   0    0.19    0.07   1
   0  12   0    0.10    0.11  -2
   0 -12   0    0.10    0.11   1
   0 -12   0    0.11    0.09  -2
   0  12   0    0.11    0.09   1
   0 -12   0    0.08    0.10  -2
   0  12   0    0.08    0.10   1
   0 -12   0    0.10    0.06  -2
   0  12   0    0.10    0.06   1
   0 -12   0    0.14    0.07  -2
   0  12   0    0.14    0.07   1
  -1 -12   0   12.41    0.67   1
   1 -12   0   12.84    0.67   1
   1 -12   0   12.71    0.66   1
  -1 -12   0   12.21    0.68   1
   1 -12   0   12.87    0.67   1
  -1 -12   0   12.42    0.66   1
   1 -12   0   13.76    0.82   1
  -1 -12   0   12.28    0.83   1
   1 -12   0   11.77    0.69   1
   1  12   0   12.95    0.83   1
  -1  12   0   12.98    0.81   1
   1  12   0   12.77    0.66   1
  -1  12   0   13.71    0.67   1
  -1  12   0   12.94    0.66   1
   1  12   0   12.20    0.67   1
   1  12   0   11.87    0.75   1
   1  12   0   11.56    0.68   1
  -1  12   0   12.56    0.68   1
  -1  12   0   13.35    0.67   1
   2 -12   0    3.30    0.28   1
  -2 -12   0    2.85    0.24   1
   2 -12   0    2.37    0.20   1
  -2 -12   0    2.60    0.32   1
   2 -12   0    2.93    0.25   1
  -2  12   0    3.54    0.25   1
  -2  12   0    3.03    0.21   1
  -2  12   0    2.93    0.23   1
  -2  12   0    2.66    0.22   1
   2  12   0    3.06    0.22   1
   2  12   0    2.53    0.22   1
   2  12   0    2.63    0.23   1
   3 -12   0    9.40    0.58   1
  -3 -12   0    9.61    0.56   1
  -3 -12   0    9.39    0.69   1
  -3 -12   0    9.20    0.60   1
  -3  12   0    9.85    0.55   1
   3  12   0    9.56    0.57   1
  -3  12   0    9.17    0.55   1
   3  12   0    9.52    0.63   1
  -3  12   0    9.62    0.56   1
  -4 -12   0    7.63    0.60   1
  -4 -12   0    7.80    0.51   1
   4 -12   0    7.43    0.52   1
  -4  12   0    7.01    0.49   1
  -4  12   0    7.98    0.49   1
  -4  12   0    7.49    0.49   1
   4  12   0    7.89    0.51   1
   5 -12   0    0.43    0.23   1
  -5 -12   0    0.29    0.19   1
  -5 -12   0    0.21    0.17   1
  -5  12   0    0.13    0.17   1
  -5  12   0    0.05    0.18   1
  -6 -12   0    0.06    0.20   1
   0  13   0    0.10    0.06  -2
   0 -13   0    0.10    0.06   1
   0  13   0   -0.05    0.09  -2
   0 -13   0   -0.05    0.09   1
   0  13   0    0.14    0.12  -2
   0 -13   0    0.14    0.12   1
   0  13   0    0.10    0.06  -2
   0 -13   0    0.10    0.06   1
   0  13   0    0.04    0.07  -2
   0 -13   0    0.04    0.07   1
   0 -13   0    0.14    0.07  -2
   0  13   0    0.14    0.07   1
   0 -13   0    0.19    0.11  -2
   0  13   0    0.19    0.11   1
   0 -13   0    0.08    0.10  -2
   0  13   0    0.08    0.10   1
   0 -13   0    0.08    0.08  -2
   0  13   0    0.08    0.08   1
   1 -13   0    8.82    0.51   1
   1 -13   0    8.14    0.50   1
  -1 -13   0    8.86    0.47   1
  -1 -13   0    9.13    0.51   1
  -1 -13   0    8.57    0.62   1
   1 -13   0    8.58    0.47   1
   1 -13   0    9.35    0.61   1
   1 -13   0    8.86    0.49   1
   1  13   0    8.38    0.49   1
   1  13   0    8.62    0.48   1
   1  13   0    8.49    0.54   1
   1  13   0    8.74    0.51   1
  -1  13   0    8.75    0.59   1
  -1  13   0    8.88    0.49   1
  -1  13   0    9.11    0.48   1
  -1  13   0    8.87    0.49   1
   2 -13   0   14.33    0.82   1
   2 -13   0   14.98    0.79   1
  -2 -13   0   15.29    0.99   1
  -2 -13   0   14.87    0.81   1
   2 -13   0   15.57    0.95   1
   2  13   0   15.51    0.81   1
  -2  13   0   15.45    0.80   1
   2  13   0   14.68    0.90   1
   2  13   0   13.88    0.82   1
  -2  13   0   15.78    0.79   1
  -2  13   0   14.93    0.94   1
  -2  13   0   14.44    0.80   1
   3 -13   0    7.87    0.49   1
  -3 -13   0    6.47    0.45   1
  -3 -13   0    6.80    0.57   1
  -3 -13   0    6.29    0.45   1
  -3  13   0    7.48    0.44   1
  -3  13   0    7.85    0.44   1
  -3  13   0    7.32    0.45   1
  -3  13   0    6.64    0.46   1
   3  13   0    6.60    0.45   1
   3  13   0    6.49    0.48   1
   4 -13   0    1.07    0.24   1
  -4 -13   0    1.11    0.21   1
  -4 -13   0    1.08    0.24   1
   4  13   0    1.33    0.23   1
  -4  13   0    1.59    0.24   1
  -4  13   0    1.38    0.22   1
  -4  13   0    1.38    0.21   1
  -5 -13   0    2.10    0.29   1
   5 -13   0    2.12    0.38   1
   5  13   0    2.32    0.33   1
  -5  13   0    2.28    0.30   1
  -5  13   0    1.91    0.30   1
  -6 -13   0    0.22    0.21   1
  -6  13   0    0.20    0.21   1
   0  14   0   88.52    4.34  -2
   0 -14   0   88.52    4.34   1
   0  14   0   93.50    4.37  -2
   0 -14   0   93.50    4.37   1
   0  14   0   80.07    4.35  -2
   0 -14   0   80.07    4.35   1
   0  14   0   91.53    5.25  -2
   0 -14   0   91.53    5.25   1
   0  14   0   84.51    4.32  -2
   0 -14   0   84.51    4.32   1
   0 -14   0   93.02    4.35  -2
   0  14   0   93.02    4.35   1
   0 -14   0   90.46    4.32  -2
   0  14   0   90.46    4.32   1
   1 -14   0    4.12    0.27   1
  -1 -14   0    4.45    0.39   1
  -1 -14   0    3.91    0.25   1
   1 -14   0    4.08    0.25   1
  -1 -14   0    4.01    0.30   1
   1 -14   0    4.59    0.37   1
   1 -14   0    4.21    0.31   1
   1  14   0    3.81    0.28   1
  -1  14   0    4.05    0.28   1
   1  14   0    3.99    0.26   1
  -1  14   0    4.30    0.27   1
   1  14   0    3.74    0.29   1
  -1  14   0    4.16    0.34   1
  -1  14   0    4.11    0.26   1
   1  14   0    3.71    0.27   1
  -2 -14   0   30.88    1.51   1
   2 -14   0   30.47    1.78   1
   2 -14   0   29.10    1.51   1
  -2 -14   0   29.29    1.82   1
   2  14   0   28.48    1.49   1
   2  14   0   28.16    1.71   1
  -2  14   0   28.83    1.47   1
  -2  14   0   29.18    1.77   1
  -2  14   0   29.09    1.49   1
  -2  14   0   28.35    1.49   1
  -3 -14   0    3.55    0.32   1
   3 -14   0    3.66    0.34   1
  -3 -14   0    3.65    0.42   1
  -3 -14   0    3.36    0.26   1
  -3  14   0    3.54    0.30   1
  -3  14   0    4.15    0.30   1
   3  14   0    3.30    0.30   1
   3  14   0    3.48    0.31   1
  -3  14   0    3.45    0.28   1
  -3  14   0    3.57    0.29   1
  -4 -14   0    1.11    0.25   1
   4 -14   0    0.83    0.24   1
  -4 -14   0    0.77    0.20   1
  -4  14   0    1.20    0.21   1
  -4  14   0    1.02    0.21   1
  -4  14   0    1.13    0.21   1
   4  14   0    0.91    0.22   1
   5 -14   0    0.85    0.28   1
  -5 -14   0    0.85    0.21   1
  -5  14   0    0.71    0.21   1
   5  14   0    0.84    0.26   1
  -5  14   0    0.98    0.23   1
  -6 -14   0    0.05    0.21   1
  -6  14   0    0.21    0.22   1
   0  15   0    3.09    0.26  -2
   0 -15   0    3.09    0.26   1
   0  15   0    3.11    0.34  -2
   0 -15   0    3.11    0.34   1
   0 -15   0    3.16    0.24  -2
   0  15   0    3.16    0.24   1
   0 -15   0    2.66    0.22  -2
   0  15   0    2.66    0.22   1
  -1 -15   0    2.05    0.30   1
   1 -15   0    2.13    0.29   1
  -1 -15   0    1.65    0.21   1
   1 -15   0    2.19    0.25   1
   1  15   0    1.66    0.16   1
  -1  15   0    1.78    0.17   1
  -1  15   0    1.48    0.19   1
   1  15   0    1.68    0.18   1
  -1  15   0    1.79    0.16   1
   1  15   0    1.63    0.20   1
  -2 -15   0   24.63    1.35   1
  -2 -15   0   24.44    1.63   1
   2 -15   0   26.22    1.37   1
   2 -15   0   27.52    1.60   1
  -2  15   0   26.36    1.34   1
  -2  15   0   28.36    1.34   1
   2  15   0   25.24    1.53   1
  -2  15   0   25.74    1.32   1
   2  15   0   23.32    1.33   1
   2  15   0   25.34    1.33   1
  -2  15   0   28.07    1.59   1
  -3 -15   0    3.47    0.42   1
   3 -15   0    3.49    0.35   1
  -3 -15   0    3.71    0.32   1
  -3  15   0    3.32    0.28   1
   3  15   0    3.10    0.29   1
  -3  15   0    3.82    0.30   1
  -3  15   0    3.42    0.28   1
   3  15   0    2.89    0.31   1
  -3  15   0    3.46    0.30   1
  -4 -15   0    0.24    0.21   1
   4 -15   0    0.77    0.24   1
  -4 -15   0    0.22    0.17   1
  -4  15   0    0.28    0.16   1
  -4  15   0    0.36    0.17   1
   4  15   0    0.42    0.20   1
  -4  15   0    0.32    0.17   1
   5 -15   0    0.62    0.27   1
  -5 -15   0    0.21    0.18   1
  -5  15   0    0.44    0.20   1
  -5  15   0    0.31    0.19   1
   5  15   0    0.17    0.22   1
  -6 -15   0   -0.18    0.19   1
   0  16   0   -0.06    0.16  -2
   0 -16   0   -0.06    0.16   1
   0  16   0    0.07    0.12  -2
   0 -16   0    0.07    0.12   1
   0 -16   0    0.20    0.11  -2
   0  16   0    0.20    0.11   1
   0 -16   0    0.15    0.10  -2
   0  16   0    0.15    0.10   1
   1 -16   0    0.27    0.17   1
  -1 -16   0    0.32    0.18   1
   1 -16   0   -0.14    0.15   1
  -1 -16   0    0.19    0.14   1
   1  16   0    0.15    0.08   1
  -1  16   0    0.25    0.10   1
  -1  16   0    0.09    0.10   1
  -1  16   0   -0.06    0.12   1
   1  16   0    0.19    0.10   1
   1  16   0    0.13    0.12   1
  -2 -16   0    3.68    0.43   1
  -2 -16   0    2.78    0.30   1
   2  16   0    2.91    0.27   1
  -3 -16   0    1.91    0.26   1
   3 -16   0    2.17    0.28   1
  -3 -16   0    1.74    0.31   1
  -3  16   0    2.30    0.27   1
  -3  16   0    1.87    0.22   1
   3  16   0    1.87    0.23   1
   3  16   0    1.69    0.25   1
  -3  16   0    2.01    0.24   1
  -4 -16   0    1.02    0.26   1
   4 -16   0    1.05    0.27   1
  -4 -16   0    1.21    0.23   1
  -4  16   0    0.77    0.20   1
   4  16   0    0.87    0.23   1
  -4  16   0    0.88    0.23   1
  -4  16   0    0.87    0.20   1
  -5 -16   0    0.07    0.17   1
   5  16   0    0.05    0.20   1
  -5  16   0   -0.19    0.16   1
  -5  16   0    0.00    0.16   1
  -6 -16   0   -0.01    0.20   1
   0  17   0   -0.05    0.12  -2
   0 -17   0   -0.05    0.12   1
   0  17   0   -0.08    0.17  -2
   0 -17   0   -0.08    0.17   1
   0 -17   0   -0.01    0.09  -2
   0  17   0   -0.01    0.09   1
   0 -17   0    0.02    0.11  -2
   0  17   0    0.02    0.11   1
   1 -17   0    1.80    0.27   1
   1 -17   0    1.80    0.24   1
  -1 -17   0    1.77    0.29   1
  -1 -17   0    1.74    0.24   1
  -1  17   0    1.39    0.17   1
   1  17   0    1.67    0.20   1
   1  17   0    1.39    0.15   1
  -1  17   0    1.50    0.17   1
   1  17   0    1.21    0.16   1
  -1  17   0    1.94    0.22   1
   2 -17   0   13.53    0.74   1
  -2 -17   0   11.41    0.72   1
  -2 -17   0   10.85    0.88   1
   2 -17   0   13.53    0.84   1
  -2  17   0   12.33    0.68   1
   2  17   0   11.23    0.70   1
  -2  17   0   11.25    0.69   1
   2  17   0   12.35    0.69   1
  -2  17   0   13.06    0.71   1
   2  17   0   12.71    0.75   1
   3 -17   0    0.67    0.22   1
  -3 -17   0    0.33    0.16   1
  -3 -17   0    0.45    0.22   1
  -3  17   0    0.49    0.16   1
   3  17   0    0.26    0.15   1
  -3  17   0    0.74    0.18   1
   3  17   0    0.42    0.18   1
  -3  17   0    0.65    0.16   1
   4 -17   0    0.94    0.27   1
  -4 -17   0    0.52    0.20   1
  -4 -17   0    0.64    0.23   1
  -4  17   0    0.34    0.19   1
   4  17   0    0.48    0.21   1
  -4  17   0    0.57    0.20   1
  -4  17   0    0.95    0.20   1
  -5 -17   0    0.47    0.19   1
   5 -17   0    0.76    0.29   1
  -5  17   0    0.38    0.21   1
  -5  17   0    0.17    0.18   1
   5  17   0    0.40    0.23   1
   0  18   0   17.44    0.97  -2
   0 -18   0   17.44    0.97   1
   0  18   0   17.86    1.18  -2
   0 -18   0   17.86    1.18   1
   0 -18   0   18.75    0.96  -2
   0  18   0   18.75    0.96   1
   0 -18   0   16.96    0.92  -2
   0  18   0   16.96    0.92   1
  -1 -18   0    0.23    0.20   1
   1 -18   0    0.20    0.15   1
   1 -18   0    0.32    0.20   1
  -1 -18   0    0.13    0.15   1
  -1  18   0    0.21    0.12   1
   1  18   0    0.21    0.13   1
  -1  18   0    0.21    0.14   1
   1  18   0    0.08    0.08   1
  -1  18   0    0.15    0.10   1
   1  18   0    0.10    0.10   1
   2 -18   0    1.89    0.27   1
  -2 -18   0    1.73    0.25   1
   2 -18   0    1.77    0.28   1
  -2 -18   0    1.70    0.32   1
   2  18   0    1.50    0.17   1
  -2  18   0    2.04    0.25   1
   2  18   0    1.48    0.21   1
  -2  18   0    1.97    0.22   1
   2  18   0    1.68    0.23   1
  -2  18   0    1.87    0.21   1
   3 -18   0    4.68    0.42   1
  -3 -18   0    4.72    0.49   1
   3 -18   0    4.17    0.35   1
  -3 -18   0    4.49    0.38   1
  -3  18   0    4.66    0.34   1
   3  18   0    3.79    0.35   1
  -3  18   0    4.39    0.35   1
  -3  18   0    4.24    0.34   1
  -4 -18   0    1.55    0.32   1
  -4 -18   0    1.41    0.25   1
   4 -18   0    1.70    0.33   1
  -4  18   0    1.49    0.26   1
  -4  18   0    1.68    0.27   1
   4  18   0    1.78    0.30   1
  -4  18   0    1.71    0.25   1
  -5 -18   0    0.22    0.18   1
  -5  18   0    0.16    0.20   1
   0  19   0    0.22    0.21  -2
   0 -19   0    0.22    0.21   1
   0  19   0    0.42    0.16  -2
   0 -19   0    0.42    0.16   1
   0 -19   0    0.49    0.14  -2
   0  19   0    0.49    0.14   1
   0 -19   0    0.52    0.13  -2
   0  19   0    0.52    0.13   1
   1 -19   0   17.39    1.14   1
  -1 -19   0   17.16    1.15   1
   1 -19   0   16.33    0.95   1
  -1 -19   0   16.12    0.94   1
  -1  19   0   17.14    0.90   1
  -1  19   0   18.50    0.94   1
   1  19   0   16.99    0.90   1
   1  19   0   15.89    1.02   1
  -1  19   0   17.16    0.91   1
   1  19   0   16.46    0.92   1
  -2 -19   0    1.22    0.30   1
  -2 -19   0    1.37    0.23   1
   2 -19   0    1.68    0.26   1
   2 -19   0    1.41    0.25   1
   2  19   0    1.45    0.21   1
  -2  19   0    1.13    0.19   1
   2  19   0    1.36    0.16   1
   2  19   0    1.00    0.19   1
  -2  19   0    1.36    0.22   1
  -2  19   0    1.48    0.20   1
   3 -19   0    9.23    0.62   1
  -3 -19   0    9.43    0.59   1
  -3 -19   0    7.85    0.71   1
  -3  19   0    8.14    0.55   1
   3  19   0    7.43    0.54   1
  -3  19   0    8.78    0.56   1
  -3  19   0    8.84    0.53   1
  -4 -19   0    0.46    0.20   1
  -4 -19   0    0.73    0.27   1
   4 -19   0    0.78    0.27   1
   4  19   0    0.64    0.24   1
  -4  19   0    0.65    0.19   1
  -4  19   0    0.94    0.22   1
  -4  19   0    0.95    0.23   1
   0  20   0    2.83    0.30  -2
   0 -20   0    2.83    0.30   1
   0  20   0    2.67    0.42  -2
   0 -20   0    2.67    0.42   1
   0 -20   0    2.60    0.24  -2
   0  20   0    2.60    0.24   1
   0 -20   0    3.03    0.29  -2
   0  20   0    3.03    0.29   1
   1 -20   0   14.51    0.99   1
  -1 -20   0   14.58    1.02   1
  -1 -20   0   14.27    0.83   1
   1 -20   0   15.38    0.85   1
  -1  20   0   15.13    0.81   1
   1  20   0   13.11    0.87   1
   1  20   0   13.38    0.77   1
   1  20   0   14.45    0.81   1
  -1  20   0   14.14    0.79   1
  -1  20   0   14.29    0.77   1
  -2 -20   0    0.77    0.21   1
   2 -20   0    0.90    0.23   1
   2 -20   0    0.86    0.24   1
  -2 -20   0    0.77    0.27   1
   2  20   0    1.05    0.21   1
  -2  20   0    0.90    0.20   1
  -2  20   0    1.04    0.20   1
  -2  20   0    1.04    0.18   1
   2  20   0    0.88    0.13   1
   2  20   0    0.90    0.21   1
  -3 -20   0    0.55    0.20   1
  -3 -20   0    0.56    0.24   1
   3 -20   0    0.41    0.22   1
  -3  20   0    0.39    0.17   1
   3  20   0    0.37    0.19   1
  -3  20   0    0.32    0.18   1
  -3  20   0    0.71    0.20   1
  -4 -20   0    1.15    0.25   1
  -4 -20   0    1.18    0.30   1
   4 -20   0    1.07    0.29   1
  -4  20   0    0.94    0.22   1
  -4  20   0    0.91    0.23   1
   4  20   0    0.99    0.27   1
  -4  20   0    1.04    0.23   1
  -5  20   0    1.07    0.24   1
   0  21   0   -0.20    0.20  -2
   0 -21   0   -0.20    0.20   1
   0  21   0    0.10    0.16  -2
   0 -21   0    0.10    0.16   1
   0 -21   0   -0.06    0.10  -2
   0  21   0   -0.06    0.10   1
   0 -21   0    0.18    0.15  -2
   0  21   0    0.18    0.15   1
   1 -21   0    2.57    0.39   1
   1 -21   0    2.59    0.31   1
  -1 -21   0    2.61    0.41   1
  -1 -21   0    2.13    0.30   1
   1  21   0    2.30    0.22   1
   1  21   0    2.73    0.30   1
   1  21   0    2.72    0.26   1
  -1  21   0    2.32    0.25   1
  -1  21   0    2.48    0.24   1
  -1  21   0    2.80    0.30   1
  -2 -21   0    5.76    0.44   1
  -2 -21   0    5.76    0.57   1
   2 -21   0    5.40    0.47   1
   2 -21   0    5.06    0.50   1
   2  21   0    5.15    0.41   1
   2  21   0    5.18    0.40   1
  -2  21   0    5.57    0.42   1
  -2  21   0    5.25    0.39   1
  -2  21   0    5.46    0.38   1
  -3 -21   0    1.66    0.28   1
   3 -21   0    1.39    0.31   1
  -3 -21   0    1.40    0.34   1
  -3  21   0    1.68    0.27   1
  -3  21   0    1.58    0.26   1
   3  21   0    1.91    0.29   1
  -3  21   0    1.73    0.25   1
  -4 -21   0    0.48    0.25   1
  -4 -21   0    0.44    0.20   1
  -4  21   0    0.66    0.21   1
   4  21   0    0.70    0.24   1
  -4  21   0    0.43    0.19   1
  -5  21   0    0.14    0.20   1
   0  22   0    1.77    0.33  -2
   0 -22   0    1.77    0.33   1
   0  22   0    1.97    0.28  -2
   0 -22   0    1.97    0.28   1
   0 -22   0    1.85    0.23  -2
   0  22   0    1.85    0.23   1
   0 -22   0    2.08    0.26  -2
   0  22   0    2.08    0.26   1
  -1 -22   0    5.86    0.57   1
   1 -22   0    5.57    0.47   1
   1 -22   0    5.51    0.55   1
  -1 -22   0    5.68    0.46   1
   1  22   0    5.75    0.40   1
  -1  22   0    5.97    0.41   1
   1  22   0    5.38    0.40   1
  -1  22   0    6.09    0.39   1
  -1  22   0    6.47    0.45   1
   1  22   0    5.67    0.43   1
  -2 -22   0    8.65    0.76   1
  -2 -22   0    8.83    0.60   1
   2 -22   0    9.23    0.71   1
   2 -22   0    9.80    0.66   1
  -2  22   0    8.94    0.55   1
   2  22   0    8.65    0.59   1
  -2  22   0    8.82    0.57   1
   2  22   0    9.29    0.57   1
  -2  22   0    8.79    0.59   1
   3 -22   0    0.17    0.23   1
  -3 -22   0   -0.03    0.22   1
  -3 -22   0    0.24    0.19   1
   3  22   0    0.08    0.18   1
  -3  22   0   -0.09    0.15   1
  -3  22   0    0.05    0.14   1
  -3  22   0   -0.03    0.17   1
  -4 -22   0    0.14    0.18   1
  -4 -22   0    0.61    0.26   1
   4 -22   0    0.07    0.26   1
   4  22   0    0.27    0.23   1
  -4  22   0    0.04    0.16   1
  -4  22   0    0.42    0.19   1
   0  23   0    0.02    0.18  -2
   0 -23   0    0.02    0.18   1
   0  23   0   -0.15    0.21  -2
   0 -23   0   -0.15    0.21   1
   0 -23   0   -0.02    0.13  -2
   0  23   0   -0.02    0.13   1
   0 -23   0   -0.03    0.16  -2
   0  23   0   -0.03    0.16   1
   1 -23   0    1.05    0.29   1
  -1 -23   0    1.21    0.27   1
   1 -23   0    1.15    0.26   1
  -1 -23   0    1.30    0.32   1
   1  23   0    0.84    0.16   1
  -1  23   0    1.27    0.20   1
   1  23   0    1.03    0.20   1
   1  23   0    0.95    0.22   1
  -1  23   0    1.46    0.26   1
  -2 -23   0    3.77    0.51   1
   2 -23   0    4.08    0.45   1
  -2 -23   0    3.75    0.37   1
   2 -23   0    4.03    0.40   1
   2  23   0    3.37    0.33   1
   2  23   0    3.61    0.35   1
  -2  23   0    3.01    0.35   1
  -2  23   0    3.27    0.33   1
  -2  23   0    3.37    0.31   1
  -3 -23   0    0.01    0.18   1
   3 -23   0   -0.29    0.22   1
  -3 -23   0   -0.07    0.23   1
   3  23   0    0.11    0.18   1
  -3  23   0   -0.01    0.17   1
  -3  23   0    0.01    0.15   1
  -3  23   0    0.02    0.16   1
  -4 -23   0    0.02    0.18   1
  -4 -23   0    0.31    0.25   1
   4 -23   0    0.43    0.27   1
  -4  23   0    0.05    0.20   1
  -4  23   0    0.34    0.19   1
   4  23   0   -0.14    0.22   1
   0  24   0    0.36    0.25  -2
   0 -24   0    0.36    0.25   1
   0  24   0    0.26    0.21  -2
   0 -24   0    0.26    0.21   1
   0 -24   0    0.51    0.20  -2
   0  24   0    0.51    0.20   1
   0 -24   0    0.59    0.18  -2
   0  24   0    0.59    0.18   1
   1 -24   0    1.22    0.28   1
  -1 -24   0    1.61    0.36   1
   1 -24   0    1.31    0.32   1
  -1 -24   0    1.60    0.30   1
  -1  24   0    1.49    0.26   1
  -1  24   0    1.39    0.22   1
   1  24   0    1.69    0.28   1
   1  24   0    1.38    0.22   1
  -2 -24   0    0.52    0.22   1
   2 -24   0    0.35    0.22   1
   2 -24   0    0.55    0.25   1
  -2 -24   0    0.51    0.29   1
   2  24   0    0.55    0.20   1
  -2  24   0    0.29    0.20   1
   2  24   0    0.41    0.21   1
  -2  24   0    0.40    0.17   1
  -2  24   0    0.38    0.19   1
  -3 -24   0    0.27    0.20   1
  -3 -24   0    0.36    0.29   1
  -3  24   0    0.63    0.20   1
  -3  24   0    0.25    0.20   1
   3  24   0    0.15    0.21   1
  -3  24   0    0.29    0.19   1
  -4 -24   0    0.99    0.27   1
  -4 -24   0    1.19    0.32   1
  -4  24   0    0.80    0.25   1
   0  25   0   -0.26    0.22  -2
   0 -25   0   -0.26    0.22   1
   0  25   0   -0.28    0.18  -2
   0 -25   0   -0.28    0.18   1
   0 -25   0   -0.12    0.14  -2
   0  25   0   -0.12    0.14   1
   0 -25   0    0.16    0.19  -2
   0  25   0    0.16    0.19   1
  -1 -25   0    4.06    0.54   1
   1 -25   0    4.31    0.43   1
  -1 -25   0    3.99    0.44   1
   1 -25   0    3.68    0.49   1
  -1  25   0    4.03    0.34   1
   1  25   0    3.74    0.39   1
  -1  25   0    4.28    0.41   1
   1  25   0    4.18    0.35   1
  -2 -25   0    0.37    0.28   1
  -2 -25   0    0.47    0.23   1
   2 -25   0    0.52    0.23   1
   2 -25   0    0.34    0.24   1
  -2  25   0    0.38    0.17   1
  -2  25   0    0.55    0.21   1
   2  25   0    0.52    0.18   1
   2  25   0    0.33    0.20   1
  -2  25   0    0.40    0.18   1
  -3 -25   0    1.13    0.28   1
   3 -25   0    1.15    0.33   1
  -3 -25   0    0.84    0.32   1
  -3  25   0    0.76    0.23   1
  -3  25   0    0.90    0.22   1
   3  25   0    1.34    0.28   1
  -3  25   0    1.09    0.27   1
  -4  25   0    0.62    0.23   1
   0  26   0    0.51    0.27  -2
   0 -26   0    0.51    0.27   1
   0  26   0    0.74    0.25  -2
   0 -26   0    0.74    0.25   1
   0 -26   0    0.61    0.22  -2
   0  26   0    0.61    0.22   1
   0 -26   0    0.57    0.19  -2
   0  26   0    0.57    0.19   1
   1 -26   0    4.01    0.44   1
  -1 -26   0    3.10    0.49   1
   1 -26   0    3.29    0.48   1
  -1 -26   0    3.59    0.39   1
  -1  26   0    3.25    0.31   1
   1  26   0    3.12    0.32   1
  -1  26   0    3.45    0.37   1
   1  26   0    3.22    0.35   1
  -2 -26   0    0.00    0.27   1
  -2 -26   0    0.48    0.24   1
   2 -26   0    0.35    0.21   1
   2 -26   0    0.27    0.27   1
   2  26   0    0.14    0.19   1
  -2  26   0    0.23    0.21   1
  -2  26   0    0.03    0.16   1
  -2  26   0   -0.11    0.14   1
   2  26   0    0.06    0.17   1
  -3 -26   0    2.55    0.46   1
  -3 -26   0    2.26    0.36   1
  -3  26   0    1.86    0.31   1
  -3  26   0    2.16    0.35   1
   3  26   0    2.03    0.33   1
  -3  26   0    2.55    0.31   1
  -4  26   0    0.09    0.20   1
   0  27   0   -0.07    0.23  -2
   0 -27   0   -0.07    0.23   1
   0  27   0    0.12    0.22  -2
   0 -27   0    0.12    0.22   1
   0 -27   0   -0.02    0.15  -2
   0  27   0   -0.02    0.15   1
   0 -27   0   -0.21    0.17  -2
   0  27   0   -0.21    0.17   1
  -1 -27   0   -0.09    0.20   1
   1 -27   0    0.04    0.21   1
  -1 -27   0    0.12    0.27   1
   1 -27   0    0.24    0.23   1
   1  27   0    0.02    0.15   1
  -1  27   0    0.08    0.19   1
   1  27   0   -0.09    0.18   1
  -1  27   0    0.13    0.16   1
   2 -27   0    0.82    0.28   1
   2 -27   0    0.90    0.26   1
  -2 -27   0    1.12    0.28   1
  -2 -27   0    0.81    0.34   1
  -2  27   0    0.95    0.22   1
  -2  27   0    1.31    0.30   1
  -2  27   0    0.90    0.24   1
   2  27   0    0.96    0.26   1
   2  27   0    1.16    0.25   1
  -3 -27   0    0.34    0.32   1
  -3 -27   0    0.49    0.24   1
  -3  27   0    0.56    0.24   1
  -3  27   0    0.12    0.24   1
  -3  27   0    0.40    0.20   1
   0  28   0    0.47    0.29  -2
   0 -28   0    0.47    0.29   1
   0  28   0    0.31    0.24  -2
   0 -28   0    0.31    0.24   1
   0 -28   0    0.33    0.18  -2
   0  28   0    0.33    0.18   1
   0 -28   0    0.09    0.20  -2
   0  28   0    0.09    0.20   1
  -1 -28   0    0.11    0.23   1
  -1 -28   0    0.13    0.26   1
   1 -28   0    0.58    0.26   1
   1 -28   0    0.36    0.26   1
  -1  28   0    0.29    0.17   1
   1  28   0    0.46    0.22   1
  -1  28   0    0.18    0.22   1
   1  28   0    0.35    0.19   1
  -2 -28   0    0.92    0.28   1
   2 -28   0    1.16    0.28   1
  -2 -28   0    0.94    0.35   1
   2 -28   0    1.22    0.33   1
  -2  28   0    0.93    0.27   1
  -2  28   0    1.01    0.26   1
   2  28   0    0.87    0.28   1
  -2  28   0    0.99    0.23   1
   2  28   0    0.87    0.23   1
  -3 -28   0    0.29    0.23   1
  -3  28   0    0.24    0.20   1
   0  29   0   -0.07    0.23  -2
   0 -29   0   -0.07    0.23   1
   0  29   0   -0.07    0.23  -2
   0 -29   0   -0.07    0.23   1
   0 -29   0   -0.04    0.20  -2
   0  29   0   -0.04    0.20   1
   0 -29   0   -0.04    0.16  -2
   0  29   0   -0.04    0.16   1
   1 -29   0    0.24    0.23   1
  -1 -29   0    0.32    0.23   1
  -1 -29   0    0.22    0.28   1
   1 -29   0    0.38    0.26   1
   1  29   0    0.29    0.19   1
  -1  29   0    0.40    0.23   1
  -1  29   0   -0.02    0.16   1
   1  29   0    0.41    0.23   1
  -2 -29   0    0.23    0.25   1
   2  29   0    0.15    0.20   1
  -2  29   0    0.26    0.19   1
  -2  29   0    0.08    0.24   1
   2  29   0    0.07    0.22   1
  -3 -29   0    0.25    0.24   1
  -3  29   0    0.62    0.23   1
   0  30   0    2.19    0.39  -2
   0 -30   0    2.19    0.39   1
   0  30   0    1.86    0.43  -2
   0 -30   0    1.86    0.43   1
   0 -30   0    2.35    0.31  -2
   0  30   0    2.35    0.31   1
   0 -30   0    2.72    0.38  -2
   0  30   0    2.72    0.38   1
   1 -30   0    0.10    0.23   1
  -1 -30   0    0.01    0.27   1
  -1 -30   0    0.05    0.24   1
   1 -30   0    0.15    0.25   1
  -1  30   0   -0.12    0.17   1
   1  30   0    0.14    0.18   1
  -1  30   0   -0.06    0.21   1
   1  30   0   -0.05    0.22   1
  -2 -30   0    0.51    0.27   1
  -2  30   0    0.69    0.28   1
  -2  30   0    0.33    0.20   1
   0  31   0    0.03    0.26  -2
   0 -31   0    0.03    0.26   1
   0 -31   0   -0.19    0.15  -2
   0  31   0   -0.19    0.15   1
   0 -31   0    0.01    0.23  -2
   0  31   0    0.01    0.23   1
   1 -31   0    0.41    0.26   1
  -1 -31   0    0.13    0.26   1
  -1  31   0   -0.10    0.18   1
   1  31   0   -0.21    0.22   1
  -1  31   0    0.17    0.24   1
   1  31   0   -0.01    0.19   1
  -2  31   0    1.19    0.31   1
   0 -32   0    0.23    0.20  -2
   0  32   0    0.23    0.20   1
  -1  32   0    0.10    0.24   1
  -1  32   0   -0.11    0.18   1
  -6   0   1   -0.14    0.15   1
   6   0  -1   -0.14    0.23   1
  -5   0   1    0.14    0.13   1
   5   0  -1    0.30    0.19   1
  -5   0   1   -0.24    0.13   1
  -3   0   1    0.09    0.08   1
  -3   0   1   -0.02    0.08   1
   3   0  -1   -0.24    0.08   1
  -2   0   1    0.19    0.07   1
   2   0  -1    0.36    0.09   1
   2   0  -1    0.08    0.07   1
  -2   0   1    0.24    0.07   1
  -2   0   1    0.32    0.09   1
  -2   0   1    0.28    0.07   1
   2   0  -1    0.10    0.07   1
  -1   0   1   -0.07    0.05  -2
  -1   0   1   -0.07    0.05   1
   1   0  -1    0.23    0.07  -2
   1   0  -1    0.23    0.07   1
   1   0  -1    0.06    0.04  -2
   1   0  -1    0.06    0.04   1
  -1   0   1    0.08    0.04  -2
  -1   0   1    0.08    0.04   1
   1   0  -1   -0.02    0.06  -2
   1   0  -1   -0.02    0.06   1
   0   0  -1   -0.19    0.03   1
   0   0  -1   -0.18    0.03   1
   0   0   1   -0.25    0.03   1
   0   0  -1   -0.10    0.05   1
  -1   0  -1    0.34    0.07   1
  -1   0  -1    0.38    0.05   1
  -1   0  -1    0.44    0.06   1
  -2   0  -1    6.26    0.40   1
  -2   0  -1    5.72    0.34   1
  -2   0  -1    5.79    0.33   1
   2   0   1    6.37    0.35   1
  -2   0  -1    6.99    0.37   1
  -3   0  -1    0.73    0.14   1
  -3   0  -1    1.15    0.12   1
  -4   0  -1    0.63    0.18   1
  -4   0  -1    0.39    0.11   1
   4   0   1    0.62    0.16   1
   4   0   1    0.58    0.14   1
  -5   0  -1    0.23    0.19   1
   5   0   1    0.13    0.17   1
  -6   0  -1    0.02    0.19   1
  -6  -1   1    0.58    0.21   1
   6  -1  -1    0.16    0.25   1
   6   1  -1    0.57    0.27   1
  -6   1   1    0.44    0.20   1
   5  -1  -1    2.81    0.31   1
  -5  -1   1    2.41    0.26   1
  -5  -1   1    2.30    0.26   1
  -5   1   1    2.81    0.28   1
  -5   1   1    2.65    0.28   1
   5   1  -1    3.05    0.31   1
   4  -1  -1   12.91    0.76   1
  -4  -1   1   14.49    0.75   1
  -4  -1   1   13.72    0.75   1
  -4   1   1   14.06    0.75   1
   4   1  -1   13.45    0.76   1
  -4   1   1   12.90    0.74   1
   3  -1  -1    0.77    0.14   1
  -3  -1   1    1.32    0.14   1
  -3  -1   1    1.23    0.15   1
  -3  -1   1    1.01    0.16   1
  -3   1   1    0.92    0.13   1
   3   1  -1    1.02    0.15   1
  -3   1   1    1.38    0.15   1
   2  -1  -1  120.92    5.71   1
  -2  -1   1  118.93    6.79   1
  -2  -1   1  118.97    5.71   1
   2  -1  -1  113.75    5.74   1
  -2  -1   1  122.53    5.74   1
  -2  -1   1  119.84    5.71   1
   2  -1  -1  109.74    6.80   1
   2  -1  -1  119.61    5.72   1
  -2   1   1  119.86    5.74   1
  -2   1   1  117.66    5.71   1
   2   1  -1  113.40    6.80   1
  -2   1   1  113.84    5.71   1
   2   1  -1  118.95    5.72   1
   2   1  -1  121.63    5.74   1
   2   1  -1  113.37    5.71   1
  -1   1   1  208.40    9.73  -2
  -1  -1   1  208.40    9.73   1
   1   1  -1  179.93    9.74  -2
   1  -1  -1  179.93    9.74   1
   1   1  -1  206.27    9.79  -2
   1  -1  -1  206.27    9.79   1
   1   1  -1  220.07   11.67  -2
   1  -1  -1  220.07   11.67   1
  -1   1   1  187.19    9.81  -2
  -1  -1   1  187.19    9.81   1
  -1   1   1  225.77   11.68  -2
  -1  -1   1  225.77   11.68   1
  -1   1   1  203.15    9.73  -2
  -1  -1   1  203.15    9.73   1
   1   1  -1  190.16    9.81  -2
   1  -1  -1  190.16    9.81   1
   1  -1  -1  206.49    9.80  -2
   1   1  -1  206.49    9.80   1
   1  -1  -1  186.18    9.75  -2
   1   1  -1  186.18    9.75   1
   1  -1  -1  217.36   11.58  -2
   1   1  -1  217.36   11.58   1
  -1  -1   1  181.78    9.76  -2
  -1   1   1  181.78    9.76   1
  -1  -1   1  224.69   11.61  -2
  -1   1   1  224.69   11.61   1
  -1  -1   1  185.42    9.80  -2
  -1   1   1  185.42    9.80   1
  -1  -1   1  209.23    9.74  -2
  -1   1   1  209.23    9.74   1
   1  -1  -1  188.48    9.81  -2
   1   1  -1  188.48    9.81   1
   0  -1  -1   91.80    4.47   1
   0  -1  -1   96.68    4.46   1
   0  -1   1   92.54    4.46   1
   0  -1  -1   86.68    5.31   1
   0   1   1   92.46    5.31   1
   0   1   1   86.49    4.46   1
   0   1  -1   93.61    4.46   1
   0   1  -1   90.09    4.47   1
   0   1  -1   98.43    4.46   1
  -1  -1  -1   69.11    3.09   1
  -1  -1  -1   62.96    3.09   1
   1  -1   1   61.99    3.09   1
  -1  -1  -1   59.80    3.73   1
   1   1   1   63.44    3.09   1
  -1   1  -1   62.49    3.12   1
   1   1   1   66.66    3.09   1
  -1   1  -1   62.79    3.09   1
  -1   1  -1   64.03    3.09   1
   2  -1   1  125.58    5.89   1
   2  -1   1  118.25    5.89   1
  -2  -1  -1  117.09    5.89   1
  -2  -1  -1  126.83    7.02   1
  -2  -1  -1  126.81    5.94   1
  -2  -1  -1  124.37    5.89   1
  -2  -1  -1  114.41    7.08   1
  -2   1  -1  118.01    5.89   1
   2   1   1  124.37    5.89   1
   2   1   1  123.99    5.89   1
  -2   1  -1  118.53    5.89   1
  -2   1  -1  118.13    5.94   1
  -3  -1  -1   19.44    1.23   1
   3  -1   1   19.97    1.06   1
  -3  -1  -1   19.20    1.29   1
  -3  -1  -1   21.11    1.05   1
  -3  -1  -1   20.86    1.08   1
   3  -1   1   21.07    1.05   1
  -3   1  -1   21.23    1.04   1
  -3   1  -1   22.12    1.09   1
   3   1   1   20.87    1.06   1
   3   1   1   19.83    1.05   1
  -4  -1  -1    2.54    0.27   1
   4  -1   1    2.27    0.25   1
   4  -1   1    2.94    0.23   1
  -4  -1  -1    2.27    0.21   1
   4   1   1    2.46    0.26   1
   4   1   1    2.54    0.23   1
  -4   1  -1    2.16    0.25   1
  -4   1  -1    2.05    0.21   1
  -5  -1  -1    2.68    0.34   1
   5  -1   1    2.38    0.31   1
  -5   1  -1    2.25    0.29   1
   5   1   1    2.26    0.31   1
  -6  -1  -1    0.52    0.23   1
  -6   1  -1    0.47    0.24   1
   6  -2  -1   -0.19    0.23   1
  -6  -2   1    0.11    0.18   1
  -6   2   1   -0.19    0.16   1
   6   2  -1    0.02    0.21   1
  -5  -2   1    0.55    0.15   1
  -5  -2   1    0.51    0.17   1
   5   2  -1    0.84    0.21   1
  -5   2   1    0.35    0.16   1
   4  -2  -1    1.00    0.20   1
  -4  -2   1    0.79    0.17   1
  -4  -2   1    1.04    0.16   1
  -4   2   1    0.84    0.17   1
   4   2  -1    1.11    0.16   1
  -4   2   1    0.84    0.15   1
   3  -2  -1   10.13    0.63   1
  -3  -2   1    7.72    0.48   1
   3  -2  -1    9.68    0.51   1
  -3  -2   1    8.12    0.48   1
   3  -2  -1    8.16    0.49   1
   3  -2  -1    9.53    0.50   1
  -3  -2   1    7.51    0.57   1
   3   2  -1    8.98    0.57   1
  -3   2   1    8.42    0.49   1
   3   2  -1    9.50    0.61   1
   3   2  -1    7.98    0.50   1
  -3   2   1    9.04    0.49   1
   3   2  -1    9.14    0.50   1
  -2  -2   1    2.27    0.17   1
  -2  -2   1    2.42    0.16   1
   2  -2  -1    2.68    0.17   1
  -2  -2   1    2.49    0.20   1
   2  -2  -1    2.34    0.18   1
   2  -2  -1    2.31    0.23   1
   2  -2  -1    2.10    0.16   1
  -2  -2   1    2.31    0.17   1
  -2   2   1    2.70    0.21   1
   2   2  -1    2.92    0.20   1
   2   2  -1    2.20    0.18   1
  -2   2   1    2.67    0.18   1
  -2   2   1    2.33    0.17   1
  -2   2   1    2.40    0.17   1
   2   2  -1    2.57    0.21   1
   2   2  -1    1.79    0.17   1
  -1   2   1   25.65    1.38  -2
  -1  -2   1   25.65    1.38   1
   1   2  -1   27.01    1.39  -2
   1  -2  -1   27.01    1.39   1
  -1   2   1   23.78    1.16  -2
  -1  -2   1   23.78    1.16   1
   1   2  -1   21.75    1.16  -2
   1  -2  -1   21.75    1.16   1
  -1   2   1   22.06    1.15  -2
  -1  -2   1   22.06    1.15   1
   1   2  -1   23.77    1.16  -2
   1  -2  -1   23.77    1.16   1
  -1   2   1   23.50    1.15  -2
  -1  -2   1   23.50    1.15   1
   1   2  -1   21.28    1.16  -2
   1  -2  -1   21.28    1.16   1
  -1   2   1   21.49    1.16  -2
  -1  -2   1   21.49    1.16   1
   1  -2  -1   20.04    1.16  -2
   1   2  -1   20.04    1.16   1
   1  -2  -1   23.55    1.15  -2
   1   2  -1   23.55    1.15   1
   1  -2  -1   23.64    1.16  -2
   1   2  -1   23.64    1.16   1
  -1  -2   1   21.79    1.16  -2
  -1   2   1   21.79    1.16   1
  -1  -2   1   26.53    1.38  -2
  -1   2   1   26.53    1.38   1
  -1  -2   1   23.02    1.16  -2
  -1   2   1   23.02    1.16   1
  -1  -2   1   24.30    1.16  -2
  -1   2   1   24.30    1.16   1
   1  -2  -1   26.07    1.38  -2
   1   2  -1   26.07    1.38   1
   0  -2   1   84.82    4.10   1
   0  -2  -1   80.48    4.95   1
   0  -2  -1   83.51    4.89   1
   0  -2  -1   83.19    5.01   1
   0  -2  -1   84.57    4.10   1
   0  -2   1   91.72    4.11   1
   0  -2  -1   84.88    4.11   1
   0  -2   1   79.45    4.10   1
   0   2  -1   90.45    4.10   1
   0   2  -1   85.21    4.10   1
   0   2   1   83.04    4.88   1
   0   2  -1   83.65    4.13   1
   0   2   1   82.07    4.10   1
   0   2   1   85.06    4.12   1
   0   2  -1   89.40    4.12   1
   1  -2   1    0.08    0.04   1
  -1  -2  -1    0.08    0.05   1
   1  -2   1    0.07    0.03   1
  -1   2  -1    0.16    0.04   1
   1   2   1    0.12    0.05   1
  -1   2  -1    0.13    0.03   1
  -1   2  -1    0.17    0.06   1
  -2  -2  -1    1.09    0.14   1
  -2  -2  -1    0.83    0.11   1
   2  -2   1    1.01    0.13   1
  -2  -2  -1    1.06    0.15   1
   2   2   1    1.21    0.13   1
  -2   2  -1    0.75    0.10   1
  -2   2  -1    0.91    0.10   1
  -2   2  -1    0.73    0.14   1
   3  -2   1    6.12    0.38   1
  -3  -2  -1    6.93    0.41   1
  -3  -2  -1    6.47    0.47   1
  -3  -2  -1    6.53    0.37   1
   3  -2   1    6.55    0.39   1
  -3  -2  -1    6.93    0.43   1
   3   2   1    6.23    0.38   1
  -3   2  -1    6.09    0.40   1
  -3   2  -1    6.24    0.37   1
   3   2   1    6.74    0.39   1
   4  -2   1    3.45    0.31   1
  -4  -2  -1    4.21    0.34   1
   4  -2   1    3.81    0.29   1
  -4  -2  -1    3.89    0.28   1
   4   2   1    3.54    0.31   1
  -4   2  -1    3.39    0.27   1
  -4   2  -1    3.85    0.33   1
   4   2   1    4.29    0.30   1
  -5  -2  -1    0.36    0.20   1
   5  -2   1    0.43    0.19   1
   5   2   1    0.57    0.20   1
  -5   2  -1    0.38    0.18   1
  -6  -2  -1    0.26    0.24   1
  -6   2  -1    0.58    0.26   1
   6  -3  -1   -0.27    0.21   1
  -6  -3   1    0.08    0.17   1
  -6   3   1   -0.04    0.18   1
   5  -3  -1   12.53    0.75   1
  -5  -3   1   11.92    0.71   1
  -5  -3   1   11.90    0.71   1
   5   3  -1   12.25    0.75   1
  -5   3   1   12.22    0.70   1
  -5   3   1   12.12    0.73   1
  -4  -3   1    1.33    0.18   1
  -4  -3   1    1.38    0.20   1
   4   3  -1    1.01    0.16   1
  -4   3   1    1.26    0.18   1
  -4   3   1    1.36    0.19   1
   4   3  -1    1.47    0.21   1
  -3  -3   1   45.22    2.93   1
   3  -3  -1   52.23    2.49   1
   3  -3  -1   52.84    2.48   1
  -3  -3   1   50.07    2.48   1
  -3  -3   1   49.99    2.47   1
   3   3  -1   48.73    2.48   1
   3   3  -1   49.05    2.96   1
   3   3  -1   50.49    2.48   1
  -3   3   1   49.38    2.47   1
   3   3  -1   50.51    2.95   1
  -3   3   1   51.09    2.49   1
   2  -3  -1    0.84    0.10   1
   2  -3  -1    0.74    0.10   1
  -2  -3   1    0.82    0.11   1
   2  -3  -1    0.59    0.13   1
  -2  -3   1    0.77    0.09   1
  -2  -3   1    0.65    0.09   1
  -2  -3   1    0.88    0.11   1
  -2  -3   1    0.73    0.11   1
   2  -3  -1    0.83    0.12   1
  -2   3   1    0.91    0.11   1
  -2   3   1    0.75    0.10   1
  -2   3   1    0.74    0.12   1
   2   3  -1    1.17    0.14   1
  -2   3   1    0.82    0.10   1
   2   3  -1    0.98    0.12   1
   2   3  -1    0.71    0.10   1
  -1   3   1  800.47   42.72  -2
  -1  -3   1  800.47   42.72   1
   1   3  -1  810.69   42.69  -2
   1  -3  -1  810.69   42.69   1
   1   3  -1 1000.00   50.84  -2
   1  -3  -1 1000.00   50.84   1
   1   3  -1  956.19   51.41  -2
   1  -3  -1  956.19   51.41   1
  -1   3   1  900.34   42.71  -2
  -1  -3   1  900.34   42.71   1
   1   3  -1  853.67   42.91  -2
   1  -3  -1  853.67   42.91   1
   1   3  -1  935.77   42.74  -2
   1  -3  -1  935.77   42.74   1
  -1  -3   1  843.02   42.92  -2
  -1   3   1  843.02   42.92   1
   1  -3  -1  808.07   42.70  -2
   1   3  -1  808.07   42.70   1
   1  -3  -1  879.96   42.56  -2
   1   3  -1  879.96   42.56   1
  -1  -3   1  890.57   42.73  -2
  -1   3   1  890.57   42.73   1
  -1  -3   1  817.19   42.70  -2
  -1   3   1  817.19   42.70   1
  -1  -3   1  972.62   50.80  -2
  -1   3   1  972.62   50.80   1
   1  -3  -1  879.15   42.71  -2
   1   3  -1  879.15   42.71   1
   0  -3  -1  236.07   11.35   1
   0  -3   1  231.76   11.33   1
   0  -3  -1  228.06   13.79   1
   0  -3   1  241.47   11.33   1
   0  -3   1  235.45   11.39   1
   0  -3  -1  219.83   11.33   1
   0  -3  -1  230.89   13.66   1
   0  -3   1  253.47   11.34   1
   0  -3  -1  229.59   13.45   1
   0  -3  -1  238.28   11.29   1
   0   3   1  227.99   13.45   1
   0   3  -1  248.49   11.33   1
   0   3  -1  231.52   11.39   1
   0   3  -1  243.23   11.34   1
   0   3   1  226.33   13.63   1
   0   3   1  228.38   11.35   1
   0   3   1  215.54   11.32   1
   0   3  -1  237.75   11.33   1
  -1  -3  -1   39.24    2.45   1
   1  -3   1   41.88    2.03   1
   1  -3   1   42.31    2.03   1
   1  -3   1   43.69    2.06   1
  -1  -3  -1   42.48    2.03   1
  -1  -3  -1   39.34    2.03   1
   1   3   1   41.54    2.03   1
  -1   3  -1   42.69    2.03   1
   1   3   1   39.67    2.46   1
  -1   3  -1   42.92    2.03   1
   1   3   1   40.61    2.03   1
  -1   3  -1   43.74    2.06   1
   2  -3   1   79.23    3.74   1
  -2  -3  -1   80.51    3.74   1
   2  -3   1   76.01    3.74   1
  -2  -3  -1   71.76    3.73   1
  -2  -3  -1   77.75    4.45   1
   2  -3   1   75.93    3.78   1
  -2  -3  -1   72.22    4.50   1
  -2   3  -1   77.37    3.78   1
  -2   3  -1   76.29    3.74   1
   2   3   1   74.34    4.50   1
   2   3   1   77.10    3.74   1
   2   3   1   80.57    3.74   1
  -2   3  -1   78.34    3.73   1
  -3  -3  -1    9.70    0.56   1
  -3  -3  -1    9.67    0.52   1
   3  -3   1    9.87    0.54   1
   3  -3   1    9.97    0.54   1
  -3  -3  -1    9.20    0.63   1
  -3  -3  -1    9.70    0.62   1
   3   3   1    9.70    0.54   1
  -3   3  -1   10.06    0.52   1
   3   3   1    8.60    0.61   1
   3   3   1    9.88    0.54   1
  -3   3  -1   10.22    0.56   1
  -4  -3  -1    2.02    0.25   1
   4  -3   1    2.12    0.21   1
   4  -3   1    2.31    0.27   1
  -4  -3  -1    1.93    0.20   1
  -4   3  -1    1.95    0.20   1
   4   3   1    1.92    0.21   1
  -4   3  -1    2.20    0.26   1
   4   3   1    1.98    0.25   1
   5  -3   1    2.59    0.32   1
  -5  -3  -1    2.80    0.32   1
   5   3   1    2.36    0.31   1
  -5   3  -1    2.11    0.27   1
   6  -3   1    0.85    0.27   1
  -6  -3  -1    0.47    0.24   1
  -6   3  -1    0.67    0.25   1
   6  -4  -1    0.11    0.24   1
  -6  -4   1    0.25    0.18   1
  -6   4   1   -0.05    0.17   1
   5  -4  -1    1.70    0.27   1
  -5  -4   1    0.68    0.18   1
  -5   4   1    0.86    0.21   1
  -5   4   1    1.23    0.19   1
   4  -4  -1   22.26    1.22   1
  -4  -4   1   24.39    1.21   1
  -4  -4   1   24.85    1.22   1
   4   4  -1   20.04    1.41   1
   4   4  -1   21.97    1.47   1
  -4   4   1   24.55    1.21   1
   4   4  -1   22.88    1.22   1
  -4   4   1   24.49    1.22   1
   3  -4  -1    3.29    0.21   1
  -3  -4   1    2.47    0.20   1
  -3  -4   1    2.48    0.23   1
  -3  -4   1    2.46    0.20   1
  -3   4   1    2.08    0.20   1
  -3   4   1    2.66    0.21   1
   3   4  -1    2.97    0.23   1
  -2  -4   1    3.37    0.21   1
  -2  -4   1    3.28    0.22   1
  -2  -4   1    3.39    0.25   1
  -2  -4   1    3.57    0.23   1
   2  -4  -1    3.25    0.28   1
   2  -4  -1    2.98    0.23   1
   2  -4  -1    3.72    0.22   1
   2  -4  -1    3.36    0.24   1
   2  -4  -1    3.52    0.22   1
  -2  -4   1    3.63    0.21   1
  -2   4   1    3.89    0.22   1
  -2   4   1    3.58    0.23   1
   2   4  -1    3.32    0.27   1
   2   4  -1    3.16    0.22   1
   2   4  -1    3.41    0.22   1
   2   4  -1    3.67    0.27   1
  -2   4   1    3.66    0.22   1
  -2   4   1    3.50    0.27   1
  -1   4   1  271.71   13.26  -2
  -1  -4   1  271.71   13.26   1
   1   4  -1  262.97   13.35  -2
   1  -4  -1  262.97   13.35   1
  -1   4   1  281.33   13.26  -2
  -1  -4   1  281.33   13.26   1
  -1   4   1  248.76   13.28  -2
  -1  -4   1  248.76   13.28   1
  -1   4   1  296.85   15.81  -2
  -1  -4   1  296.85   15.81   1
   1   4  -1  275.57   13.23  -2
   1  -4  -1  275.57   13.23   1
   1   4  -1  238.71   13.25  -2
   1  -4  -1  238.71   13.25   1
   1   4  -1  301.62   15.98  -2
   1  -4  -1  301.62   15.98   1
   1   4  -1  301.42   15.81  -2
   1  -4  -1  301.42   15.81   1
   1  -4  -1  270.15   13.27  -2
   1   4  -1  270.15   13.27   1
  -1  -4   1  271.28   13.24  -2
  -1   4   1  271.28   13.24   1
  -1  -4   1  265.33   13.38  -2
  -1   4   1  265.33   13.38   1
   1  -4  -1  281.05   15.76  -2
   1   4  -1  281.05   15.76   1
   1  -4  -1  251.65   13.23  -2
   1   4  -1  251.65   13.23   1
   1  -4  -1  260.57   15.99  -2
   1   4  -1  260.57   15.99   1
   1  -4  -1  277.84   13.28  -2
   1   4  -1  277.84   13.28   1
  -1  -4   1  261.21   13.25  -2
  -1   4   1  261.21   13.25   1
  -1  -4   1  305.58   15.84  -2
  -1   4   1  305.58   15.84   1
   0  -4   1   64.23    2.94   1
   0  -4  -1   60.54    2.94   1
   0  -4  -1   60.46    3.59   1
   0  -4   1   59.21    2.94   1
   0  -4  -1   59.17    3.55   1
   0  -4   1   59.13    2.95   1
   0  -4   1   58.70    2.93   1
   0  -4  -1   59.21    3.49   1
   0  -4  -1   61.35    2.92   1
   0  -4  -1   62.44    2.95   1
   0   4  -1   60.68    2.94   1
   0   4   1   60.64    3.55   1
   0   4  -1   58.55    2.93   1
   0   4  -1   60.06    2.95   1
   0   4   1   61.08    2.94   1
   0   4   1   56.95    2.94   1
   0   4  -1   62.94    2.94   1
   0   4   1   60.01    3.48   1
   1  -4   1   65.64    3.04   1
  -1  -4  -1   60.48    3.04   1
   1  -4   1   64.50    3.07   1
  -1  -4  -1   59.05    3.67   1
  -1  -4  -1   65.42    3.04   1
   1  -4   1   63.78    3.04   1
  -1   4  -1   64.54    3.04   1
   1   4   1   59.07    3.04   1
   1   4   1   59.19    3.67   1
  -1   4  -1   63.90    3.07   1
   1   4   1   59.70    3.04   1
  -1   4  -1   64.58    3.04   1
   2  -4   1    0.35    0.10   1
  -2  -4  -1    0.23    0.08   1
  -2  -4  -1    0.22    0.08   1
  -2  -4  -1    0.41    0.09   1
  -2  -4  -1    0.46    0.09   1
   2  -4   1    0.21    0.09   1
   2  -4   1    0.24    0.07   1
  -2   4  -1    0.36    0.08   1
   2   4   1    0.07    0.08   1
   2   4   1    0.35    0.09   1
  -2   4  -1    0.25    0.07   1
  -2   4  -1    0.35    0.10   1
   2   4   1    0.19    0.08   1
  -3  -4  -1   15.72    1.05   1
   3  -4   1   17.74    0.88   1
  -3  -4  -1   17.72    0.88   1
   3  -4   1   17.57    0.89   1
  -3  -4  -1   17.12    0.91   1
  -3  -4  -1   16.32    1.04   1
   3   4   1   16.47    0.88   1
  -3   4  -1   17.15    0.87   1
  -3   4  -1   17.41    0.91   1
   3   4   1   16.12    1.04   1
   3   4   1   17.37    0.89   1
  -4  -4  -1    4.40    0.31   1
  -4  -4  -1    5.20    0.37   1
   4  -4   1    4.07    0.35   1
   4  -4   1    4.86    0.33   1
  -4  -4  -1    4.46    0.34   1
   4   4   1    4.61    0.35   1
   4   4   1    4.51    0.33   1
  -4   4  -1    4.30    0.31   1
  -4   4  -1    4.54    0.34   1
   5  -4   1    0.43    0.20   1
  -5  -4  -1    0.24    0.20   1
  -5   4  -1    0.29    0.19   1
   5   4   1    0.34    0.20   1
  -6  -4  -1    0.06    0.21   1
  -6   4  -1    0.18    0.22   1
  -6  -5   1    1.27    0.24   1
   6  -5  -1    1.05    0.30   1
   6   5  -1    0.97    0.30   1
  -6   5   1    1.31    0.26   1
  -5  -5   1    1.61    0.23   1
  -5  -5   1    1.43    0.23   1
   5  -5  -1    1.66    0.28   1
  -5   5   1    1.84    0.26   1
  -5   5   1    1.60    0.23   1
   5   5  -1    1.84    0.28   1
  -4  -5   1    4.58    0.32   1
  -4  -5   1    3.69    0.30   1
   4  -5  -1    4.63    0.36   1
  -4   5   1    4.08    0.31   1
   4   5  -1    3.77    0.35   1
  -4   5   1    3.98    0.31   1
   3  -5  -1    2.27    0.18   1
  -3  -5   1    2.04    0.17   1
  -3  -5   1    1.96    0.18   1
   3  -5  -1    2.09    0.21   1
  -3  -5   1    1.83    0.19   1
   3   5  -1    1.82    0.23   1
  -3   5   1    1.58    0.17   1
  -3   5   1    2.00    0.18   1
   3   5  -1    1.63    0.24   1
   3   5  -1    1.52    0.18   1
   3   5  -1    1.94    0.20   1
  -2  -5   1   24.81    1.18   1
   2  -5  -1   22.35    1.20   1
   2  -5  -1   23.48    1.41   1
  -2  -5   1   23.76    1.41   1
  -2  -5   1   24.23    1.20   1
   2  -5  -1   24.25    1.20   1
   2  -5  -1   24.26    1.19   1
  -2  -5   1   24.07    1.20   1
   2   5  -1   22.54    1.42   1
   2   5  -1   23.23    1.20   1
  -2   5   1   24.71    1.19   1
   2   5  -1   23.98    1.20   1
  -2   5   1   23.15    1.43   1
   2   5  -1   23.81    1.44   1
  -2   5   1   23.45    1.20   1
  -2   5   1   24.51    1.20   1
  -1   5   1   21.21    1.02  -2
  -1  -5   1   21.21    1.02   1
   1   5  -1   18.65    1.03  -2
   1  -5  -1   18.65    1.03   1
   1   5  -1   19.35    1.03  -2
   1  -5  -1   19.35    1.03   1
   1   5  -1   22.95    1.24  -2
   1  -5  -1   22.95    1.24   1
  -1   5   1   19.22    1.04  -2
  -1  -5   1   19.22    1.04   1
  -1   5   1   22.34    1.22  -2
  -1  -5   1   22.34    1.22   1
   1   5  -1   20.50    1.04  -2
   1  -5  -1   20.50    1.04   1
  -1   5   1   21.07    1.03  -2
  -1  -5   1   21.07    1.03   1
   1   5  -1   21.38    1.24  -2
   1  -5  -1   21.38    1.24   1
  -1  -5   1   18.98    1.01  -2
  -1   5   1   18.98    1.01   1
  -1  -5   1   19.79    1.04  -2
  -1   5   1   19.79    1.04   1
   1  -5  -1   22.82    1.22  -2
   1   5  -1   22.82    1.22   1
   1  -5  -1   21.20    1.03  -2
   1   5  -1   21.20    1.03   1
   1  -5  -1   20.71    1.25  -2
   1   5  -1   20.71    1.25   1
  -1  -5   1   21.92    1.23  -2
  -1   5   1   21.92    1.23   1
  -1  -5   1   19.10    1.03  -2
  -1   5   1   19.10    1.03   1
  -1  -5   1   20.65    1.04  -2
  -1   5   1   20.65    1.04   1
   1  -5  -1   20.49    1.03  -2
   1   5  -1   20.49    1.03   1
   1  -5  -1   19.81    1.04  -2
   1   5  -1   19.81    1.04   1
  -1  -5   1   22.81    1.24  -2
  -1   5   1   22.81    1.24   1
   0  -5   1   27.88    1.35   1
   0  -5  -1   24.61    1.35   1
   0  -5   1   26.55    1.35   1
   0  -5   1   26.89    1.35   1
   0  -5  -1   27.72    1.64   1
   0  -5   1   27.19    1.35   1
   0  -5  -1   28.09    1.34   1
   0  -5  -1   28.69    1.64   1
   0  -5  -1   28.78    1.35   1
   0  -5  -1   27.25    1.59   1
   0   5   1   27.00    1.35   1
   0   5  -1   27.49    1.63   1
   0   5   1   27.26    1.64   1
   0   5   1   27.93    1.36   1
   0   5  -1   27.07    1.35   1
   0   5  -1   25.93    1.35   1
   0   5  -1   26.05    1.35   1
   0   5  -1   28.68    1.35   1
   0   5   1   28.71    1.34   1
   0   5   1   27.38    1.59   1
   1  -5   1   58.55    2.73   1
  -1  -5  -1   56.23    3.22   1
   1  -5   1   59.79    2.72   1
  -1  -5  -1   53.53    3.29   1
  -1  -5  -1   54.43    2.72   1
   1  -5   1   55.29    3.32   1
  -1  -5  -1   57.88    2.73   1
   1  -5   1   58.43    2.74   1
   1   5   1   49.06    2.72   1
  -1   5  -1   59.61    2.72   1
  -1   5  -1   58.25    2.72   1
  -1   5  -1   56.99    2.74   1
  -1   5  -1   55.76    3.27   1
   1   5   1   51.97    2.72   1
  -1   5  -1   54.67    2.72   1
   1   5   1   52.69    3.29   1
   2  -5   1   23.20    1.14   1
  -2  -5  -1   23.30    1.14   1
  -2  -5  -1   21.18    1.37   1
   2  -5   1   23.40    1.16   1
  -2  -5  -1   22.52    1.34   1
  -2  -5  -1   21.50    1.13   1
   2  -5   1   24.94    1.13   1
   2   5   1   21.71    1.37   1
  -2   5  -1   24.11    1.14   1
   2   5   1   20.51    1.14   1
  -2   5  -1   24.07    1.13   1
   2   5   1   21.00    1.13   1
  -2   5  -1   23.07    1.16   1
  -3  -5  -1    1.28    0.18   1
  -3  -5  -1    1.45    0.16   1
   3  -5   1    1.63    0.19   1
  -3  -5  -1    1.37    0.21   1
   3  -5   1    1.18    0.15   1
  -3   5  -1    1.30    0.15   1
   3   5   1    1.31    0.16   1
   3   5   1    1.33    0.18   1
   3   5   1    1.46    0.18   1
  -3   5  -1    1.49    0.18   1
   4  -5   1   -0.11    0.15   1
  -4  -5  -1    0.38    0.17   1
   4  -5   1    0.10    0.12   1
  -4  -5  -1    0.16    0.10   1
  -4  -5  -1    0.11    0.11   1
   4   5   1    0.15    0.10   1
  -4   5  -1    0.18    0.15   1
   4   5   1    0.22    0.15   1
   4   5   1    0.39    0.13   1
  -4   5  -1   -0.05    0.10   1
  -5  -5  -1    2.54    0.33   1
   5  -5   1    2.52    0.33   1
   5   5   1    2.21    0.30   1
  -5   5  -1    2.36    0.31   1
  -6  -5  -1    0.14    0.22   1
   6  -6  -1    0.46    0.27   1
  -6  -6   1    0.57    0.19   1
   6   6  -1    0.62    0.28   1
  -6   6   1    0.31    0.20   1
   5  -6  -1    0.90    0.24   1
  -5  -6   1    0.60    0.18   1
  -5  -6   1    0.54    0.17   1
   5   6  -1    0.50    0.21   1
  -5   6   1    0.54    0.19   1
  -5   6   1    0.56    0.18   1
  -4  -6   1    1.44    0.21   1
   4  -6  -1    2.26    0.27   1
  -4  -6   1    2.13    0.24   1
  -4   6   1    2.48    0.23   1
  -4   6   1    2.31    0.22   1
   4   6  -1    2.46    0.34   1
   4   6  -1    1.47    0.23   1
   4   6  -1    2.48    0.28   1
  -3  -6   1    1.26    0.17   1
  -3  -6   1    1.21    0.15   1
  -3  -6   1    1.13    0.16   1
   3  -6  -1    1.81    0.17   1
   3   6  -1    1.32    0.17   1
   3   6  -1    1.64    0.18   1
   3   6  -1    2.03    0.24   1
  -3   6   1    1.37    0.16   1
  -3   6   1    1.51    0.17   1
   2  -6  -1   16.00    0.83   1
  -2  -6   1   15.65    0.81   1
   2  -6  -1   16.36    0.82   1
  -2  -6   1   15.75    0.82   1
  -2  -6   1   15.45    0.95   1
   2  -6  -1   15.44    0.96   1
   2  -6  -1   16.02    0.81   1
  -2  -6   1   16.39    0.81   1
   2   6  -1   15.02    0.96   1
   2   6  -1   16.02    0.82   1
   2   6  -1   15.64    0.99   1
  -2   6   1   14.91    0.97   1
  -2   6   1   16.00    0.82   1
  -2   6   1   17.20    0.82   1
  -2   6   1   16.23    0.82   1
   2   6  -1   15.46    0.82   1
   1   6  -1   65.58    3.57  -2
   1  -6  -1   65.58    3.57   1
  -1   6   1   60.93    2.95  -2
  -1  -6   1   60.93    2.95   1
   1   6  -1   58.02    2.96  -2
   1  -6  -1   58.02    2.96   1
   1   6  -1   59.96    2.97  -2
   1  -6  -1   59.96    2.97   1
  -1   6   1   56.38    2.97  -2
  -1  -6   1   56.38    2.97   1
   1   6  -1   57.65    2.98  -2
   1  -6  -1   57.65    2.98   1
  -1   6   1   63.42    3.51  -2
  -1  -6   1   63.42    3.51   1
  -1   6   1   61.39    2.97  -2
  -1  -6   1   61.39    2.97   1
  -1  -6   1   65.92    3.53  -2
  -1   6   1   65.92    3.53   1
   1  -6  -1   64.87    3.52  -2
   1   6  -1   64.87    3.52   1
   1  -6  -1   60.18    3.58  -2
   1   6  -1   60.18    3.58   1
   1  -6  -1   58.99    2.95  -2
   1   6  -1   58.99    2.95   1
   1  -6  -1   59.48    2.97  -2
   1   6  -1   59.48    2.97   1
  -1  -6   1   69.24    3.57  -2
  -1   6   1   69.24    3.57   1
  -1  -6   1   61.49    2.97  -2
  -1   6   1   61.49    2.97   1
   1  -6  -1   55.10    2.97  -2
   1   6  -1   55.10    2.97   1
  -1  -6   1   56.43    2.96  -2
  -1   6   1   56.43    2.96   1
  -1  -6   1   59.24    2.94  -2
  -1   6   1   59.24    2.94   1
  -1  -6   1   59.98    2.98  -2
  -1   6   1   59.98    2.98   1
   0  -6  -1  151.76    7.45   1
   0  -6   1  159.64    7.53   1
   0  -6   1  154.32    7.43   1
   0  -6   1  157.79    7.45   1
   0  -6  -1  152.12    8.99   1
   0  -6  -1  150.38    7.46   1
   0  -6  -1  154.71    9.08   1
   0  -6   1  168.60    7.46   1
   0  -6  -1  153.01    7.46   1
   0   6  -1  152.02    7.45   1
   0   6  -1  157.35    7.53   1
   0   6  -1  157.58    8.98   1
   0   6   1  155.65    7.46   1
   0   6   1  141.57    7.46   1
   0   6   1  148.51    7.45   1
   0   6  -1  158.02    7.46   1
   0   6   1  148.25    8.87   1
   0   6  -1  153.87    7.44   1
   0   6   1  149.25    8.99   1
  -1  -6  -1    0.58    0.08   1
  -1  -6  -1    0.51    0.08   1
  -1  -6  -1    0.54    0.05   1
   1  -6   1    0.83    0.10   1
   1  -6   1    0.90    0.11   1
   1  -6   1    0.68    0.08   1
  -1  -6  -1    0.42    0.07   1
  -1   6  -1    0.79    0.09   1
   1   6   1    0.38    0.08   1
  -1   6  -1    0.48    0.08   1
   1   6   1    0.67    0.08   1
  -1   6  -1    0.53    0.08   1
  -1   6  -1    0.70    0.08   1
  -2  -6  -1   19.65    0.96   1
  -2  -6  -1   18.49    0.95   1
  -2  -6  -1   19.01    1.12   1
   2  -6   1   20.02    0.97   1
   2  -6   1   18.86    0.95   1
  -2  -6  -1   18.39    1.16   1
   2  -6   1   18.50    0.97   1
  -2   6  -1   18.71    1.12   1
   2   6   1   18.06    1.15   1
  -2   6  -1   18.38    0.95   1
  -2   6  -1   18.18    0.97   1
   2   6   1   19.90    0.96   1
  -2   6  -1   18.94    0.95   1
   2   6   1   17.88    0.95   1
  -3  -6  -1    0.66    0.15   1
   3  -6   1    1.03    0.13   1
   3  -6   1    0.96    0.16   1
  -3  -6  -1    0.54    0.12   1
  -3  -6  -1    0.51    0.12   1
  -3   6  -1    0.81    0.16   1
   3   6   1    0.50    0.12   1
   3   6   1    0.44    0.12   1
   3   6   1    0.59    0.12   1
  -3   6  -1    0.83    0.12   1
   4  -6   1   -0.07    0.17   1
   4  -6   1    0.05    0.12   1
  -4  -6  -1    0.28    0.13   1
  -4  -6  -1    0.30    0.12   1
  -4  -6  -1    0.28    0.17   1
  -4   6  -1    0.12    0.12   1
  -4   6  -1    0.23    0.17   1
   4   6   1    0.45    0.14   1
   4   6   1    0.31    0.13   1
   4   6   1    0.20    0.15   1
  -5  -6  -1    0.53    0.20   1
   5  -6   1    0.88    0.22   1
   5   6   1    0.11    0.18   1
  -5   6  -1    0.37    0.21   1
  -6  -6  -1    0.17    0.21   1
   6  -7  -1   -0.08    0.25   1
  -6  -7   1    0.01    0.16   1
  -6   7   1   -0.01    0.18   1
   6   7  -1   -0.01    0.20   1
  -5  -7   1    0.98    0.20   1
  -5  -7   1    0.96    0.21   1
   5  -7  -1    1.39    0.27   1
  -5   7   1    1.25    0.22   1
  -5   7   1    0.99    0.20   1
   4  -7  -1    8.76    0.53   1
  -4  -7   1    7.30    0.48   1
  -4  -7   1    7.70    0.49   1
  -4   7   1    8.38    0.49   1
   4   7  -1    7.32    0.50   1
  -4   7   1    7.61    0.48   1
   4   7  -1    6.71    0.60   1
  -3  -7   1    0.46    0.11   1
  -3  -7   1    0.51    0.12   1
  -3  -7   1    0.69    0.12   1
  -3   7   1    0.63    0.13   1
  -3   7   1    0.49    0.12   1
   3   7  -1    0.78    0.14   1
   3   7  -1    0.41    0.12   1
   3   7  -1    0.60    0.17   1
   2  -7  -1   21.77    1.13   1
  -2  -7   1   22.67    1.12   1
   2  -7  -1   22.33    1.12   1
   2  -7  -1   22.70    1.14   1
  -2  -7   1   23.64    1.13   1
   2  -7  -1   21.81    1.33   1
  -2  -7   1   22.81    1.32   1
  -2  -7   1   21.70    1.13   1
   2   7  -1   21.99    1.33   1
   2   7  -1   21.19    1.13   1
  -2   7   1   22.85    1.13   1
   2   7  -1   22.60    1.37   1
  -2   7   1   22.92    1.13   1
   2   7  -1   22.51    1.13   1
  -2   7   1   20.74    1.34   1
  -2   7   1   21.80    1.12   1
   1   7  -1   21.30    1.11  -2
   1  -7  -1   21.30    1.11   1
   1   7  -1   20.47    1.09  -2
   1  -7  -1   20.47    1.09   1
  -1   7   1   22.20    1.10  -2
  -1  -7   1   22.20    1.10   1
  -1   7   1   24.01    1.29  -2
  -1  -7   1   24.01    1.29   1
  -1   7   1   20.87    1.10  -2
  -1  -7   1   20.87    1.10   1
  -1   7   1   20.97    1.32  -2
  -1  -7   1   20.97    1.32   1
   1   7  -1   20.30    1.07  -2
   1  -7  -1   20.30    1.07   1
   1   7  -1   20.20    1.10  -2
   1  -7  -1   20.20    1.10   1
  -1   7   1   22.22    1.09  -2
  -1  -7   1   22.22    1.09   1
   1   7  -1   22.90    1.32  -2
   1  -7  -1   22.90    1.32   1
   1  -7  -1   22.13    1.09  -2
   1   7  -1   22.13    1.09   1
  -1  -7   1   19.82    1.10  -2
  -1   7   1   19.82    1.10   1
   1  -7  -1   22.85    1.10  -2
   1   7  -1   22.85    1.10   1
   1  -7  -1   21.95    1.10  -2
   1   7  -1   21.95    1.10   1
  -1  -7   1   21.75    1.11  -2
  -1   7   1   21.75    1.11   1
  -1  -7   1   24.11    1.31  -2
  -1   7   1   24.11    1.31   1
  -1  -7   1   20.71    1.07  -2
  -1   7   1   20.71    1.07   1
   1  -7  -1   22.68    1.33  -2
   1   7  -1   22.68    1.33   1
  -1  -7   1   24.84    1.33  -2
  -1   7   1   24.84    1.33   1
   1  -7  -1   24.40    1.30  -2
   1   7  -1   24.40    1.30   1
  -1  -7   1   19.95    1.09  -2
  -1   7   1   19.95    1.09   1
   0  -7   1   29.50    1.48   1
   0  -7  -1   30.96    1.49   1
   0  -7   1   30.30    1.49   1
   0  -7  -1   30.88    1.47   1
   0  -7   1   28.03    1.49   1
   0  -7  -1   32.15    1.50   1
   0  -7   1   28.95    1.48   1
   0  -7  -1   29.61    1.80   1
   0  -7  -1   31.23    1.50   1
   0   7  -1   28.66    1.48   1
   0   7   1   30.22    1.50   1
   0   7  -1   29.26    1.48   1
   0   7   1   29.50    1.80   1
   0   7   1   29.72    1.75   1
   0   7   1   30.14    1.49   1
   0   7  -1   30.96    1.80   1
   0   7   1   31.96    1.47   1
   0   7  -1   30.12    1.48   1
   0   7  -1   30.22    1.49   1
  -1  -7  -1    0.66    0.12   1
   1  -7   1    0.67    0.11   1
  -1  -7  -1    0.79    0.08   1
  -1  -7  -1    0.79    0.11   1
  -1  -7  -1    0.91    0.09   1
   1  -7   1    0.73    0.11   1
   1  -7   1    0.60    0.08   1
  -1   7  -1    0.54    0.09   1
  -1   7  -1    0.50    0.08   1
   1   7   1    0.75    0.10   1
   1   7   1    1.02    0.15   1
  -1   7  -1    0.73    0.10   1
   1   7   1    0.84    0.11   1
  -1   7  -1    0.77    0.10   1
  -2  -7  -1    7.44    0.38   1
   2  -7   1    6.06    0.36   1
   2  -7   1    6.51    0.38   1
  -2  -7  -1    6.89    0.47   1
  -2  -7  -1    7.31    0.38   1
  -2  -7  -1    6.82    0.42   1
   2  -7   1    5.90    0.39   1
  -2   7  -1    6.33    0.37   1
   2   7   1    6.97    0.47   1
  -2   7  -1    5.74    0.38   1
  -2   7  -1    6.31    0.37   1
   2   7   1    6.47    0.38   1
   2   7   1    7.44    0.38   1
  -2   7  -1    6.49    0.42   1
  -3  -7  -1    6.72    0.49   1
  -3  -7  -1    6.19    0.44   1
   3  -7   1    6.74    0.41   1
  -3  -7  -1    7.06    0.40   1
   3  -7   1    6.68    0.39   1
  -3   7  -1    6.18    0.41   1
  -3   7  -1    6.54    0.38   1
   3   7   1    6.07    0.47   1
   3   7   1    6.98    0.40   1
   3   7   1    6.23    0.40   1
  -4  -7  -1    3.22    0.30   1
  -4  -7  -1    3.12    0.30   1
   4  -7   1    2.69    0.30   1
  -4  -7  -1    2.70    0.26   1
  -4   7  -1    3.23    0.26   1
  -4   7  -1    2.94    0.28   1
   4   7   1    2.72    0.28   1
   4   7   1    2.85    0.28   1
   4   7   1    2.51    0.28   1
   5  -7   1    2.42    0.34   1
  -5  -7  -1    2.47    0.34   1
  -5   7  -1    2.49    0.34   1
   5   7   1    2.64    0.34   1
  -6  -7  -1    0.26    0.24   1
   6  -8  -1    0.71    0.29   1
  -6  -8   1    0.32    0.18   1
  -6   8   1    0.39    0.23   1
   6   8  -1    0.50    0.25   1
  -5  -8   1    0.72    0.19   1
  -5  -8   1    0.62    0.19   1
   5  -8  -1    0.84    0.25   1
   5   8  -1    0.37    0.22   1
  -5   8   1    0.82    0.19   1
  -5   8   1    0.70    0.20   1
  -4  -8   1    9.95    0.58   1
   4  -8  -1    9.14    0.60   1
  -4  -8   1    9.51    0.57   1
   4   8  -1    9.72    0.59   1
  -4   8   1    8.76    0.57   1
   4   8  -1    9.96    0.71   1
  -4   8   1   10.78    0.59   1
  -3  -8   1    0.29    0.09   1
  -3  -8   1    0.17    0.11   1
   3   8  -1    0.47    0.13   1
   3   8  -1    0.19    0.15   1
  -3   8   1    0.13    0.10   1
  -3   8   1    0.33    0.12   1
  -2  -8   1   40.96    1.97   1
   2  -8  -1   39.70    2.00   1
   2  -8  -1   40.54    1.98   1
  -2  -8   1   40.69    2.34   1
   2  -8  -1   38.73    2.37   1
  -2  -8   1   41.92    2.00   1
  -2  -8   1   40.19    1.98   1
   2  -8  -1   42.22    2.00   1
  -2   8   1   37.55    2.36   1
  -2   8   1   39.55    2.36   1
   2   8  -1   38.40    1.99   1
   2   8  -1   39.31    2.40   1
  -2   8   1   40.44    1.96   1
   2   8  -1   39.59    1.97   1
  -2   8   1   43.84    2.00   1
   2   8  -1   38.06    2.34   1
  -2   8   1   40.43    1.98   1
  -2   8   1   38.75    1.99   1
   2   8  -1   39.27    1.99   1
   1   8  -1   55.17    2.55  -2
   1  -8  -1   55.17    2.55   1
  -1   8   1   48.56    2.54  -2
  -1  -8   1   48.56    2.54   1
   1   8  -1   54.52    3.05  -2
   1  -8  -1   54.52    3.05   1
  -1   8   1   53.14    2.53  -2
  -1  -8   1   53.14    2.53   1
   1   8  -1   48.37    2.54  -2
   1  -8  -1   48.37    2.54   1
   1   8  -1   49.62    2.50  -2
   1  -8  -1   49.62    2.50   1
  -1   8   1   48.58    3.05  -2
  -1  -8   1   48.58    3.05   1
   1   8  -1   48.48    2.53  -2
   1  -8  -1   48.48    2.53   1
  -1   8   1   51.83    2.52  -2
  -1  -8   1   51.83    2.52   1
  -1  -8   1   48.68    2.54  -2
  -1   8   1   48.68    2.54   1
   1  -8  -1   52.60    2.53  -2
   1   8  -1   52.60    2.53   1
   1  -8  -1   46.59    2.53  -2
   1   8  -1   46.59    2.53   1
  -1  -8   1   57.20    3.05  -2
  -1   8   1   57.20    3.05   1
   1  -8  -1   52.72    3.06  -2
   1   8  -1   52.72    3.06   1
  -1  -8   1   52.82    2.54  -2
  -1   8   1   52.82    2.54   1
  -1  -8   1   49.52    2.50  -2
  -1   8   1   49.52    2.50   1
   1  -8  -1   51.78    2.52  -2
   1   8  -1   51.78    2.52   1
  -1  -8   1   48.05    2.53  -2
  -1   8   1   48.05    2.53   1
  -1  -8   1   57.33    3.01  -2
  -1   8   1   57.33    3.01   1
   1  -8  -1   56.08    3.00  -2
   1   8  -1   56.08    3.00   1
   0  -8   1  203.05   10.11   1
   0  -8  -1  209.22   10.12   1
   0  -8  -1  202.63   12.23   1
   0  -8  -1  219.77   10.20   1
   0  -8   1  225.11   10.16   1
   0  -8   1  216.53   12.25   1
   0  -8   1  213.89   10.25   1
   0  -8  -1  207.34   10.14   1
   0  -8  -1  202.24   10.15   1
   0  -8   1  210.36   10.14   1
   0   8  -1  210.44   10.15   1
   0   8   1  201.54   12.06   1
   0   8   1  194.92   10.15   1
   0   8   1  204.68   12.23   1
   0   8   1  214.83   10.15   1
   0   8  -1  212.06   10.14   1
   0   8  -1  214.91   10.24   1
   0   8  -1  213.26   12.23   1
   0   8  -1  204.80   10.13   1
   0   8   1  208.73   10.15   1
  -1  -8  -1   11.88    0.64   1
   1  -8   1   12.75    0.78   1
   1  -8   1   12.82    0.65   1
  -1  -8  -1   10.91    0.65   1
   1  -8   1   13.51    0.67   1
  -1  -8  -1   11.16    0.64   1
  -1  -8  -1   12.15    0.80   1
  -1   8  -1   13.87    0.66   1
  -1   8  -1   13.13    0.78   1
  -1   8  -1   13.62    0.65   1
  -1   8  -1   13.84    0.66   1
   1   8   1   11.16    0.65   1
  -1   8  -1   13.39    0.66   1
   1   8   1   11.63    0.66   1
   1   8   1   13.11    0.81   1
   2  -8   1   12.14    0.65   1
  -2  -8  -1   11.45    0.73   1
  -2  -8  -1   12.71    0.65   1
  -2  -8  -1   12.19    0.79   1
   2  -8   1   12.19    0.63   1
  -2   8  -1   12.09    0.65   1
   2   8   1   12.12    0.79   1
   2   8   1   12.14    0.65   1
  -2   8  -1   12.59    0.64   1
   2   8   1   11.49    0.64   1
  -2   8  -1   12.43    0.64   1
  -2   8  -1   12.31    0.65   1
  -2   8  -1   12.08    0.74   1
  -3  -8  -1    8.34    0.47   1
  -3  -8  -1    8.09    0.57   1
   3  -8   1    7.77    0.46   1
   3  -8   1    7.99    0.49   1
  -3  -8  -1    7.40    0.51   1
  -3   8  -1    7.66    0.45   1
   3   8   1    7.80    0.47   1
   3   8   1    8.76    0.47   1
  -3   8  -1    7.74    0.48   1
   3   8   1    7.79    0.56   1
  -4  -8  -1    1.54    0.23   1
   4  -8   1    1.50    0.24   1
  -4  -8  -1    0.74    0.16   1
  -4  -8  -1    0.90    0.18   1
  -4   8  -1    1.00    0.16   1
  -4   8  -1    1.54    0.23   1
   4   8   1    1.23    0.20   1
  -5  -8  -1    0.05    0.19   1
   5  -8   1    0.27    0.20   1
  -5   8  -1   -0.11    0.17   1
   5   8   1    0.30    0.21   1
  -6  -8  -1    0.79    0.28   1
   6  -9  -1    0.21    0.26   1
  -6  -9   1    0.77    0.22   1
  -6   9   1    0.56    0.24   1
  -5  -9   1    1.42    0.23   1
   5  -9  -1    1.19    0.26   1
  -5   9   1    1.43    0.23   1
  -5   9   1    1.06    0.22   1
   5   9  -1    0.95    0.26   1
  -4  -9   1    8.59    0.53   1
  -4  -9   1    9.16    0.56   1
   4  -9  -1    9.55    0.58   1
   4   9  -1    8.50    0.55   1
  -4   9   1    8.84    0.54   1
   4   9  -1    8.66    0.66   1
  -4   9   1    8.51    0.54   1
  -3  -9   1    6.54    0.40   1
   3  -9  -1    6.18    0.42   1
  -3  -9   1    6.16    0.43   1
   3  -9  -1    6.13    0.41   1
  -3   9   1    6.24    0.39   1
  -3   9   1    6.54    0.40   1
   3   9  -1    6.35    0.40   1
   3   9  -1    6.38    0.46   1
   2  -9  -1   13.26    0.88   1
   2  -9  -1   12.94    0.76   1
  -2  -9   1   13.61    0.73   1
  -2  -9   1   14.38    0.75   1
   2  -9  -1   13.80    0.74   1
  -2  -9   1   14.39    0.90   1
  -2  -9   1   14.42    0.75   1
  -2  -9   1   13.93    0.86   1
   2  -9  -1   14.91    0.75   1
  -2   9   1   13.06    0.89   1
  -2   9   1   15.68    0.75   1
   2   9  -1   14.14    0.75   1
   2   9  -1   13.44    0.86   1
   2   9  -1   14.37    0.74   1
   2   9  -1   13.87    0.75   1
  -2   9   1   14.18    0.75   1
   2   9  -1   14.67    0.92   1
  -2   9   1   14.96    0.72   1
  -2   9   1   14.57    0.88   1
  -2   9   1   15.09    0.75   1
  -1   9   1   98.72    4.83  -2
  -1  -9   1   98.72    4.83   1
   1   9  -1  101.59    5.85  -2
   1  -9  -1  101.59    5.85   1
  -1   9   1   95.65    5.85  -2
  -1  -9   1   95.65    5.85   1
   1   9  -1   91.05    4.87  -2
   1  -9  -1   91.05    4.87   1
   1   9  -1   95.10    4.85  -2
   1  -9  -1   95.10    4.85   1
   1   9  -1   97.31    4.82  -2
   1  -9  -1   97.31    4.82   1
  -1   9   1   98.58    4.86  -2
  -1  -9   1   98.58    4.86   1
  -1   9   1   96.20    4.85  -2
  -1  -9   1   96.20    4.85   1
   1   9  -1  107.19    4.87  -2
   1  -9  -1  107.19    4.87   1
  -1   9   1  102.51    4.85  -2
  -1  -9   1  102.51    4.85   1
   1  -9  -1  107.22    5.75  -2
   1   9  -1  107.22    5.75   1
  -1  -9   1   94.96    4.87  -2
  -1   9   1   94.96    4.87   1
  -1  -9   1  108.21    5.85  -2
  -1   9   1  108.21    5.85   1
  -1  -9   1   97.92    4.82  -2
  -1   9   1   97.92    4.82   1
   1  -9  -1   96.36    4.86  -2
   1   9  -1   96.36    4.86   1
   1  -9  -1  100.90    4.85  -2
   1   9  -1  100.90    4.85   1
  -1  -9   1  101.55    4.86  -2
  -1   9   1  101.55    4.86   1
  -1  -9   1  109.84    5.77  -2
  -1   9   1  109.84    5.77   1
  -1  -9   1   94.24    4.85  -2
  -1   9   1   94.24    4.85   1
   1  -9  -1  100.31    5.86  -2
   1   9  -1  100.31    5.86   1
   1  -9  -1   96.65    4.83  -2
   1   9  -1   96.65    4.83   1
   0  -9   1    4.37    0.34   1
   0  -9   1    4.06    0.26   1
   0  -9   1    4.64    0.27   1
   0  -9   1    4.00    0.26   1
   0  -9  -1    4.51    0.26   1
   0  -9  -1    4.78    0.27   1
   0  -9   1    5.32    0.29   1
   0   9   1    4.45    0.29   1
   0   9   1    4.78    0.28   1
   0   9  -1    5.40    0.28   1
   0   9  -1    4.23    0.26   1
   0   9  -1    4.65    0.27   1
   0   9   1    4.67    0.26   1
   0   9   1    4.86    0.35   1
   0   9  -1    5.08    0.35   1
   0   9  -1    5.74    0.29   1
   1  -9   1   53.53    3.18   1
  -1  -9  -1   53.59    2.61   1
  -1  -9  -1   52.70    2.62   1
   1  -9   1   58.07    2.64   1
   1  -9   1   54.23    2.62   1
  -1  -9  -1   50.65    2.63   1
   1  -9   1   59.14    2.64   1
  -1  -9  -1   49.88    3.17   1
  -1   9  -1   54.54    2.64   1
  -1   9  -1   54.32    3.16   1
  -1   9  -1   53.01    2.62   1
   1   9   1   52.74    2.63   1
  -1   9  -1   50.73    2.63   1
   1   9   1   52.79    3.18   1
  -1   9  -1   53.96    2.62   1
   1   9   1   51.61    2.62   1
  -2  -9  -1   33.27    2.05   1
   2  -9   1   34.96    1.71   1
  -2  -9  -1   31.16    1.97   1
   2  -9   1   34.53    1.68   1
  -2  -9  -1   34.21    1.70   1
  -2   9  -1   33.08    2.01   1
  -2   9  -1   34.26    1.69   1
   2   9   1   34.66    1.69   1
  -2   9  -1   33.61    1.71   1
   2   9   1   34.72    1.70   1
   2   9   1   32.27    2.05   1
  -2   9  -1   36.03    1.69   1
   3  -9   1    3.21    0.28   1
  -3  -9  -1    2.25    0.23   1
  -3  -9  -1    3.20    0.34   1
   3  -9   1    3.20    0.23   1
  -3  -9  -1    2.79    0.25   1
  -3   9  -1    2.79    0.23   1
  -3   9  -1    2.93    0.26   1
   3   9   1    3.42    0.26   1
   3   9   1    2.68    0.25   1
  -4  -9  -1    7.63    0.59   1
  -4  -9  -1    8.24    0.53   1
  -4  -9  -1    8.12    0.51   1
   4  -9   1    7.96    0.54   1
  -4   9  -1    8.24    0.53   1
  -4   9  -1    8.24    0.50   1
   4   9   1    8.30    0.53   1
   5  -9   1    0.48    0.23   1
  -5  -9  -1    0.45    0.21   1
  -5   9  -1    0.32    0.18   1
   5   9   1    0.21    0.20   1
  -6  -9  -1    0.84    0.27   1
  -6 -10   1   -0.01    0.16   1
  -6  10   1    0.02    0.17   1
  -5 -10   1    0.30    0.17   1
  -5 -10   1    0.20    0.17   1
   5 -10  -1    0.78    0.24   1
  -5  10   1    0.24    0.16   1
   5  10  -1    0.48    0.21   1
  -5  10   1    0.60    0.18   1
  -4 -10   1    9.82    0.59   1
   4 -10  -1   10.91    0.65   1
  -4 -10   1   10.12    0.62   1
   4  10  -1    9.92    0.64   1
  -4  10   1   10.13    0.61   1
  -4  10   1   10.27    0.61   1
   4  10  -1   10.25    0.73   1
   3 -10  -1    6.14    0.44   1
   3 -10  -1    6.19    0.45   1
  -3 -10   1    6.89    0.42   1
  -3 -10   1    6.82    0.45   1
  -3  10   1    6.45    0.41   1
  -3  10   1    6.94    0.39   1
  -3  10   1    6.95    0.41   1
   3  10  -1    6.92    0.42   1
   3  10  -1    6.38    0.47   1
  -2 -10   1    2.66    0.26   1
   2 -10  -1    2.31    0.22   1
  -2 -10   1    2.52    0.22   1
   2 -10  -1    2.56    0.24   1
   2 -10  -1    2.41    0.19   1
  -2 -10   1    2.61    0.20   1
  -2  10   1    2.32    0.25   1
   2  10  -1    2.44    0.21   1
   2  10  -1    2.72    0.22   1
  -2  10   1    2.40    0.20   1
  -2  10   1    2.62    0.22   1
  -2  10   1    2.53    0.18   1
   2  10  -1    2.70    0.19   1
   2  10  -1    2.67    0.29   1
  -2  10   1    2.69    0.19   1
   2  10  -1    2.71    0.21   1
   1  10  -1   39.22    1.96  -2
   1 -10  -1   39.22    1.96   1
  -1  10   1   39.25    2.39  -2
  -1 -10   1   39.25    2.39   1
   1  10  -1   38.15    1.98  -2
   1 -10  -1   38.15    1.98   1
  -1  10   1   39.59    1.99  -2
  -1 -10   1   39.59    1.99   1
   1  10  -1   40.59    2.00  -2
   1 -10  -1   40.59    2.00   1
  -1  10   1   40.35    1.97  -2
  -1 -10   1   40.35    1.97   1
  -1  10   1   38.12    1.97  -2
  -1 -10   1   38.12    1.97   1
  -1  10   1   40.43    1.98  -2
  -1 -10   1   40.43    1.98   1
   1  10  -1   43.85    2.40  -2
   1 -10  -1   43.85    2.40   1
   1  10  -1   38.03    1.99  -2
   1 -10  -1   38.03    1.99   1
  -1 -10   1   43.64    2.35  -2
  -1  10   1   43.64    2.35   1
  -1 -10   1   40.35    1.99  -2
  -1  10   1   40.35    1.99   1
  -1 -10   1   43.77    2.39  -2
  -1  10   1   43.77    2.39   1
   1 -10  -1   36.66    1.99  -2
   1  10  -1   36.66    1.99   1
   1 -10  -1   42.89    2.34  -2
   1  10  -1   42.89    2.34   1
  -1 -10   1   39.57    1.96  -2
  -1  10   1   39.57    1.96   1
  -1 -10   1   38.02    1.98  -2
  -1  10   1   38.02    1.98   1
   1 -10  -1   39.36    1.98  -2
   1  10  -1   39.36    1.98   1
   1 -10  -1   40.14    1.97  -2
   1  10  -1   40.14    1.97   1
  -1 -10   1   39.13    1.99  -2
  -1  10   1   39.13    1.99   1
   1 -10  -1   39.34    2.40  -2
   1  10  -1   39.34    2.40   1
   0 -10   1   51.75    2.80   1
   0 -10  -1   55.49    2.77   1
   0 -10  -1   57.73    3.38   1
   0 -10   1   57.82    2.79   1
   0 -10   1   59.76    3.38   1
   0 -10  -1   58.18    2.81   1
   0 -10   1   60.61    2.80   1
   0 -10  -1   54.98    2.79   1
   0 -10  -1   58.37    2.81   1
   0  10  -1   55.37    2.80   1
   0  10   1   58.03    2.78   1
   0  10   1   59.28    2.81   1
   0  10  -1   59.29    3.38   1
   0  10   1   51.96    3.37   1
   0  10  -1   55.89    2.78   1
   0  10   1   54.56    2.80   1
   0  10   1   54.64    3.29   1
   0  10  -1   59.88    2.80   1
   0  10  -1   59.52    2.80   1
  -1 -10  -1    8.12    0.45   1
  -1 -10  -1    7.71    0.42   1
  -1 -10  -1    7.89    0.55   1
   1 -10   1    7.70    0.43   1
   1 -10   1    8.40    0.46   1
  -1 -10  -1    7.76    0.43   1
   1 -10   1    7.87    0.43   1
  -1  10  -1    7.97    0.44   1
   1  10   1    7.74    0.44   1
   1  10   1    6.96    0.44   1
  -1  10  -1    8.01    0.45   1
  -1  10  -1    7.92    0.43   1
  -1  10  -1    8.85    0.44   1
  -2 -10  -1   11.51    0.74   1
  -2 -10  -1   12.94    0.67   1
   2 -10   1   12.98    0.68   1
   2 -10   1   13.14    0.66   1
  -2 -10  -1   12.56    0.83   1
  -2  10  -1   13.33    0.66   1
  -2  10  -1   12.53    0.67   1
  -2  10  -1   12.13    0.77   1
   2  10   1   11.50    0.67   1
   2  10   1   11.89    0.66   1
  -2  10  -1   12.91    0.68   1
   2  10   1   12.17    0.82   1
   3 -10   1   33.84    1.63   1
  -3 -10  -1   31.47    1.63   1
  -3 -10  -1   32.14    1.98   1
   3 -10   1   33.48    1.65   1
  -3 -10  -1   29.33    1.89   1
  -3  10  -1   31.94    1.62   1
  -3  10  -1   33.58    1.63   1
   3  10   1   34.26    1.64   1
   3  10   1   28.97    1.63   1
  -3  10  -1   32.72    1.65   1
   4 -10   1    0.84    0.21   1
  -4 -10  -1    0.87    0.21   1
  -4 -10  -1    0.92    0.18   1
   4  10   1    1.24    0.21   1
  -4  10  -1    0.94    0.17   1
  -4  10  -1    1.15    0.20   1
   5 -10   1    1.29    0.28   1
  -5 -10  -1    1.14    0.26   1
  -5  10  -1    1.43    0.27   1
   5  10   1    1.12    0.27   1
  -6 -11   1    0.24    0.18   1
  -6  11   1    0.53    0.23   1
   5 -11  -1    7.68    0.57   1
  -5 -11   1    6.90    0.54   1
  -5 -11   1    7.86    0.52   1
  -5  11   1    8.38    0.54   1
  -5  11   1    7.88    0.53   1
   5  11  -1    7.95    0.55   1
  -4 -11   1    0.64    0.17   1
  -4 -11   1    0.52    0.16   1
   4 -11  -1    0.88    0.22   1
  -4  11   1    0.62    0.17   1
   4  11  -1    0.70    0.22   1
  -4  11   1    0.62    0.18   1
   4  11  -1    0.38    0.18   1
  -3 -11   1    1.30    0.17   1
   3 -11  -1    1.58    0.22   1
  -3 -11   1    1.23    0.18   1
   3 -11  -1    1.59    0.23   1
  -3  11   1    1.56    0.17   1
  -3  11   1    2.12    0.23   1
   3  11  -1    1.91    0.22   1
  -3  11   1    1.62    0.19   1
   3  11  -1    1.78    0.21   1
  -2 -11   1    7.00    0.42   1
  -2 -11   1    7.04    0.51   1
   2 -11  -1    7.13    0.44   1
   2 -11  -1    6.79    0.48   1
   2 -11  -1    6.78    0.40   1
  -2 -11   1    7.30    0.45   1
   2  11  -1    6.57    0.41   1
  -2  11   1    7.44    0.48   1
  -2  11   1    7.23    0.38   1
  -2  11   1    6.61    0.41   1
  -2  11   1    7.36    0.41   1
   2  11  -1    6.76    0.40   1
   2  11  -1    6.73    0.42   1
   2  11  -1    6.63    0.46   1
   1  11  -1   15.12    0.94  -2
   1 -11  -1   15.12    0.94   1
  -1  11   1   13.99    0.75  -2
  -1 -11   1   13.99    0.75   1
  -1  11   1   14.45    0.77  -2
  -1 -11   1   14.45    0.77   1
   1  11  -1   14.22    0.77  -2
   1 -11  -1   14.22    0.77   1
  -1  11   1   13.74    0.78  -2
  -1 -11   1   13.74    0.78   1
  -1  11   1   14.81    0.76  -2
  -1 -11   1   14.81    0.76   1
  -1  11   1   14.15    0.94  -2
  -1 -11   1   14.15    0.94   1
   1  11  -1   16.83    0.80  -2
   1 -11  -1   16.83    0.80   1
   1  11  -1   13.77    0.77  -2
   1 -11  -1   13.77    0.77   1
   1  11  -1   14.27    0.75  -2
   1 -11  -1   14.27    0.75   1
  -1 -11   1   14.19    0.75  -2
  -1  11   1   14.19    0.75   1
  -1 -11   1   15.46    0.91  -2
  -1  11   1   15.46    0.91   1
  -1 -11   1   14.03    0.77  -2
  -1  11   1   14.03    0.77   1
   1 -11  -1   14.89    0.76  -2
   1  11  -1   14.89    0.76   1
   1 -11  -1   14.40    0.78  -2
   1  11  -1   14.40    0.78   1
   1 -11  -1   15.33    0.77  -2
   1  11  -1   15.33    0.77   1
   1 -11  -1   15.30    0.96  -2
   1  11  -1   15.30    0.96   1
  -1 -11   1   13.97    0.77  -2
  -1  11   1   13.97    0.77   1
   1 -11  -1   16.27    0.90  -2
   1  11  -1   16.27    0.90   1
  -1 -11   1   15.57    0.79  -2
  -1  11   1   15.57    0.79   1
  -1 -11   1   16.82    0.94  -2
  -1  11   1   16.82    0.94   1
   0 -11   1    2.74    0.20   1
   0 -11  -1    3.22    0.19   1
   0 -11  -1    3.37    0.24   1
   0 -11   1    3.35    0.22   1
   0 -11  -1    3.36    0.29   1
   0 -11  -1    3.57    0.21   1
   0 -11   1    3.17    0.23   1
   0 -11   1    3.37    0.29   1
   0 -11  -1    3.53    0.22   1
   0 -11   1    2.65    0.20   1
   0  11   1    3.24    0.20   1
   0  11   1    3.21    0.28   1
   0  11  -1    3.55    0.29   1
   0  11   1    3.30    0.22   1
   0  11  -1    3.16    0.21   1
   0  11  -1    3.22    0.23   1
   0  11  -1    3.28    0.20   1
   0  11  -1    3.06    0.21   1
   0  11   1    3.17    0.23   1
  -1 -11  -1   29.62    1.88   1
  -1 -11  -1   33.11    1.57   1
  -1 -11  -1   29.13    1.54   1
   1 -11   1   29.99    1.56   1
   1 -11   1   31.99    1.54   1
  -1 -11  -1   30.01    1.53   1
   1 -11   1   30.64    1.54   1
   1 -11   1   32.31    1.56   1
  -1  11  -1   31.26    1.54   1
   1  11   1   30.82    1.56   1
   1  11   1   29.05    1.55   1
  -1  11  -1   30.89    1.55   1
   1  11   1   30.97    1.54   1
  -1  11  -1   31.06    1.86   1
  -1  11  -1   32.95    1.56   1
  -1  11  -1   31.61    1.55   1
   1  11   1   31.27    1.89   1
  -2 -11  -1    2.05    0.20   1
   2 -11   1    1.94    0.17   1
   2 -11   1    2.51    0.22   1
  -2 -11  -1    1.95    0.15   1
  -2 -11  -1    2.69    0.30   1
   2 -11   1    2.43    0.22   1
   2  11   1    2.06    0.19   1
   2  11   1    1.86    0.20   1
  -2  11  -1    2.20    0.20   1
  -2  11  -1    2.15    0.20   1
  -2  11  -1    2.39    0.21   1
  -2  11  -1    2.21    0.19   1
   3 -11   1    3.04    0.29   1
  -3 -11  -1    2.17    0.21   1
  -3 -11  -1    3.31    0.38   1
  -3 -11  -1    2.80    0.26   1
   3 -11   1    2.17    0.22   1
  -3  11  -1    2.41    0.23   1
   3  11   1    2.66    0.26   1
   3  11   1    2.97    0.26   1
  -3  11  -1    3.45    0.27   1
  -3  11  -1    2.90    0.26   1
   4 -11   1    1.38    0.23   1
  -4 -11  -1    0.53    0.16   1
  -4 -11  -1    0.84    0.21   1
   4  11   1    0.94    0.20   1
  -4  11  -1    1.33    0.22   1
  -4  11  -1    0.71    0.16   1
  -5 -11  -1    5.75    0.47   1
   5 -11   1    6.18    0.53   1
   5  11   1    5.94    0.48   1
  -5  11  -1    6.22    0.48   1
  -6 -12   1    0.31    0.20   1
  -5 -12   1    2.26    0.29   1
  -5 -12   1    2.57    0.32   1
   5 -12  -1    3.15    0.40   1
  -5  12   1    2.73    0.30   1
  -5  12   1    3.09    0.35   1
   5  12  -1    2.75    0.33   1
  -4 -12   1    0.12    0.15   1
  -4 -12   1    0.14    0.14   1
   4 -12  -1    0.45    0.21   1
   4  12  -1   -0.07    0.16   1
  -4  12   1    0.27    0.17   1
  -4  12   1    0.35    0.16   1
  -4  12   1    0.29    0.13   1
   4  12  -1    0.54    0.22   1
  -3 -12   1    2.26    0.22   1
  -3 -12   1    2.49    0.25   1
  -3  12   1    2.57    0.22   1
   3  12  -1    2.54    0.25   1
  -3  12   1    2.67    0.23   1
  -3  12   1    3.18    0.26   1
  -2 -12   1    3.93    0.36   1
   2 -12  -1    3.82    0.34   1
   2 -12  -1    3.77    0.30   1
  -2 -12   1    3.80    0.29   1
  -2  12   1    4.39    0.28   1
  -2  12   1    3.87    0.28   1
   2  12  -1    3.68    0.28   1
   2  12  -1    3.82    0.29   1
   2  12  -1    3.86    0.27   1
  -2  12   1    4.36    0.25   1
  -2  12   1    4.25    0.32   1
   1  12  -1    2.83    0.18  -2
   1 -12  -1    2.83    0.18   1
  -1  12   1    2.59    0.18  -2
  -1 -12   1    2.59    0.18   1
   1  12  -1    3.25    0.24  -2
   1 -12  -1    3.25    0.24   1
   1  12  -1    3.07    0.28  -2
   1 -12  -1    3.07    0.28   1
  -1  12   1    2.63    0.19  -2
  -1 -12   1    2.63    0.19   1
   1  12  -1    2.64    0.20  -2
   1 -12  -1    2.64    0.20   1
  -1  12   1    2.30    0.22  -2
  -1 -12   1    2.30    0.22   1
  -1  12   1    2.60    0.28  -2
  -1 -12   1    2.60    0.28   1
  -1  12   1    2.52    0.20  -2
  -1 -12   1    2.52    0.20   1
   1  12  -1    2.76    0.20  -2
   1 -12  -1    2.76    0.20   1
   1 -12  -1    2.84    0.21  -2
   1  12  -1    2.84    0.21   1
  -1 -12   1    2.79    0.18  -2
  -1  12   1    2.79    0.18   1
  -1 -12   1    2.93    0.20  -2
  -1  12   1    2.93    0.20   1
   1 -12  -1    2.79    0.30  -2
   1  12  -1    2.79    0.30   1
   1 -12  -1    2.67    0.23  -2
   1  12  -1    2.67    0.23   1
   1 -12  -1    2.90    0.22  -2
   1  12  -1    2.90    0.22   1
  -1 -12   1    2.71    0.21  -2
  -1  12   1    2.71    0.21   1
  -1 -12   1    3.36    0.26  -2
  -1  12   1    3.36    0.26   1
   1 -12  -1    2.96    0.20  -2
   1  12  -1    2.96    0.20   1
  -1 -12   1    3.13    0.24  -2
  -1  12   1    3.13    0.24   1
  -1 -12   1    3.30    0.23  -2
  -1  12   1    3.30    0.23   1
   0 -12  -1    2.84    0.19   1
   0 -12  -1    2.73    0.22   1
   0 -12   1    2.43    0.18   1
   0 -12   1    2.53    0.19   1
   0 -12  -1    2.63    0.18   1
   0 -12   1    2.50    0.17   1
   0 -12   1    2.80    0.22   1
   0 -12  -1    2.90    0.17   1
   0 -12  -1    2.58    0.27   1
   0 -12   1    2.63    0.26   1
   0  12  -1    2.47    0.21   1
   0  12   1    2.67    0.21   1
   0  12  -1    2.36    0.17   1
   0  12   1    3.11    0.18   1
   0  12  -1    2.42    0.18   1
   0  12   1    2.44    0.19   1
   0  12  -1    2.73    0.27   1
   0  12  -1    2.38    0.19   1
   0  12   1    2.89    0.20   1
   0  12   1    2.57    0.25   1
  -1 -12  -1   52.85    2.62   1
   1 -12   1   56.36    2.64   1
   1 -12   1   53.75    2.66   1
  -1 -12  -1   50.54    2.65   1
  -1 -12  -1   52.37    3.21   1
   1 -12   1   51.97    2.63   1
   1 -12   1   54.55    2.66   1
  -1  12  -1   54.01    2.64   1
  -1  12  -1   54.88    2.65   1
   1  12   1   51.30    2.66   1
   1  12   1   53.83    2.63   1
  -1  12  -1   57.60    2.65   1
   1  12   1   51.59    2.64   1
  -1  12  -1   54.70    3.18   1
  -2 -12  -1   11.84    0.82   1
   2 -12   1   12.60    0.64   1
  -2 -12  -1   11.78    0.66   1
   2 -12   1   12.54    0.67   1
   2 -12   1   12.10    0.77   1
  -2  12  -1   11.89    0.65   1
  -2  12  -1   11.64    0.75   1
   2  12   1   10.66    0.65   1
  -2  12  -1   11.66    0.64   1
  -2  12  -1   11.71    0.64   1
   2  12   1   12.14    0.65   1
  -3 -12  -1    7.57    0.61   1
  -3 -12  -1    7.28    0.46   1
  -3 -12  -1    6.81    0.45   1
   3 -12   1    6.31    0.43   1
   3 -12   1    7.77    0.49   1
   3  12   1    7.10    0.45   1
   3  12   1    7.15    0.46   1
  -3  12  -1    7.42    0.46   1
  -3  12  -1    7.19    0.44   1
  -3  12  -1    6.90    0.46   1
  -4 -12  -1   13.50    0.77   1
   4 -12   1   13.95    0.83   1
  -4 -12  -1   12.80    0.93   1
  -4  12  -1   13.59    0.78   1
   4  12   1   13.56    0.79   1
  -4  12  -1   13.51    0.79   1
  -4  12  -1   13.80    0.76   1
  -5 -12  -1    1.61    0.28   1
   5 -12   1    1.50    0.30   1
  -5  12  -1    1.23    0.26   1
  -5  12  -1    2.48    0.31   1
  -6 -13   1    0.72    0.23   1
  -5 -13   1    0.78    0.20   1
  -5 -13   1    0.67    0.22   1
   5 -13  -1    1.06    0.28   1
   5  13  -1    0.79    0.25   1
  -5  13   1    0.76    0.20   1
  -5  13   1    0.84    0.18   1
  -5  13   1    0.64    0.21   1
   4 -13  -1    3.93    0.38   1
  -4 -13   1    3.49    0.33   1
  -4  13   1    3.89    0.33   1
   4  13  -1    3.11    0.35   1
   4  13  -1    3.05    0.37   1
  -4  13   1    3.68    0.29   1
  -4  13   1    3.63    0.32   1
  -3 -13   1    7.83    0.47   1
  -3 -13   1    6.44    0.47   1
   3  13  -1    7.02    0.46   1
  -3  13   1    7.27    0.42   1
  -3  13   1    7.27    0.45   1
   2 -13  -1    1.83    0.22   1
  -2 -13   1    1.89    0.28   1
  -2 -13   1    2.00    0.22   1
   2 -13  -1    2.09    0.26   1
  -2  13   1    1.89    0.20   1
  -2  13   1    2.11    0.17   1
   2  13  -1    1.92    0.19   1
   2  13  -1    1.84    0.20   1
  -2  13   1    2.01    0.22   1
  -2  13   1    2.08    0.19   1
   2  13  -1    1.88    0.18   1
   1  13  -1   13.38    0.72  -2
   1 -13  -1   13.38    0.72   1
   1  13  -1   12.92    0.68  -2
   1 -13  -1   12.92    0.68   1
  -1  13   1   12.66    0.72  -2
  -1 -13   1   12.66    0.72   1
  -1  13   1   12.16    0.68  -2
  -1 -13   1   12.16    0.68   1
  -1  13   1   13.31    0.70  -2
  -1 -13   1   13.31    0.70   1
   1  13  -1   13.03    0.86  -2
   1 -13  -1   13.03    0.86   1
   1  13  -1   13.35    0.73  -2
   1 -13  -1   13.35    0.73   1
  -1  13   1   12.44    0.86  -2
  -1 -13   1   12.44    0.86   1
  -1 -13   1   13.27    0.72  -2
  -1  13   1   13.27    0.72   1
  -1 -13   1   12.85    0.71  -2
  -1  13   1   12.85    0.71   1
  -1 -13   1   13.17    0.68  -2
  -1  13   1   13.17    0.68   1
   1 -13  -1   13.34    0.70  -2
   1  13  -1   13.34    0.70   1
  -1 -13   1   14.65    0.83  -2
  -1  13   1   14.65    0.83   1
   1 -13  -1   13.40    0.71  -2
   1  13  -1   13.40    0.71   1
  -1 -13   1   12.51    0.70  -2
  -1  13   1   12.51    0.70   1
  -1 -13   1   14.41    0.86  -2
  -1  13   1   14.41    0.86   1
   1 -13  -1   14.28    0.81  -2
   1  13  -1   14.28    0.81   1
   0 -13   1    6.86    0.39   1
   0 -13   1    6.36    0.41   1
   0 -13  -1    6.87    0.51   1
   0 -13  -1    6.75    0.39   1
   0 -13   1    7.02    0.50   1
   0 -13   1    6.99    0.39   1
   0 -13  -1    6.99    0.38   1
   0 -13  -1    7.04    0.43   1
   0 -13   1    7.08    0.39   1
   0  13   1    7.18    0.38   1
   0  13   1    6.45    0.44   1
   0  13  -1    7.11    0.40   1
   0  13  -1    7.16    0.38   1
   0  13   1    6.82    0.40   1
   0  13  -1    7.24    0.51   1
   0  13  -1    6.95    0.39   1
   0  13   1    7.17    0.51   1
   0  13   1    6.65    0.42   1
  -1 -13  -1    1.66    0.19   1
   1 -13   1    1.65    0.19   1
  -1 -13  -1    1.74    0.25   1
  -1 -13  -1    1.18    0.13   1
   1 -13   1    1.25    0.15   1
   1 -13   1    1.17    0.14   1
   1  13   1    1.45    0.15   1
  -1  13  -1    1.66    0.17   1
   1  13   1    1.48    0.18   1
   1  13   1    1.56    0.16   1
  -1  13  -1    1.67    0.16   1
  -1  13  -1    1.39    0.14   1
  -2 -13  -1    1.02    0.17   1
  -2 -13  -1    1.23    0.24   1
   2 -13   1    1.66    0.21   1
   2 -13   1    1.39    0.15   1
   2 -13   1    1.53    0.18   1
  -2  13  -1    1.53    0.18   1
   2  13   1    0.86    0.15   1
  -2  13  -1    1.56    0.19   1
   2  13   1    0.93    0.16   1
  -2  13  -1    1.35    0.17   1
  -2  13  -1    1.16    0.18   1
   3 -13   1   12.44    0.68   1
  -3 -13  -1    9.99    0.67   1
   3 -13   1   11.04    0.62   1
  -3 -13  -1   10.93    0.65   1
  -3 -13  -1   11.27    0.82   1
  -3  13  -1   11.72    0.63   1
  -3  13  -1   10.41    0.70   1
  -3  13  -1   11.41    0.65   1
  -3  13  -1   11.54    0.65   1
   3  13   1   11.47    0.65   1
  -4 -13  -1    3.37    0.42   1
   4 -13   1    4.15    0.40   1
  -4 -13  -1    2.82    0.31   1
   4  13   1    3.61    0.34   1
  -4  13  -1    2.73    0.29   1
  -4  13  -1    4.35    0.35   1
  -4  13  -1    3.50    0.33   1
  -5 -13  -1    3.06    0.34   1
   5 -13   1    2.97    0.41   1
  -5  13  -1    2.57    0.34   1
  -5  13  -1    3.14    0.33   1
   5 -14  -1    1.51    0.31   1
  -5 -14   1    1.31    0.23   1
  -5 -14   1    0.99    0.23   1
  -5  14   1    0.99    0.22   1
  -5  14   1    1.01    0.24   1
  -5  14   1    1.40    0.26   1
   5  14  -1    1.33    0.29   1
   4 -14  -1    1.37    0.27   1
  -4 -14   1    1.13    0.21   1
  -4  14   1    1.10    0.18   1
  -4  14   1    0.98    0.21   1
  -4  14   1    1.25    0.21   1
   4  14  -1    1.21    0.27   1
   4  14  -1    0.94    0.24   1
  -3 -14   1    0.75    0.13   1
   3 -14  -1    1.04    0.20   1
   3 -14  -1    1.24    0.23   1
  -3 -14   1    0.62    0.17   1
  -3  14   1    1.18    0.17   1
  -3  14   1    0.92    0.14   1
  -3  14   1    0.85    0.18   1
  -3  14   1    0.72    0.16   1
   3  14  -1    0.69    0.17   1
   3  14  -1    0.93    0.17   1
  -2 -14   1    0.24    0.13   1
   2 -14  -1    0.11    0.13   1
   2 -14  -1    0.30    0.15   1
  -2 -14   1    0.14    0.15   1
   2  14  -1    0.38    0.11   1
  -2  14   1    0.20    0.11   1
  -2  14   1    0.23    0.11   1
   2  14  -1    0.32    0.12   1
  -2  14   1    0.21    0.11   1
   2  14  -1    0.28    0.11   1
  -2  14   1    0.31    0.09   1
   1  14  -1    6.35    0.49  -2
   1 -14  -1    6.35    0.49   1
  -1  14   1    6.16    0.48  -2
  -1 -14   1    6.16    0.48   1
   1  14  -1    5.86    0.35  -2
   1 -14  -1    5.86    0.35   1
   1  14  -1    5.90    0.41  -2
   1 -14  -1    5.90    0.41   1
  -1  14   1    6.26    0.40  -2
  -1 -14   1    6.26    0.40   1
  -1  14   1    5.91    0.35  -2
  -1 -14   1    5.91    0.35   1
  -1 -14   1    5.94    0.38  -2
  -1  14   1    5.94    0.38   1
   1 -14  -1    6.62    0.39  -2
   1  14  -1    6.62    0.39   1
   1 -14  -1    6.79    0.38  -2
   1  14  -1    6.79    0.38   1
  -1 -14   1    6.24    0.36  -2
  -1  14   1    6.24    0.36   1
  -1 -14   1    6.65    0.44  -2
  -1  14   1    6.65    0.44   1
  -1 -14   1    6.00    0.38  -2
  -1  14   1    6.00    0.38   1
   1 -14  -1    7.02    0.43  -2
   1  14  -1    7.02    0.43   1
  -1 -14   1    6.99    0.47  -2
  -1  14   1    6.99    0.47   1
   0 -14   1    0.95    0.16   1
   0 -14   1    0.87    0.12   1
   0 -14   1    0.78    0.17   1
   0 -14  -1    0.71    0.17   1
   0 -14  -1    1.27    0.18   1
   0 -14   1    0.67    0.12   1
   0  14   1    0.76    0.13   1
   0  14   1    1.15    0.17   1
   0  14  -1    0.76    0.12   1
   0  14   1    1.04    0.12   1
   0  14  -1    0.90    0.11   1
   0  14  -1    0.70    0.12   1
   1 -14   1   11.99    0.65   1
  -1 -14  -1   11.39    0.65   1
  -1 -14  -1   11.41    0.79   1
   1 -14   1   11.28    0.62   1
   1  14   1   10.83    0.64   1
  -1  14  -1   12.80    0.62   1
  -1  14  -1   10.57    0.62   1
   1  14   1   10.86    0.62   1
  -1  14  -1   11.29    0.62   1
   2 -14   1    2.48    0.26   1
  -2 -14  -1    2.16    0.23   1
   2 -14   1    2.29    0.23   1
  -2 -14  -1    2.78    0.35   1
   2 -14   1    2.28    0.20   1
  -2  14  -1    2.28    0.22   1
  -2  14  -1    2.48    0.22   1
  -2  14  -1    1.94    0.24   1
  -2  14  -1    2.02    0.21   1
   2  14   1    2.01    0.24   1
   2  14   1    2.09    0.22   1
  -3 -14  -1    0.64    0.17   1
   3 -14   1    0.78    0.19   1
  -3 -14  -1    0.54    0.24   1
   3 -14   1    0.41    0.12   1
   3 -14   1    0.97    0.21   1
   3  14   1    0.48    0.17   1
  -3  14  -1    0.42    0.16   1
  -3  14  -1    0.51    0.17   1
  -3  14  -1    0.69    0.15   1
   4 -14   1    3.20    0.38   1
  -4 -14  -1    3.01    0.41   1
  -4 -14  -1    2.97    0.30   1
  -4  14  -1    2.79    0.32   1
  -4  14  -1    2.43    0.28   1
  -4  14  -1    3.20    0.32   1
   4  14   1    3.42    0.34   1
  -5 -14  -1    0.99    0.25   1
   5 -14   1    1.81    0.35   1
  -5  14  -1    2.61    0.33   1
   5  14   1    1.43    0.28   1
  -5  14  -1    1.42    0.28   1
  -5 -15   1    2.55    0.30   1
   5 -15  -1    3.28    0.45   1
  -5 -15   1    2.86    0.34   1
  -5  15   1    2.84    0.33   1
  -5  15   1    3.05    0.33   1
   5  15  -1    2.70    0.37   1
  -5  15   1    2.94    0.37   1
  -4 -15   1    0.04    0.14   1
   4 -15  -1    0.08    0.21   1
   4  15  -1   -0.07    0.17   1
  -4  15   1   -0.02    0.15   1
   4  15  -1   -0.26    0.18   1
  -4  15   1   -0.09    0.11   1
  -4  15   1   -0.04    0.14   1
  -3 -15   1    0.12    0.09   1
   3 -15  -1    0.54    0.19   1
  -3 -15   1    0.09    0.13   1
   3 -15  -1    0.27    0.16   1
  -3 -15   1   -0.16    0.15   1
  -3  15   1   -0.02    0.13   1
   3  15  -1    0.09    0.15   1
   3  15  -1    0.26    0.12   1
  -3  15   1    0.03    0.11   1
  -3  15   1    0.10    0.10   1
  -3  15   1    0.13    0.10   1
  -2 -15   1   25.22    1.57   1
   2 -15  -1   24.08    1.31   1
  -2 -15   1   25.51    1.31   1
   2 -15  -1   25.08    1.55   1
  -2  15   1   25.35    1.29   1
  -2  15   1   25.58    1.26   1
  -2  15   1   24.93    1.29   1
   2  15  -1   23.92    1.49   1
  -2  15   1   23.80    1.53   1
   2  15  -1   25.24    1.29   1
   2  15  -1   25.03    1.28   1
  -1  15   1    7.19    0.44  -2
  -1 -15   1    7.19    0.44   1
   1  15  -1    7.45    0.49  -2
   1 -15  -1    7.45    0.49   1
  -1  15   1    7.62    0.59  -2
  -1 -15   1    7.62    0.59   1
   1  15  -1    7.93    0.44  -2
   1 -15  -1    7.93    0.44   1
   1  15  -1    8.40    0.60  -2
   1 -15  -1    8.40    0.60   1
  -1  15   1    8.47    0.50  -2
  -1 -15   1    8.47    0.50   1
  -1 -15   1    8.40    0.48  -2
  -1  15   1    8.40    0.48   1
  -1 -15   1    7.87    0.44  -2
  -1  15   1    7.87    0.44   1
  -1 -15   1    8.81    0.55  -2
  -1  15   1    8.81    0.55   1
  -1 -15   1    7.71    0.46  -2
  -1  15   1    7.71    0.46   1
   1 -15  -1    8.42    0.47  -2
   1  15  -1    8.42    0.47   1
   1 -15  -1    8.04    0.46  -2
   1  15  -1    8.04    0.46   1
   1 -15  -1    8.57    0.53  -2
   1  15  -1    8.57    0.53   1
   0 -15   1    8.60    0.49   1
   0 -15   1    9.72    0.65   1
   0 -15   1    8.75    0.53   1
   0 -15  -1    8.46    0.54   1
   0 -15   1    8.68    0.51   1
   0 -15  -1    9.44    0.67   1
   0 -15  -1    8.66    0.49   1
   0  15  -1    9.26    0.52   1
   0  15   1    8.50    0.52   1
   0  15   1    9.17    0.49   1
   0  15  -1    9.61    0.50   1
   0  15  -1    9.50    0.51   1
   1 -15   1    4.04    0.31   1
   1 -15   1    4.08    0.28   1
  -1 -15  -1    4.84    0.44   1
   1 -15   1    4.59    0.38   1
  -1 -15  -1    3.98    0.31   1
  -1  15  -1    4.27    0.28   1
  -1  15  -1    4.21    0.29   1
   1  15   1    4.50    0.35   1
   1  15   1    4.13    0.28   1
   1  15   1    4.48    0.30   1
   1  15   1    3.66    0.31   1
  -1  15  -1    4.01    0.29   1
  -2 -15  -1   12.73    0.89   1
  -2 -15  -1   12.50    0.71   1
   2 -15   1   12.96    0.80   1
   2 -15   1   12.15    0.68   1
   2 -15   1   12.18    0.72   1
  -2  15  -1   11.77    0.82   1
  -2  15  -1   12.95    0.70   1
  -2  15  -1   12.65    0.69   1
  -2  15  -1   12.69    0.70   1
   2  15   1   12.73    0.70   1
  -3 -15  -1    0.52    0.17   1
  -3 -15  -1    0.72    0.24   1
   3 -15   1    0.71    0.21   1
   3 -15   1    0.72    0.21   1
  -3  15  -1    0.66    0.16   1
  -3  15  -1    0.76    0.17   1
  -3  15  -1    0.46    0.17   1
   3  15   1    0.60    0.18   1
  -4 -15  -1    3.32    0.33   1
  -4 -15  -1    3.61    0.46   1
   4 -15   1    3.56    0.42   1
   4 -15   1    3.25    0.39   1
  -4  15  -1    3.62    0.34   1
   4  15   1    3.61    0.37   1
  -4  15  -1    3.89    0.35   1
   5 -15   1    0.15    0.25   1
  -5 -15  -1    0.28    0.20   1
  -5  15  -1    0.44    0.20   1
  -5  15  -1    0.54    0.22   1
   5  15   1    0.41    0.23   1
   5 -16  -1   -0.01    0.24   1
  -5 -16   1   -0.01    0.15   1
  -5 -16   1    0.01    0.19   1
  -5  16   1   -0.19    0.14   1
  -5  16   1    0.04    0.19   1
   5  16  -1    0.08    0.22   1
  -5  16   1    0.06    0.18   1
   4 -16  -1    2.08    0.33   1
  -4 -16   1    1.56    0.25   1
  -4  16   1    2.09    0.24   1
   4  16  -1    2.17    0.31   1
  -4  16   1    1.91    0.27   1
   4  16  -1    1.75    0.30   1
  -4  16   1    1.99    0.28   1
   3 -16  -1    3.70    0.39   1
   3 -16  -1    4.13    0.37   1
  -3 -16   1    3.91    0.41   1
  -3 -16   1    3.89    0.34   1
  -3  16   1    3.79    0.28   1
  -3  16   1    3.39    0.33   1
   3  16  -1    4.02    0.32   1
  -3  16   1    4.12    0.34   1
  -3  16   1    3.50    0.30   1
   3  16  -1    3.84    0.33   1
   2 -16  -1    1.38    0.24   1
  -2 -16   1    1.13    0.25   1
  -2 -16   1    1.42    0.21   1
   2 -16  -1    1.39    0.24   1
  -2  16   1    1.32    0.17   1
   2  16  -1    1.49    0.20   1
  -2  16   1    1.38    0.16   1
  -2  16   1    1.67    0.21   1
   2  16  -1    1.56    0.19   1
   2  16  -1    1.57    0.20   1
   1  16  -1    5.59    0.34  -2
   1 -16  -1    5.59    0.34   1
   1  16  -1    5.76    0.40  -2
   1 -16  -1    5.76    0.40   1
   1  16  -1    5.96    0.49  -2
   1 -16  -1    5.96    0.49   1
  -1  16   1    5.12    0.48  -2
  -1 -16   1    5.12    0.48   1
  -1  16   1    5.10    0.33  -2
  -1 -16   1    5.10    0.33   1
  -1  16   1    5.99    0.39  -2
  -1 -16   1    5.99    0.39   1
  -1 -16   1    6.24    0.42  -2
  -1  16   1    6.24    0.42   1
   1 -16  -1    6.06    0.40  -2
   1  16  -1    6.06    0.40   1
   1 -16  -1    5.58    0.36  -2
   1  16  -1    5.58    0.36   1
  -1 -16   1    6.14    0.34  -2
  -1  16   1    6.14    0.34   1
  -1 -16   1    5.56    0.37  -2
  -1  16   1    5.56    0.37   1
  -1 -16   1    5.80    0.38  -2
  -1  16   1    5.80    0.38   1
   1 -16  -1    6.33    0.38  -2
   1  16  -1    6.33    0.38   1
   0 -16   1   99.90    5.64   1
   0 -16   1   93.54    4.68   1
   0 -16   1   93.12    4.69   1
   0 -16  -1   91.67    4.69   1
   0 -16  -1   98.68    5.65   1
   0  16   1   96.63    4.64   1
   0  16  -1   97.77    4.68   1
   0  16   1   88.97    5.50   1
   0  16  -1   92.33    4.65   1
   0  16  -1  100.88    4.68   1
   0  16   1   94.12    4.67   1
  -1 -16  -1    0.42    0.15   1
   1 -16   1    1.13    0.19   1
   1 -16   1    0.50    0.11   1
  -1 -16  -1    0.76    0.21   1
   1  16   1    0.58    0.14   1
  -1  16  -1    0.69    0.13   1
   2 -16   1    0.76    0.19   1
  -2 -16  -1    0.81    0.18   1
  -2 -16  -1    0.78    0.26   1
  -2  16  -1    0.79    0.16   1
   2  16   1    0.61    0.16   1
  -2  16  -1    0.92    0.17   1
  -2  16  -1    0.33    0.16   1
  -2  16  -1    0.62    0.15   1
  -3 -16  -1    4.34    0.51   1
   3 -16   1    4.58    0.40   1
   3 -16   1    4.17    0.37   1
  -3 -16  -1    4.46    0.37   1
  -3  16  -1    4.32    0.34   1
   3  16   1    4.47    0.36   1
  -3  16  -1    4.52    0.34   1
  -3  16  -1    4.47    0.36   1
   4 -16   1    2.25    0.35   1
  -4 -16  -1    2.32    0.29   1
  -4 -16  -1    2.25    0.37   1
   4 -16   1    2.48    0.35   1
  -4  16  -1    2.83    0.31   1
  -4  16  -1    2.23    0.30   1
   4  16   1    2.36    0.32   1
  -5 -16  -1    0.13    0.19   1
  -5  16  -1   -0.04    0.17   1
  -5  16  -1    0.15    0.19   1
  -5 -17   1    0.15    0.17   1
  -5 -17   1    0.22    0.19   1
  -5  17   1    0.15    0.19   1
   5  17  -1    0.23    0.23   1
  -4 -17   1    0.69    0.21   1
   4 -17  -1    1.01    0.29   1
  -4  17   1    0.65    0.17   1
   4  17  -1    0.39    0.22   1
  -4  17   1    0.76    0.22   1
  -4  17   1    0.83    0.20   1
   4  17  -1    0.61    0.23   1
   2 -17  -1    3.74    0.37   1
   2 -17  -1    3.83    0.43   1
  -2 -17   1    4.21    0.44   1
  -2 -17   1    4.37    0.34   1
   2  17  -1    4.26    0.33   1
  -2  17   1    4.23    0.30   1
   2  17  -1    4.00    0.31   1
   2  17  -1    3.84    0.31   1
  -2  17   1    4.11    0.33   1
  -2  17   1    4.33    0.28   1
   1  17  -1    4.92    0.47  -2
   1 -17  -1    4.92    0.47   1
  -1  17   1    4.29    0.30  -2
  -1 -17   1    4.29    0.30   1
   1  17  -1    5.01    0.37  -2
   1 -17  -1    5.01    0.37   1
  -1  17   1    4.65    0.36  -2
  -1 -17   1    4.65    0.36   1
  -1  17   1    4.71    0.45  -2
  -1 -17   1    4.71    0.45   1
  -1 -17   1    5.29    0.39  -2
  -1  17   1    5.29    0.39   1
   1 -17  -1    5.26    0.34  -2
   1  17  -1    5.26    0.34   1
  -1 -17   1    4.71    0.30  -2
  -1  17   1    4.71    0.30   1
   1 -17  -1    5.35    0.36  -2
   1  17  -1    5.35    0.36   1
  -1 -17   1    4.41    0.32  -2
  -1  17   1    4.41    0.32   1
  -1 -17   1    5.22    0.35  -2
  -1  17   1    5.22    0.35   1
   1 -17  -1    5.05    0.33  -2
   1  17  -1    5.05    0.33   1
   0 -17  -1    4.36    0.42   1
   0 -17   1    4.03    0.32   1
   0 -17   1    3.86    0.39   1
   0 -17  -1    3.86    0.32   1
   0  17   1    3.15    0.25   1
   0  17   1    2.86    0.27   1
   0  17   1    3.62    0.29   1
   0  17  -1    4.04    0.29   1
   0  17  -1    3.52    0.27   1
  -1 -17  -1   10.58    0.63   1
   1 -17   1   11.37    0.64   1
  -1 -17  -1   10.50    0.78   1
   1 -17   1   10.73    0.74   1
  -1  17  -1   10.32    0.59   1
   1  17   1   11.10    0.70   1
  -1  17  -1   10.47    0.60   1
  -1  17  -1   10.54    0.59   1
   1  17   1    9.97    0.60   1
   1  17   1   10.03    0.59   1
  -2 -17  -1    4.27    0.35   1
  -2 -17  -1    4.08    0.50   1
   2 -17   1    4.38    0.36   1
  -2  17  -1    4.24    0.32   1
  -2  17  -1    4.02    0.31   1
  -2  17  -1    4.29    0.32   1
   2  17   1    3.58    0.31   1
   3 -17   1    0.28    0.17   1
   3 -17   1    0.11    0.19   1
  -3 -17  -1    0.06    0.24   1
  -3 -17  -1    0.04    0.15   1
  -3  17  -1    0.20    0.14   1
  -3  17  -1    0.05    0.14   1
  -3  17  -1    0.30    0.17   1
   3  17   1    0.04    0.17   1
   4 -17   1    0.61    0.25   1
  -4 -17  -1    0.34    0.25   1
  -4 -17  -1    0.46    0.19   1
   4  17   1    0.36    0.21   1
  -4  17  -1    0.58    0.20   1
  -4  17  -1    0.37    0.18   1
  -5  17  -1    1.75    0.31   1
  -5 -18   1    0.51    0.22   1
  -5 -18   1    0.30    0.18   1
   5 -18  -1    0.52    0.29   1
  -5  18   1    0.50    0.22   1
   5  18  -1    0.55    0.27   1
  -4 -18   1    0.24    0.18   1
   4 -18  -1    0.49    0.24   1
  -4  18   1    0.34    0.19   1
   4  18  -1    0.20    0.21   1
  -4  18   1    0.42    0.20   1
  -4  18   1    0.14    0.14   1
  -3 -18   1    8.26    0.64   1
  -3 -18   1    8.02    0.53   1
   3 -18  -1    7.58    0.61   1
   3 -18  -1    7.66    0.56   1
  -3  18   1    8.43    0.48   1
   3  18  -1    7.37    0.53   1
  -3  18   1    8.55    0.54   1
  -3  18   1    8.26    0.52   1
   3  18  -1    6.72    0.53   1
  -2 -18   1    2.99    0.31   1
   2 -18  -1    2.81    0.39   1
  -2 -18   1    3.00    0.39   1
   2 -18  -1    2.46    0.31   1
  -2  18   1    3.01    0.23   1
  -2  18   1    2.92    0.28   1
   2  18  -1    2.76    0.26   1
  -2  18   1    3.06    0.27   1
   2  18  -1    2.98    0.27   1
   2  18  -1    2.76    0.29   1
   1  18  -1    3.78    0.32  -2
   1 -18  -1    3.78    0.32   1
  -1  18   1    3.33    0.40  -2
  -1 -18   1    3.33    0.40   1
   1  18  -1    3.56    0.42  -2
   1 -18  -1    3.56    0.42   1
  -1  18   1    3.79    0.32  -2
  -1 -18   1    3.79    0.32   1
  -1 -18   1    2.90    0.27  -2
  -1  18   1    2.90    0.27   1
  -1 -18   1    3.55    0.25  -2
  -1  18   1    3.55    0.25   1
   1 -18  -1    3.79    0.29  -2
   1  18  -1    3.79    0.29   1
  -1 -18   1    4.00    0.33  -2
  -1  18   1    4.00    0.33   1
   1 -18  -1    3.63    0.28  -2
   1  18  -1    3.63    0.28   1
  -1 -18   1    3.79    0.30  -2
  -1  18   1    3.79    0.30   1
   1 -18  -1    4.03    0.30  -2
   1  18  -1    4.03    0.30   1
   0 -18   1    0.12    0.14   1
   0 -18  -1    0.29    0.20   1
   0 -18  -1    0.11    0.15   1
   0 -18   1   -0.02    0.16   1
   0  18   1    0.09    0.10   1
   0  18  -1    0.21    0.11   1
   0  18   1    0.15    0.09   1
   0  18   1    0.14    0.12   1
   0  18  -1    0.32    0.14   1
  -1 -18  -1    1.52    0.23   1
   1 -18   1    1.34    0.24   1
   1 -18   1    1.72    0.27   1
  -1 -18  -1    1.29    0.28   1
   1  18   1    1.94    0.23   1
  -1  18  -1    1.58    0.19   1
   1  18   1    1.50    0.19   1
   1  18   1    1.37    0.20   1
  -1  18  -1    1.81    0.22   1
  -1  18  -1    1.75    0.20   1
  -2 -18  -1    0.55    0.18   1
  -2 -18  -1    0.32    0.25   1
   2 -18   1    0.43    0.18   1
  -2  18  -1    0.58    0.16   1
  -2  18  -1    0.53    0.16   1
  -2  18  -1    0.49    0.16   1
   2  18   1    0.41    0.16   1
  -3 -18  -1    3.31    0.35   1
   3 -18   1    4.27    0.39   1
  -3 -18  -1    3.89    0.51   1
  -3  18  -1    3.71    0.34   1
   3  18   1    3.69    0.35   1
  -3  18  -1    3.96    0.34   1
  -3  18  -1    3.86    0.33   1
   4 -18   1   -0.05    0.21   1
  -4 -18  -1   -0.03    0.23   1
   4  18   1   -0.15    0.18   1
  -4  18  -1   -0.07    0.19   1
  -4  18  -1    0.15    0.17   1
  -5  18  -1    0.39    0.21   1
  -5 -19   1    0.17    0.19   1
  -5  19   1    0.14    0.21   1
   4 -19  -1   -0.19    0.21   1
  -4 -19   1   -0.25    0.15   1
   4  19  -1   -0.10    0.19   1
  -4  19   1   -0.02    0.17   1
  -4  19   1   -0.05    0.15   1
  -4  19   1   -0.05    0.13   1
  -3 -19   1    1.39    0.25   1
   3 -19  -1    1.32    0.26   1
   3 -19  -1    1.14    0.28   1
  -3 -19   1    1.12    0.26   1
  -3  19   1    0.99    0.18   1
  -3  19   1    1.23    0.24   1
   3  19  -1    1.42    0.25   1
   3  19  -1    1.43    0.22   1
  -3  19   1    1.17    0.22   1
  -2 -19   1    1.92    0.31   1
   2 -19  -1    2.50    0.35   1
   2 -19  -1    2.36    0.30   1
  -2 -19   1    2.20    0.28   1
  -2  19   1    2.35    0.28   1
  -2  19   1    2.14    0.21   1
  -2  19   1    2.32    0.24   1
   2  19  -1    2.19    0.27   1
   2  19  -1    1.93    0.22   1
   2  19  -1    2.16    0.25   1
   1  19  -1    1.33    0.28  -2
   1 -19  -1    1.33    0.28   1
  -1  19   1    0.93    0.26  -2
  -1 -19   1    0.93    0.26   1
   1  19  -1    1.30    0.23  -2
   1 -19  -1    1.30    0.23   1
  -1  19   1    1.37    0.22  -2
  -1 -19   1    1.37    0.22   1
   1 -19  -1    1.11    0.19  -2
   1  19  -1    1.11    0.19   1
   1 -19  -1    0.99    0.17  -2
   1  19  -1    0.99    0.17   1
  -1 -19   1    1.03    0.15  -2
  -1  19   1    1.03    0.15   1
  -1 -19   1    1.11    0.19  -2
  -1  19   1    1.11    0.19   1
   1 -19  -1    1.17    0.18  -2
   1  19  -1    1.17    0.18   1
   0 -19  -1    5.19    0.40   1
   0 -19   1    5.14    0.48   1
   0 -19  -1    5.32    0.51   1
   0 -19   1    4.58    0.37   1
   0  19  -1    5.11    0.37   1
   0  19   1    4.29    0.35   1
   0  19  -1    4.89    0.33   1
   0  19   1    4.92    0.37   1
   0  19   1    4.76    0.32   1
   1 -19   1    7.48    0.56   1
  -1 -19  -1    5.00    0.58   1
   1 -19   1    7.91    0.50   1
  -1  19  -1    6.09    0.41   1
   1  19   1    6.33    0.41   1
  -1  19  -1    6.97    0.44   1
  -1  19  -1    6.57    0.41   1
  -2 -19  -1    0.22    0.18   1
  -2 -19  -1    0.06    0.24   1
   2 -19   1    0.33    0.19   1
  -2  19  -1    0.51    0.16   1
  -2  19  -1    0.38    0.14   1
  -2  19  -1    0.13    0.15   1
   2  19   1    0.17    0.15   1
   3 -19   1    0.88    0.24   1
  -3 -19  -1    0.69    0.30   1
  -3 -19  -1    0.70    0.20   1
   3  19   1    0.82    0.21   1
  -3  19  -1    0.80    0.20   1
  -3  19  -1    0.85    0.20   1
  -3  19  -1    0.97    0.20   1
   4 -19   1   -0.04    0.22   1
  -4 -19  -1    0.22    0.26   1
   4  19   1    0.16    0.20   1
  -4  19  -1   -0.02    0.18   1
  -4  19  -1    0.21    0.17   1
  -5  19  -1    0.01    0.19   1
  -5 -20   1    1.20    0.27   1
   4 -20  -1    0.24    0.24   1
  -4 -20   1   -0.19    0.15   1
  -4  20   1    0.18    0.19   1
  -4  20   1   -0.02    0.16   1
   4  20  -1   -0.25    0.19   1
  -4  20   1   -0.08    0.14   1
  -3 -20   1    2.77    0.32   1
  -3 -20   1    2.92    0.41   1
   3 -20  -1    2.38    0.37   1
   3 -20  -1    2.59    0.35   1
   3  20  -1    2.77    0.34   1
   3  20  -1    2.33    0.28   1
  -3  20   1    2.51    0.32   1
  -3  20   1    2.75    0.26   1
  -3  20   1    2.50    0.29   1
  -2 -20   1    5.89    0.43   1
   2 -20  -1    4.50    0.50   1
  -2 -20   1    5.11    0.50   1
   2 -20  -1    4.71    0.42   1
  -2  20   1    4.95    0.39   1
   2  20  -1    4.60    0.37   1
   2  20  -1    4.85    0.39   1
  -2  20   1    4.73    0.33   1
  -2  20   1    4.70    0.37   1
   2  20  -1    5.08    0.38   1
  -1  20   1    0.07    0.19  -2
  -1 -20   1    0.07    0.19   1
  -1  20   1    0.14    0.15  -2
  -1 -20   1    0.14    0.15   1
   1  20  -1    0.08    0.22  -2
   1 -20  -1    0.08    0.22   1
   1  20  -1    0.11    0.17  -2
   1 -20  -1    0.11    0.17   1
  -1 -20   1    0.39    0.16  -2
  -1  20   1    0.39    0.16   1
  -1 -20   1    0.15    0.10  -2
  -1  20   1    0.15    0.10   1
   1 -20  -1    0.31    0.12  -2
   1  20  -1    0.31    0.12   1
   1 -20  -1    0.16    0.14  -2
   1  20  -1    0.16    0.14   1
   1 -20  -1   -0.01    0.12  -2
   1  20  -1   -0.01    0.12   1
   0 -20   1    2.72    0.36   1
   0 -20  -1    2.32    0.29   1
   0 -20   1    2.40    0.28   1
   0 -20  -1    2.58    0.37   1
   0  20   1    1.92    0.23   1
   0  20  -1    2.13    0.27   1
   0  20   1    2.25    0.27   1
   0  20   1    2.43    0.22   1
   0  20  -1    2.43    0.23   1
  -1 -20  -1    2.63    0.32   1
   1 -20   1    4.52    0.42   1
   1 -20   1    4.16    0.36   1
  -1  20  -1    3.94    0.30   1
  -1  20  -1    4.29    0.34   1
   1  20   1    3.95    0.30   1
  -1  20  -1    3.15    0.29   1
  -2 -20  -1    1.79    0.38   1
   2 -20   1    2.00    0.30   1
  -2 -20  -1    1.73    0.26   1
  -2  20  -1    1.95    0.25   1
   2  20   1    1.82    0.25   1
  -2  20  -1    2.16    0.27   1
  -2  20  -1    1.93    0.26   1
   3 -20   1    2.77    0.36   1
  -3 -20  -1    2.22    0.42   1
  -3 -20  -1    2.67    0.32   1
  -3  20  -1    2.59    0.30   1
  -3  20  -1    2.23    0.29   1
  -3  20  -1    2.28    0.30   1
   3  20   1    2.52    0.29   1
   4 -20   1   -0.04    0.23   1
  -4 -20  -1    0.14    0.26   1
  -4  20  -1    0.06    0.19   1
   4  20   1    0.09    0.21   1
  -4  20  -1    0.24    0.19   1
   4 -21  -1    0.67    0.30   1
  -4 -21   1    0.56    0.21   1
  -4  21   1    0.69    0.21   1
   4  21  -1    0.44    0.25   1
  -4  21   1    1.14    0.25   1
  -4  21   1    0.88    0.20   1
   3 -21  -1    2.21    0.33   1
  -3 -21   1    1.99    0.35   1
   3 -21  -1    2.29    0.36   1
  -3 -21   1    2.14    0.31   1
   3  21  -1    1.87    0.28   1
  -3  21   1    2.25    0.24   1
  -3  21   1    2.24    0.30   1
  -3  21   1    2.71    0.33   1
  -2 -21   1    0.52    0.23   1
   2 -21  -1    0.41    0.23   1
   2 -21  -1    0.27    0.24   1
  -2 -21   1    0.53    0.20   1
   2  21  -1    0.43    0.18   1
   2  21  -1    0.23    0.13   1
  -2  21   1    0.57    0.15   1
  -2  21   1    0.83    0.20   1
   2  21  -1    0.58    0.18   1
  -2  21   1    0.62    0.20   1
   1  21  -1    0.25    0.19  -2
   1 -21  -1    0.25    0.19   1
  -1  21   1    0.20    0.17  -2
  -1 -21   1    0.20    0.17   1
   1  21  -1    0.03    0.22  -2
   1 -21  -1    0.03    0.22   1
  -1  21   1   -0.03    0.20  -2
  -1 -21   1   -0.03    0.20   1
  -1 -21   1    0.09    0.11  -2
  -1  21   1    0.09    0.11   1
   1 -21  -1    0.26    0.15  -2
   1  21  -1    0.26    0.15   1
   1 -21  -1    0.26    0.15  -2
   1  21  -1    0.26    0.15   1
   1 -21  -1    0.09    0.12  -2
   1  21  -1    0.09    0.12   1
  -1 -21   1    0.22    0.16  -2
  -1  21   1    0.22    0.16   1
   0 -21   1    0.09    0.18   1
   0 -21  -1   -0.11    0.16   1
   0 -21   1    0.01    0.17   1
   0 -21  -1    0.30    0.25   1
   0  21   1    0.08    0.11   1
   0  21  -1    0.20    0.13   1
   0  21   1    0.03    0.11   1
   0  21  -1    0.09    0.14   1
   0  21   1    0.07    0.15   1
  -1 -21  -1    0.61    0.20   1
   1 -21   1    0.70    0.21   1
   1 -21   1    0.83    0.22   1
  -1 -21  -1    0.53    0.28   1
   1  21   1    0.60    0.18   1
   1  21   1    0.38    0.14   1
  -1  21  -1    0.88    0.17   1
  -1  21  -1    0.89    0.20   1
   1  21   1    0.51    0.18   1
  -1  21  -1    0.78    0.17   1
  -2 -21  -1    0.45    0.30   1
  -2 -21  -1    0.85    0.22   1
   2 -21   1    0.44    0.23   1
  -2  21  -1    0.92    0.21   1
   2  21   1    0.83    0.20   1
  -2  21  -1    0.84    0.20   1
   2  21   1    1.23    0.26   1
  -2  21  -1    0.60    0.18   1
  -3 -21  -1    4.02    0.39   1
   3 -21   1    4.94    0.46   1
  -3 -21  -1    3.95    0.57   1
  -3  21  -1    4.51    0.38   1
  -3  21  -1    4.31    0.38   1
   3  21   1    4.04    0.39   1
  -3  21  -1    4.55    0.38   1
   4 -21   1    0.05    0.23   1
  -4 -21  -1   -0.03    0.25   1
  -4  21  -1   -0.11    0.17   1
  -4  21  -1    0.08    0.18   1
   4  21   1    0.02    0.21   1
  -4 -22   1    3.31    0.39   1
  -4  22   1    3.96    0.41   1
   4  22  -1    3.95    0.42   1
  -4  22   1    3.61    0.36   1
  -4  22   1    3.55    0.35   1
  -3 -22   1    0.15    0.20   1
   3 -22  -1    0.01    0.19   1
   3 -22  -1    0.04    0.23   1
  -3  22   1    0.07    0.19   1
   3  22  -1    0.01    0.18   1
  -3  22   1   -0.01    0.13   1
  -3  22   1    0.03    0.15   1
   2 -22  -1    3.77    0.42   1
   2 -22  -1    3.18    0.44   1
  -2 -22   1    3.55    0.48   1
  -2 -22   1    3.40    0.37   1
  -2  22   1    3.28    0.30   1
   2  22  -1    3.83    0.33   1
   2  22  -1    3.00    0.30   1
  -2  22   1    3.80    0.30   1
   2  22  -1    3.46    0.34   1
  -2  22   1    3.91    0.36   1
   1  22  -1    9.30    0.62  -2
   1 -22  -1    9.30    0.62   1
  -1  22   1    8.40    0.73  -2
  -1 -22   1    8.40    0.73   1
   1  22  -1    8.03    0.75  -2
   1 -22  -1    8.03    0.75   1
  -1  22   1    9.13    0.60  -2
  -1 -22   1    9.13    0.60   1
   1 -22  -1    8.73    0.56  -2
   1  22  -1    8.73    0.56   1
  -1 -22   1    8.82    0.53  -2
  -1  22   1    8.82    0.53   1
   1 -22  -1    9.21    0.57  -2
   1  22  -1    9.21    0.57   1
   1 -22  -1    9.80    0.62  -2
   1  22  -1    9.80    0.62   1
  -1 -22   1    9.74    0.59  -2
  -1  22   1    9.74    0.59   1
   0 -22   1   16.66    0.91   1
   0 -22  -1   14.01    0.89   1
   0 -22  -1   15.23    1.10   1
   0 -22   1   15.19    1.05   1
   0  22   1   14.64    0.82   1
   0  22  -1   15.57    0.86   1
   0  22   1   14.27    0.86   1
   0  22  -1   14.85    0.83   1
   2 -22   1    1.06    0.26   1
  -2 -22  -1    1.08    0.25   1
  -2 -22  -1    0.83    0.34   1
   2  22   1    0.83    0.22   1
   2  22   1    1.25    0.28   1
  -2  22  -1    0.79    0.20   1
  -2  22  -1    1.14    0.22   1
  -2  22  -1    0.78    0.21   1
  -3 -22  -1    1.98    0.30   1
   3 -22   1    2.07    0.36   1
  -3 -22  -1    1.81    0.41   1
  -3  22  -1    2.31    0.28   1
  -3  22  -1    1.91    0.28   1
  -3  22  -1    2.13    0.29   1
   3  22   1    2.18    0.31   1
  -4 -22  -1    0.33    0.29   1
   4 -22   1   -0.01    0.23   1
   4  22   1   -0.18    0.20   1
  -4  22  -1    0.23    0.19   1
  -4  22  -1    0.29    0.19   1
  -4 -23   1    0.61    0.24   1
  -4  23   1    0.44    0.24   1
   4  23  -1    0.36    0.24   1
  -4  23   1    0.31    0.20   1
  -4  23   1    0.19    0.17   1
   3 -23  -1    0.29    0.25   1
   3 -23  -1    0.16    0.21   1
  -3 -23   1    0.18    0.20   1
  -3  23   1    0.15    0.16   1
   3  23  -1    0.05    0.19   1
  -3  23   1    0.29    0.15   1
  -3  23   1    0.31    0.19   1
   2 -23  -1   17.45    1.00   1
   2 -23  -1   14.72    1.13   1
  -2 -23   1   16.04    0.94   1
  -2 -23   1   16.12    1.14   1
   2  23  -1   16.14    0.92   1
  -2  23   1   14.94    0.90   1
   2  23  -1   16.03    0.91   1
  -2  23   1   16.09    0.93   1
  -2  23   1   15.72    0.87   1
  -1  23   1    0.65    0.26  -2
  -1 -23   1    0.65    0.26   1
   1  23  -1    0.69    0.29  -2
   1 -23  -1    0.69    0.29   1
   1  23  -1    1.02    0.27  -2
   1 -23  -1    1.02    0.27   1
  -1  23   1    0.91    0.25  -2
  -1 -23   1    0.91    0.25   1
  -1 -23   1    1.19    0.24  -2
  -1  23   1    1.19    0.24   1
   1 -23  -1    0.76    0.20  -2
   1  23  -1    0.76    0.20   1
  -1 -23   1    0.99    0.17  -2
  -1  23   1    0.99    0.17   1
   1 -23  -1    0.97    0.21  -2
   1  23  -1    0.97    0.21   1
   1 -23  -1    1.00    0.19  -2
   1  23  -1    1.00    0.19   1
   0 -23   1    4.64    0.42   1
   0 -23  -1    4.08    0.53   1
   0 -23  -1    3.93    0.40   1
   0 -23   1    4.22    0.48   1
   0  23  -1    4.03    0.33   1
   0  23   1    3.52    0.31   1
   0  23  -1    4.28    0.37   1
   0  23   1    4.07    0.37   1
  -1 -23  -1    9.78    0.68   1
   1 -23   1   10.07    0.68   1
  -1 -23  -1   10.91    0.88   1
  -1  23  -1   10.37    0.62   1
  -1  23  -1   10.33    0.62   1
   1  23   1   10.23    0.62   1
  -1  23  -1   11.20    0.67   1
   1  23   1   10.76    0.66   1
  -2 -23  -1    1.49    0.39   1
   2 -23   1    1.84    0.33   1
  -2 -23  -1    2.18    0.32   1
  -2  23  -1    2.41    0.30   1
  -2  23  -1    2.27    0.31   1
  -2  23  -1    2.27    0.29   1
   2  23   1    2.11    0.29   1
  -3 -23  -1   -0.20    0.27   1
  -3 -23  -1   -0.04    0.16   1
   3 -23   1    0.08    0.23   1
   3  23   1    0.18    0.20   1
  -3  23  -1    0.01    0.17   1
  -3  23  -1    0.11    0.17   1
  -4 -23  -1    0.13    0.28   1
  -4  23  -1   -0.16    0.22   1
  -4  23  -1    0.21    0.19   1
  -4 -24   1    0.01    0.20   1
  -4  24   1    0.04    0.22   1
  -3 -24   1    2.26    0.32   1
   3 -24  -1    2.04    0.35   1
  -3  24   1    2.77    0.33   1
  -3  24   1    2.10    0.30   1
   3  24  -1    1.64    0.29   1
  -3  24   1    2.34    0.26   1
   2 -24  -1    0.45    0.27   1
   2 -24  -1    0.52    0.24   1
  -2 -24   1    0.73    0.26   1
  -2 -24   1    0.56    0.23   1
  -2  24   1    0.52    0.22   1
  -2  24   1    0.79    0.22   1
   2  24  -1    0.92    0.23   1
   2  24  -1    0.49    0.19   1
  -2  24   1    0.74    0.16   1
  -1  24   1   -0.04    0.21  -2
  -1 -24   1   -0.04    0.21   1
   1  24  -1   -0.43    0.23  -2
   1 -24  -1   -0.43    0.23   1
   1  24  -1    0.13    0.21  -2
   1 -24  -1    0.13    0.21   1
  -1  24   1   -0.06    0.21  -2
  -1 -24   1   -0.06    0.21   1
   1 -24  -1   -0.13    0.17  -2
   1  24  -1   -0.13    0.17   1
  -1 -24   1   -0.01    0.17  -2
  -1  24   1   -0.01    0.17   1
   1 -24  -1    0.09    0.14  -2
   1  24  -1    0.09    0.14   1
  -1 -24   1    0.11    0.13  -2
  -1  24   1    0.11    0.13   1
   1 -24  -1    0.02    0.15  -2
   1  24  -1    0.02    0.15   1
   0 -24  -1    0.66    0.32   1
   0 -24   1    0.84    0.25   1
   0 -24  -1    0.79    0.25   1
   0 -24   1    0.68    0.24   1
   0  24   1    1.13    0.25   1
   0  24   1    0.82    0.18   1
   0  24  -1    0.95    0.23   1
   0  24  -1    0.79    0.19   1
  -1 -24  -1    1.06    0.26   1
  -1 -24  -1    0.93    0.35   1
   1 -24   1    1.43    0.28   1
   1  24   1    0.94    0.23   1
  -1  24  -1    1.30    0.25   1
  -1  24  -1    1.04    0.20   1
  -1  24  -1    1.32    0.22   1
   1  24   1    1.19    0.22   1
  -2 -24  -1    0.65    0.35   1
  -2 -24  -1    1.02    0.25   1
   2 -24   1    1.25    0.29   1
  -2  24  -1    0.99    0.25   1
  -2  24  -1    0.81    0.21   1
  -2  24  -1    1.10    0.22   1
   2  24   1    1.07    0.24   1
  -3 -24  -1    0.82    0.35   1
  -3 -24  -1    0.89    0.25   1
   3 -24   1    0.77    0.30   1
  -3  24  -1    1.15    0.25   1
  -3  24  -1    0.92    0.24   1
   3  24   1    0.44    0.23   1
  -4 -24  -1   -0.01    0.28   1
  -4  24  -1   -0.04    0.20   1
  -4 -25   1   -0.01    0.20   1
  -4  25   1   -0.09    0.22   1
  -3 -25   1    0.06    0.19   1
   3  25  -1    0.31    0.21   1
  -3  25   1    0.15    0.16   1
  -3  25   1    0.61    0.24   1
  -3  25   1    0.42    0.22   1
   2 -25  -1    0.80    0.30   1
  -2 -25   1    0.71    0.27   1
  -2 -25   1    1.11    0.26   1
   2 -25  -1    1.09    0.29   1
  -2  25   1    0.99    0.26   1
   2  25  -1    0.82    0.22   1
  -2  25   1    0.79    0.18   1
   2  25  -1    0.59    0.22   1
  -2  25   1    0.89    0.22   1
   1  25  -1   -0.02    0.26  -2
   1 -25  -1   -0.02    0.26   1
  -1  25   1    0.16    0.22  -2
  -1 -25   1    0.16    0.22   1
  -1  25   1    0.26    0.24  -2
  -1 -25   1    0.26    0.24   1
   1  25  -1    0.46    0.25  -2
   1 -25  -1    0.46    0.25   1
  -1 -25   1    0.56    0.22  -2
  -1  25   1    0.56    0.22   1
   1 -25  -1    0.41    0.18  -2
   1  25  -1    0.41    0.18   1
   1 -25  -1    0.33    0.15  -2
   1  25  -1    0.33    0.15   1
   1 -25  -1    0.41    0.20  -2
   1  25  -1    0.41    0.20   1
  -1 -25   1    0.29    0.15  -2
  -1  25   1    0.29    0.15   1
   0 -25   1   -0.11    0.18   1
   0 -25   1   -0.19    0.20   1
   0 -25  -1   -0.38    0.25   1
   0 -25  -1   -0.14    0.19   1
   0  25   1    0.04    0.13   1
   0  25  -1    0.04    0.15   1
   0  25   1   -0.15    0.18   1
   0  25  -1    0.03    0.18   1
  -1 -25  -1    3.09    0.39   1
   1 -25   1    3.60    0.41   1
  -1 -25  -1    2.65    0.49   1
   1  25   1    2.55    0.30   1
  -1  25  -1    2.86    0.31   1
  -1  25  -1    2.92    0.35   1
   1  25   1    2.70    0.34   1
  -1  25  -1    2.88    0.29   1
   2 -25   1    0.02    0.24   1
  -2 -25  -1   -0.01    0.19   1
  -2 -25  -1   -0.06    0.31   1
  -2  25  -1    0.15    0.18   1
  -2  25  -1    0.22    0.18   1
   2  25   1    0.00    0.18   1
  -2  25  -1    0.21    0.19   1
  -3 -25  -1    0.35    0.33   1
  -3 -25  -1    0.24    0.20   1
   3 -25   1    0.47    0.27   1
  -3  25  -1    0.12    0.18   1
  -3  25  -1    0.48    0.22   1
   3  25   1    0.17    0.21   1
  -4 -26   1    0.21    0.22   1
  -3 -26   1    0.23    0.23   1
   3  26  -1    0.32    0.22   1
  -3  26   1    0.21    0.16   1
  -3  26   1    0.41    0.22   1
  -3  26   1    0.15    0.22   1
   2 -26  -1    0.10    0.26   1
   2 -26  -1    0.73    0.29   1
  -2 -26   1    0.66    0.24   1
  -2 -26   1    0.62    0.26   1
   2  26  -1    0.58    0.20   1
   2  26  -1    0.36    0.20   1
  -2  26   1    0.67    0.24   1
  -2  26   1    0.45    0.16   1
   1  26  -1    2.41    0.35  -2
   1 -26  -1    2.41    0.35   1
   1  26  -1    1.73    0.42  -2
   1 -26  -1    1.73    0.42   1
  -1  26   1    2.75    0.37  -2
  -1 -26   1    2.75    0.37   1
  -1  26   1    2.51    0.40  -2
  -1 -26   1    2.51    0.40   1
   1 -26  -1    2.37    0.29  -2
   1  26  -1    2.37    0.29   1
  -1 -26   1    2.27    0.32  -2
  -1  26   1    2.27    0.32   1
   1 -26  -1    2.77    0.34  -2
   1  26  -1    2.77    0.34   1
  -1 -26   1    1.87    0.25  -2
  -1  26   1    1.87    0.25   1
   0 -26   1    0.24    0.22   1
   0 -26  -1   -0.37    0.18   1
   0 -26   1    0.02    0.21   1
   0 -26  -1   -0.32    0.28   1
   0  26   1   -0.11    0.13   1
   0  26   1   -0.20    0.17   1
   0  26  -1   -0.09    0.18   1
   0  26  -1   -0.03    0.15   1
  -1 -26  -1    1.87    0.32   1
  -1 -26  -1    0.70    0.35   1
   1 -26   1    1.62    0.32   1
  -1  26  -1    1.42    0.24   1
   1  26   1    1.79    0.26   1
   1  26   1    1.65    0.27   1
  -1  26  -1    1.61    0.28   1
  -2 -26  -1   -0.37    0.29   1
  -2 -26  -1    0.16    0.22   1
   2 -26   1    0.29    0.25   1
   2  26   1   -0.03    0.19   1
  -2  26  -1   -0.14    0.16   1
  -2  26  -1    0.23    0.19   1
  -2  26  -1   -0.03    0.19   1
  -3 -26  -1   -0.09    0.31   1
  -3  26  -1    0.22    0.19   1
  -3  26  -1    0.21    0.19   1
  -3 -27   1    2.46    0.37   1
  -3  27   1    1.99    0.31   1
  -3  27   1    2.37    0.37   1
  -3  27   1    2.10    0.29   1
   3  27  -1    2.14    0.35   1
   2 -27  -1   -0.27    0.23   1
   2 -27  -1   -0.30    0.22   1
  -2 -27   1   -0.12    0.22   1
  -2 -27   1    0.34    0.24   1
   2  27  -1    0.35    0.20   1
   2  27  -1    0.10    0.21   1
  -2  27   1    0.03    0.21   1
  -2  27   1    0.00    0.14   1
  -1  27   1    0.80    0.27  -2
  -1 -27   1    0.80    0.27   1
  -1  27   1    0.69    0.28  -2
  -1 -27   1    0.69    0.28   1
   1  27  -1    0.73    0.28  -2
   1 -27  -1    0.73    0.28   1
   1  27  -1    0.14    0.27  -2
   1 -27  -1    0.14    0.27   1
  -1 -27   1    0.73    0.24  -2
  -1  27   1    0.73    0.24   1
   1 -27  -1    0.51    0.21  -2
   1  27  -1    0.51    0.21   1
  -1 -27   1    0.51    0.18  -2
  -1  27   1    0.51    0.18   1
   1 -27  -1    0.61    0.20  -2
   1  27  -1    0.61    0.20   1
   0 -27   1   -0.01    0.22   1
   0 -27  -1   -0.13    0.29   1
   0 -27  -1   -0.07    0.21   1
   0 -27   1    0.28    0.22   1
   0  27   1   -0.09    0.18   1
   0  27   1    0.04    0.13   1
   0  27  -1   -0.12    0.14   1
   0  27  -1   -0.20    0.18   1
  -1 -27  -1    0.25    0.22   1
   1 -27   1    0.26    0.24   1
  -1 -27  -1   -0.19    0.30   1
  -1  27  -1    0.46    0.21   1
   1  27   1    0.38    0.21   1
   1  27   1    0.07    0.15   1
  -1  27  -1    0.25    0.18   1
  -2 -27  -1   -0.32    0.29   1
   2 -27   1    0.24    0.26   1
  -2 -27  -1   -0.37    0.20   1
   2  27   1   -0.15    0.20   1
  -2  27  -1   -0.14    0.17   1
  -2  27  -1    0.02    0.21   1
  -2  27  -1    0.22    0.19   1
  -3  27  -1    0.80    0.24   1
  -3  27  -1    1.07    0.26   1
  -3 -28   1    0.47    0.25   1
  -3  28   1    0.30    0.26   1
  -2 -28   1    0.08    0.23   1
   2 -28  -1    0.14    0.25   1
  -2  28   1    0.33    0.24   1
   2  28  -1    0.19    0.20   1
  -2  28   1   -0.07    0.14   1
   2  28  -1    0.21    0.22   1
  -1  28   1    0.08    0.21  -2
  -1 -28   1    0.08    0.21   1
   1  28  -1    0.00    0.21  -2
   1 -28  -1    0.00    0.21   1
  -1  28   1   -0.01    0.23  -2
  -1 -28   1   -0.01    0.23   1
   1  28  -1   -0.09    0.25  -2
   1 -28  -1   -0.09    0.25   1
  -1 -28   1   -0.02    0.14  -2
  -1  28   1   -0.02    0.14   1
   1 -28  -1    0.09    0.20  -2
   1  28  -1    0.09    0.20   1
   1 -28  -1   -0.05    0.17  -2
   1  28  -1   -0.05    0.17   1
  -1 -28   1    0.16    0.21  -2
  -1  28   1    0.16    0.21   1
   0 -28  -1    0.86    0.30   1
   0 -28   1    0.71    0.27   1
   0 -28  -1    0.24    0.32   1
   0  28  -1    0.74    0.21   1
   0  28   1    0.50    0.24   1
   0  28   1    0.66    0.19   1
   0  28  -1    0.71    0.23   1
  -1 -28  -1    0.07    0.32   1
   1 -28   1    0.31    0.28   1
  -1 -28  -1    0.27    0.24   1
   1  28   1    0.11    0.20   1
   1  28   1    0.02    0.16   1
  -1  28  -1    0.12    0.17   1
  -1  28  -1   -0.02    0.19   1
   2 -28   1    0.47    0.28   1
  -2 -28  -1    0.10    0.31   1
  -2 -28  -1    0.49    0.25   1
  -2  28  -1    0.48    0.22   1
  -2  28  -1    0.22    0.20   1
   2  28   1    0.32    0.24   1
  -2  28  -1    0.52    0.24   1
  -3  28  -1    1.16    0.27   1
  -3  29   1    0.34    0.27   1
   2 -29  -1    1.48    0.36   1
   2 -29  -1    1.69    0.40   1
  -2 -29   1    1.95    0.35   1
  -2  29   1    1.77    0.26   1
  -2  29   1    1.73    0.33   1
   2  29  -1    1.79    0.30   1
   2  29  -1    1.64    0.31   1
  -1  29   1    0.29    0.25  -2
  -1 -29   1    0.29    0.25   1
   1  29  -1   -0.42    0.24  -2
   1 -29  -1   -0.42    0.24   1
   1 -29  -1    0.22    0.19  -2
   1  29  -1    0.22    0.19   1
  -1 -29   1   -0.02    0.16  -2
  -1  29   1   -0.02    0.16   1
  -1 -29   1    0.24    0.23  -2
  -1  29   1    0.24    0.23   1
   1 -29  -1   -0.10    0.21  -2
   1  29  -1   -0.10    0.21   1
   0 -29   1    0.16    0.26   1
   0 -29  -1    0.30    0.26   1
   0 -29  -1   -0.17    0.29   1
   0  29   1    0.06    0.22   1
   0  29   1   -0.10    0.14   1
   0  29  -1    0.07    0.20   1
   0  29  -1   -0.16    0.16   1
  -1 -29  -1    0.20    0.33   1
   1 -29   1    0.62    0.29   1
  -1 -29  -1    0.18    0.24   1
   1  29   1    0.34    0.19   1
   1  29   1    0.43    0.23   1
  -1  29  -1    0.26    0.20   1
  -1  29  -1    0.41    0.22   1
  -2 -29  -1    1.56    0.33   1
  -2  29  -1    1.30    0.28   1
  -2  29  -1    1.23    0.28   1
   2 -30  -1   -0.04    0.23   1
  -2 -30   1    0.03    0.25   1
  -2  30   1   -0.01    0.24   1
   2  30  -1    0.08    0.24   1
  -2  30   1   -0.01    0.16   1
   1  30  -1    0.45    0.28  -2
   1 -30  -1    0.45    0.28   1
   1  30  -1    0.06    0.27  -2
   1 -30  -1    0.06    0.27   1
  -1  30   1   -0.02    0.25  -2
  -1 -30   1   -0.02    0.25   1
   1 -30  -1    0.28    0.22  -2
   1  30  -1    0.28    0.22   1
   1 -30  -1    0.31    0.21  -2
   1  30  -1    0.31    0.21   1
  -1 -30   1    0.21    0.18  -2
  -1  30   1    0.21    0.18   1
  -1 -30   1    0.15    0.23  -2
  -1  30   1    0.15    0.23   1
   0 -30  -1    0.59    0.37   1
   0 -30  -1    0.88    0.31   1
   0 -30   1    0.82    0.31   1
   0  30   1    0.89    0.28   1
   0  30  -1    1.09    0.27   1
   0  30   1    0.81    0.22   1
   0  30  -1    0.85    0.24   1
  -1 -30  -1    1.28    0.32   1
   1  30   1    0.55    0.22   1
   1  30   1    0.55    0.25   1
  -1  30  -1    0.76    0.24   1
  -1  30  -1    0.38    0.25   1
  -2 -30  -1    4.06    0.46   1
  -2  30  -1    3.97    0.41   1
  -1 -31   1   -0.11    0.16  -2
  -1  31   1   -0.11    0.16   1
  -1 -31   1   -0.18    0.21  -2
  -1  31   1   -0.18    0.21   1
   1 -31  -1   -0.07    0.23  -2
   1  31  -1   -0.07    0.23   1
   0 -31  -1    0.21    0.26   1
   0  31   1    0.41    0.20   1
   0  31   1    0.34    0.26   1
   0  31  -1    0.21    0.21   1
   0  31  -1    0.33    0.23   1
  -1 -31  -1    0.71    0.30   1
   1  31   1    0.39    0.21   1
  -1  31  -1    0.26    0.22   1
  -1  31  -1    0.44    0.26   1
  -2 -31  -1    0.67    0.30   1
  -1 -32   1   -0.04    0.17  -2
  -1  32   1   -0.04    0.17   1
   0  32   1    0.11    0.18   1
   0  32  -1    0.06    0.23   1
  -1  32  -1    0.10    0.22   1
  -6   0   2    1.32    0.26   1
  -6   0   2    1.31    0.25   1
  -5   0   2    0.26    0.16   1
   5   0  -2    0.60    0.21   1
  -5   0   2    0.45    0.17   1
   4   0  -2   18.34    1.00   1
   4   0  -2   16.72    1.13   1
  -4   0   2   20.13    0.99   1
   4   0  -2   17.50    1.20   1
  -4   0   2   19.15    0.97   1
   3   0  -2    1.44    0.18   1
   3   0  -2    1.88    0.15   1
  -3   0   2    1.80    0.15   1
   3   0  -2    1.56    0.23   1
  -3   0   2    2.14    0.18   1
   2   0  -2  111.74    5.88  -2
   2   0  -2  111.74    5.88   1
  -2   0   2  117.38    5.90  -2
  -2   0   2  117.38    5.90   1
  -2   0   2  124.02    5.85  -2
  -2   0   2  124.02    5.85   1
  -2   0   2  125.71    5.89  -2
  -2   0   2  125.71    5.89   1
   2   0  -2  130.63    7.01  -2
   2   0  -2  130.63    7.01   1
  -2   0   2  111.50    5.88  -2
  -2   0   2  111.50    5.88   1
   2   0  -2  122.25    5.89  -2
   2   0  -2  122.25    5.89   1
  -2   0   2  133.24    7.00  -2
  -2   0   2  133.24    7.00   1
   2   0  -2  113.02    5.90  -2
   2   0  -2  113.02    5.90   1
  -1   0   2  687.57   31.36   1
  -1   0   2  638.67   31.25   1
   1   0  -2  655.51   31.25   1
  -1   0   2  638.33   37.18   1
   1   0  -2  633.11   31.26   1
  -1   0   2  626.56   31.26   1
   1   0  -2  660.89   31.35   1
   1   0  -2  615.80   37.12   1
   0   0  -2  424.93   25.56   1
   0   0  -2  457.04   21.43   1
   0   0  -2  446.10   21.43   1
   0   0   2  444.41   21.43   1
   1   0   2    0.32    0.05   1
   1   0   2    0.41    0.05   1
  -1   0  -2    0.42    0.04   1
  -2   0  -2   55.47    2.66   1
   2   0   2   56.24    2.67   1
  -2   0  -2   52.71    3.22   1
   2   0   2   54.65    2.67   1
  -2   0  -2   55.12    2.72   1
  -2   0  -2   53.33    2.66   1
  -3   0  -2   14.83    0.82   1
  -3   0  -2   15.35    0.77   1
  -3   0  -2   14.24    0.92   1
   3   0   2   14.86    0.78   1
   3   0   2   15.30    0.78   1
  -4   0  -2    1.07    0.15   1
  -4   0  -2    1.15    0.24   1
   4   0   2    1.19    0.19   1
   1   0  -8    1.93    0.30  -2
   5   0   2    1.93    0.30   1
  -1   0   8    3.06    0.35  -2
  -5   0  -2    3.06    0.35   1
  -6  -1   2    0.19    0.17   1
  -6  -1   2    0.09    0.16   1
   6  -1  -2    0.23    0.23   1
   6   1  -2    0.17    0.22   1
  -6   1   2    0.10    0.17   1
   5  -1  -2    1.02    0.24   1
  -5  -1   2    0.91    0.20   1
  -5  -1   2    0.59    0.17   1
  -5   1   2    0.57    0.18   1
   5   1  -2    0.77    0.23   1
  -5   1   2    0.65    0.17   1
  -4  -1   2    1.88    0.21   1
   4  -1  -2    2.11    0.24   1
   4  -1  -2    3.02    0.28   1
   4  -1  -2    2.78    0.36   1
  -4   1   2    2.29    0.23   1
  -4   1   2    1.80    0.20   1
  -3  -1   2    2.68    0.18   1
   3  -1  -2    2.28    0.21   1
  -3  -1   2    2.28    0.20   1
   3  -1  -2    2.72    0.19   1
   3  -1  -2    2.36    0.27   1
  -3  -1   2    2.31    0.17   1
  -3   1   2    2.48    0.19   1
   3   1  -2    2.35    0.21   1
   3   1  -2    2.21    0.18   1
  -3   1   2    2.53    0.21   1
   3   1  -2    2.30    0.27   1
  -2   1   2   32.41    1.72  -2
  -2  -1   2   32.41    1.72   1
  -2   1   2   29.48    1.44  -2
  -2  -1   2   29.48    1.44   1
   2   1  -2   30.03    1.45  -2
   2  -1  -2   30.03    1.45   1
   2   1  -2   25.78    1.43  -2
   2  -1  -2   25.78    1.43   1
   2   1  -2   26.54    1.43  -2
   2  -1  -2   26.54    1.43   1
  -2   1   2   26.15    1.43  -2
  -2  -1   2   26.15    1.43   1
   2   1  -2   31.27    1.72  -2
   2  -1  -2   31.27    1.72   1
  -2   1   2   27.40    1.42  -2
  -2  -1   2   27.40    1.42   1
  -2   1   2   29.04    1.41  -2
  -2  -1   2   29.04    1.41   1
  -2  -1   2   32.20    1.72  -2
  -2   1   2   32.20    1.72   1
  -2  -1   2   30.64    1.44  -2
  -2   1   2   30.64    1.44   1
   2  -1  -2   31.39    1.72  -2
   2   1  -2   31.39    1.72   1
  -2  -1   2   26.10    1.43  -2
  -2   1   2   26.10    1.43   1
  -2  -1   2   28.65    1.43  -2
  -2   1   2   28.65    1.43   1
   2  -1  -2   29.10    1.44  -2
   2   1  -2   29.10    1.44   1
  -2  -1   2   29.24    1.41  -2
  -2   1   2   29.24    1.41   1
   2  -1  -2   27.14    1.42  -2
   2   1  -2   27.14    1.42   1
   2  -1  -2   26.14    1.44  -2
   2   1  -2   26.14    1.44   1
   1  -1  -2    5.48    0.34   1
   1  -1  -2    5.70    0.31   1
  -1  -1   2    6.95    0.32   1
   1  -1  -2    6.20    0.40   1
  -1  -1   2    6.69    0.40   1
   1  -1  -2    5.81    0.33   1
  -1  -1   2    6.45    0.34   1
  -1  -1   2    6.37    0.33   1
   1   1  -2    6.94    0.41   1
   1   1  -2    6.96    0.32   1
  -1   1   2    6.55    0.33   1
   1   1  -2    6.42    0.34   1
  -1   1   2    5.74    0.40   1
  -1   1   2    5.44    0.33   1
  -1   1   2    5.50    0.33   1
   1   1  -2    5.68    0.34   1
   1   1  -2    7.29    0.32   1
  -1   1   2    5.92    0.31   1
   0  -1  -2    3.48    0.22   1
   0  -1  -2    2.86    0.16   1
   0  -1  -2    3.31    0.17   1
   0   1   2    3.18    0.17   1
   0   1  -2    2.96    0.18   1
   1  -1   2   11.28    0.76   1
   1  -1   2   12.62    0.59   1
  -1  -1  -2   11.66    0.74   1
   1  -1   2   11.27    0.59   1
  -1  -1  -2   11.71    0.58   1
  -1   1  -2   11.94    0.58   1
   1   1   2   11.94    0.77   1
  -1   1  -2   11.31    0.58   1
   1   1   2   12.18    0.59   1
   1   1   2   13.10    0.59   1
  -2  -1  -2   22.73    1.15   1
   2  -1   2   24.33    1.16   1
  -2  -1  -2   22.07    1.40   1
  -2  -1  -2   23.67    1.15   1
   2  -1   2   23.72    1.16   1
  -2   1  -2   24.06    1.15   1
  -2   1  -2   22.09    1.40   1
   2   1   2   22.79    1.16   1
  -2   1  -2   24.27    1.15   1
   2   1   2   22.71    1.16   1
  -2   1  -2   23.96    1.20   1
   3  -1   2    0.17    0.10   1
  -3  -1  -2    0.25    0.10   1
   3  -1   2    0.40    0.12   1
  -3  -1  -2    0.27    0.08   1
  -3  -1  -2    0.30    0.14   1
   3   1   2    0.41    0.12   1
  -3   1  -2    0.50    0.15   1
   3   1   2    0.39    0.10   1
  -3   1  -2    0.34    0.09   1
  -3   1  -2    0.35    0.08   1
   4  -1   2    4.15    0.32   1
  -4  -1  -2    4.04    0.36   1
  -4  -1  -2    3.65    0.28   1
   4   1   2    4.23    0.32   1
  -4   1  -2    4.65    0.37   1
   1   1  -8    0.93    0.23  -2
   5  -1   2    0.93    0.23   1
  -1   1   8    0.95    0.26  -2
  -5  -1  -2    0.95    0.26   1
   1  -1  -8    0.80    0.21  -2
   5   1   2    0.80    0.21   1
  -1  -1   8    1.12    0.25  -2
  -5   1  -2    1.12    0.25   1
  -7  -2   2    1.12    0.26   1
  -6  -2   2    0.56    0.20   1
   6  -2  -2    0.14    0.25   1
  -6   2   2    0.48    0.19   1
   6   2  -2    0.20    0.23   1
  -6   2   2    0.40    0.19   1
  -5  -2   2    1.63    0.23   1
  -5  -2   2    1.44    0.22   1
   5   2  -2    2.03    0.30   1
  -5   2   2    2.40    0.27   1
  -5   2   2    1.87    0.25   1
   4  -2  -2    2.15    0.25   1
   4  -2  -2    2.04    0.22   1
   4  -2  -2    3.21    0.39   1
   4   2  -2    1.43    0.30   1
   4   2  -2    2.16    0.26   1
  -3  -2   2    5.10    0.32   1
  -3  -2   2    5.87    0.30   1
   3  -2  -2    5.16    0.30   1
  -3  -2   2    4.73    0.29   1
   3  -2  -2    4.65    0.40   1
   3  -2  -2    4.32    0.32   1
   3   2  -2    4.45    0.39   1
  -3   2   2    4.95    0.31   1
   3   2  -2    4.88    0.33   1
  -3   2   2    4.91    0.30   1
   2   2  -2    4.46    0.28  -2
   2  -2  -2    4.46    0.28   1
   2   2  -2    5.06    0.33  -2
   2  -2  -2    5.06    0.33   1
  -2   2   2    4.20    0.24  -2
  -2  -2   2    4.20    0.24   1
  -2   2   2    3.72    0.26  -2
  -2  -2   2    3.72    0.26   1
  -2   2   2    4.18    0.27  -2
  -2  -2   2    4.18    0.27   1
  -2   2   2    4.30    0.24  -2
  -2  -2   2    4.30    0.24   1
  -2   2   2    4.95    0.32  -2
  -2  -2   2    4.95    0.32   1
   2   2  -2    3.72    0.26  -2
   2  -2  -2    3.72    0.26   1
   2   2  -2    4.24    0.25  -2
   2  -2  -2    4.24    0.25   1
  -2  -2   2    4.94    0.32  -2
  -2   2   2    4.94    0.32   1
  -2  -2   2    4.58    0.27  -2
  -2   2   2    4.58    0.27   1
   2  -2  -2    4.22    0.27  -2
   2   2  -2    4.22    0.27   1
   2  -2  -2    3.94    0.24  -2
   2   2  -2    3.94    0.24   1
   2  -2  -2    4.68    0.33  -2
   2   2  -2    4.68    0.33   1
  -2  -2   2    3.68    0.26  -2
  -2   2   2    3.68    0.26   1
  -2  -2   2    4.22    0.25  -2
  -2   2   2    4.22    0.25   1
   1  -2  -2   12.49    0.83   1
  -1  -2   2   13.71    0.69   1
   1  -2  -2   12.39    0.69   1
   1  -2  -2   13.59    0.69   1
  -1  -2   2   14.32    0.83   1
  -1  -2   2   13.28    0.69   1
   1  -2  -2   12.20    0.69   1
  -1  -2   2   15.69    0.68   1
  -1   2   2   14.02    0.69   1
   1   2  -2   13.54    0.83   1
   1   2  -2   15.69    0.70   1
   1   2  -2   14.21    0.70   1
  -1   2   2   12.64    0.69   1
  -1   2   2   12.98    0.69   1
   1   2  -2   14.79    0.68   1
   1   2  -2   14.54    0.67   1
  -1   2   2   12.82    0.82   1
   0  -2   2    0.69    0.06   1
   0   2  -2    0.61    0.06   1
   0   2  -2    0.60    0.06   1
   0   2  -2    0.82    0.08   1
  -1  -2  -2  122.79    5.62   1
   1  -2   2  110.24    6.89   1
  -1  -2  -2  107.38    6.80   1
  -1  -2  -2  111.94    5.62   1
   1  -2   2  121.78    5.62   1
   1  -2   2  125.00    5.63   1
  -1   2  -2  122.24    5.63   1
  -1   2  -2  121.71    5.68   1
  -1   2  -2  116.22    5.63   1
   1   2   2  113.12    5.62   1
   1   2   2  105.92    6.90   1
  -2  -2  -2    6.55    0.43   1
  -2  -2  -2    5.85    0.34   1
  -2  -2  -2    5.88    0.34   1
   2  -2   2    7.07    0.35   1
   2  -2   2    5.95    0.35   1
  -2   2  -2    7.63    0.39   1
  -2   2  -2    6.96    0.34   1
   2   2   2    5.40    0.35   1
   2   2   2    5.76    0.35   1
  -2   2  -2    6.67    0.34   1
  -2   2  -2    5.56    0.41   1
   3  -2   2    3.78    0.24   1
  -3  -2  -2    3.23    0.27   1
   3  -2   2    3.33    0.26   1
  -3  -2  -2    3.32    0.23   1
  -3  -2  -2    3.30    0.28   1
  -3   2  -2    3.76    0.23   1
   3   2   2    3.06    0.25   1
   3   2   2    2.99    0.24   1
  -3   2  -2    4.17    0.30   1
  -4  -2  -2    4.98    0.34   1
   4  -2   2    5.20    0.38   1
  -4  -2  -2    5.59    0.42   1
   4   2   2    5.45    0.38   1
  -4   2  -2    5.92    0.42   1
  -1   2   8    0.53    0.23  -2
  -5  -2  -2    0.53    0.23   1
   1   2  -8    0.41    0.20  -2
   5  -2   2    0.41    0.20   1
  -1  -2   8    0.90    0.24  -2
  -5   2  -2    0.90    0.24   1
  -6  -3   2    0.15    0.17   1
  -6  -3   2    0.26    0.18   1
   6  -3  -2    0.08    0.27   1
  -6   3   2    0.11    0.17   1
  -6   3   2    0.11    0.17   1
   5  -3  -2    9.10    0.57   1
  -5  -3   2    7.16    0.51   1
  -5  -3   2    7.51    0.49   1
  -5   3   2    7.99    0.50   1
   5   3  -2    7.15    0.70   1
  -5   3   2    7.48    0.49   1
   5   3  -2    7.43    0.53   1
   4  -3  -2   16.28    1.13   1
  -4  -3   2   17.02    0.91   1
   4  -3  -2   18.20    0.94   1
  -4  -3   2   17.09    0.89   1
  -4   3   2   17.27    0.91   1
   4   3  -2   14.98    1.07   1
   4   3  -2   15.50    1.11   1
   4   3  -2   17.63    0.93   1
  -4   3   2   17.34    0.90   1
   3  -3  -2    0.21    0.08   1
   3  -3  -2    0.16    0.12   1
   3  -3  -2    0.66    0.15   1
  -3  -3   2    0.15    0.07   1
  -3  -3   2    0.14    0.07   1
   3   3  -2    0.22    0.10   1
  -3   3   2    0.28    0.10   1
  -3   3   2    0.36    0.10   1
   3   3  -2    0.29    0.13   1
   3   3  -2    0.08    0.10   1
  -2   3   2   27.35    1.49  -2
  -2  -3   2   27.35    1.49   1
  -2   3   2   28.81    1.48  -2
  -2  -3   2   28.81    1.48   1
  -2   3   2   32.66    1.78  -2
  -2  -3   2   32.66    1.78   1
   2   3  -2   29.73    1.50  -2
   2  -3  -2   29.73    1.50   1
   2   3  -2   26.79    1.49  -2
   2  -3  -2   26.79    1.49   1
  -2   3   2   30.32    1.50  -2
  -2  -3   2   30.32    1.50   1
   2   3  -2   32.70    1.79  -2
   2  -3  -2   32.70    1.79   1
  -2   3   2   31.03    1.47  -2
  -2  -3   2   31.03    1.47   1
   2   3  -2   29.43    1.49  -2
   2  -3  -2   29.43    1.49   1
   2  -3  -2   27.15    1.49  -2
   2   3  -2   27.15    1.49   1
   2  -3  -2   32.82    1.78  -2
   2   3  -2   32.82    1.78   1
  -2  -3   2   27.16    1.49  -2
  -2   3   2   27.16    1.49   1
  -2  -3   2   28.78    1.49  -2
  -2   3   2   28.78    1.49   1
  -2  -3   2   31.34    1.50  -2
  -2   3   2   31.34    1.50   1
  -2  -3   2   33.35    1.79  -2
  -2   3   2   33.35    1.79   1
   2  -3  -2   30.29    1.50  -2
   2   3  -2   30.29    1.50   1
   1  -3  -2  108.32    4.85   1
   1  -3  -2   97.77    4.83   1
  -1  -3   2  100.08    4.83   1
   1  -3  -2   99.71    5.74   1
  -1  -3   2   97.45    4.83   1
   1  -3  -2   93.95    4.83   1
  -1  -3   2   97.35    5.74   1
  -1  -3   2   98.19    4.81   1
  -1   3   2  102.05    4.83   1
   1   3  -2   96.72    4.83   1
   1   3  -2   94.02    5.74   1
  -1   3   2  101.59    5.74   1
   1   3  -2   96.54    4.83   1
  -1   3   2  109.05    4.85   1
   1   3  -2   98.33    4.81   1
  -1   3   2  100.10    4.83   1
   0  -3  -2   17.93    1.16   1
   0  -3  -2   19.18    0.93   1
   0  -3   2   18.55    0.94   1
   0  -3  -2   17.60    1.15   1
   0  -3  -2   20.58    0.94   1
   0  -3  -2   18.06    1.11   1
   0  -3   2   20.10    0.93   1
   0   3   2   18.24    0.93   1
   0   3  -2   19.00    0.94   1
   0   3  -2   19.73    0.93   1
   0   3  -2   18.52    0.94   1
   0   3  -2   19.64    0.93   1
   0   3   2   18.98    0.94   1
  -1  -3  -2   23.57    1.41   1
  -1  -3  -2   23.56    1.14   1
  -1  -3  -2   22.47    1.14   1
   1  -3   2   24.49    1.15   1
   1  -3   2   22.93    1.43   1
  -1   3  -2   22.85    1.14   1
  -1   3  -2   23.81    1.18   1
   1   3   2   22.99    1.44   1
   1   3   2   23.26    1.14   1
  -1   3  -2   22.78    1.14   1
   2  -3   2    9.21    0.54   1
  -2  -3  -2   11.42    0.68   1
  -2  -3  -2   10.70    0.54   1
   2  -3   2    9.90    0.71   1
  -2  -3  -2   11.64    0.55   1
   2  -3   2   10.87    0.55   1
  -2   3  -2   10.41    0.58   1
  -2   3  -2   10.04    0.54   1
   2   3   2   11.02    0.55   1
   2   3   2   10.79    0.55   1
  -2   3  -2    9.88    0.54   1
  -3  -3  -2    3.07    0.30   1
  -3  -3  -2    3.49    0.27   1
  -3  -3  -2    3.02    0.22   1
   3  -3   2    3.23    0.23   1
   3  -3   2    3.08    0.25   1
  -3  -3  -2    3.24    0.29   1
   3   3   2    3.49    0.25   1
   3   3   2    3.06    0.23   1
  -3   3  -2    3.82    0.29   1
  -3   3  -2    3.15    0.22   1
  -4  -3  -2    1.32    0.16   1
  -4  -3  -2    1.66    0.26   1
  -4  -3  -2    1.04    0.17   1
   4  -3   2    1.21    0.20   1
   4   3   2    1.38    0.21   1
  -4   3  -2    1.57    0.24   1
   1   3  -8    1.91    0.28  -2
   5  -3   2    1.91    0.28   1
  -1   3   8    1.70    0.29  -2
  -5  -3  -2    1.70    0.29   1
  -1  -3   8    2.20    0.31  -2
  -5   3  -2    2.20    0.31   1
   1  -3  -8    1.51    0.27  -2
   5   3   2    1.51    0.27   1
  -6  -4   2    0.01    0.15   1
   6  -4  -2   -0.08    0.21   1
  -6  -4   2   -0.05    0.16   1
  -6   4   2   -0.01    0.18   1
  -6   4   2    0.00    0.16   1
  -5  -4   2    6.39    0.45   1
   5  -4  -2    7.84    0.51   1
  -5  -4   2    5.55    0.41   1
  -5   4   2    5.46    0.43   1
   5   4  -2    7.05    0.50   1
  -5   4   2    6.85    0.45   1
   5   4  -2    6.66    0.64   1
   4  -4  -2    2.67    0.27   1
  -4   4   2    1.71    0.22   1
   4   4  -2    1.93    0.29   1
   3  -4  -2    5.59    0.50   1
  -3  -4   2    6.63    0.38   1
  -3  -4   2    7.06    0.38   1
  -3  -4   2    7.19    0.41   1
   3  -4  -2    7.01    0.40   1
   3  -4  -2    6.59    0.42   1
   3   4  -2    7.06    0.42   1
  -3   4   2    7.21    0.41   1
   3   4  -2    6.42    0.49   1
   3   4  -2    6.82    0.49   1
  -3   4   2    7.48    0.40   1
  -2   4   2   42.24    2.09  -2
  -2  -4   2   42.24    2.09   1
   2   4  -2   40.57    2.11  -2
   2  -4  -2   40.57    2.11   1
   2   4  -2   45.72    2.12  -2
   2  -4  -2   45.72    2.12   1
  -2   4   2   39.05    2.11  -2
  -2  -4   2   39.05    2.11   1
   2   4  -2   38.05    2.10  -2
   2  -4  -2   38.05    2.10   1
  -2   4   2   44.02    2.11  -2
  -2  -4   2   44.02    2.11   1
   2   4  -2   46.68    2.52  -2
   2  -4  -2   46.68    2.52   1
  -2   4   2   40.45    2.09  -2
  -2  -4   2   40.45    2.09   1
  -2   4   2   47.91    2.51  -2
  -2  -4   2   47.91    2.51   1
   2  -4  -2   42.64    2.11  -2
   2   4  -2   42.64    2.11   1
  -2  -4   2   46.74    2.52  -2
  -2   4   2   46.74    2.52   1
  -2  -4   2   39.81    2.10  -2
  -2   4   2   39.81    2.10   1
   2  -4  -2   45.38    2.51  -2
   2   4  -2   45.38    2.51   1
   2  -4  -2   39.96    2.11  -2
   2   4  -2   39.96    2.11   1
  -2  -4   2   44.19    2.12  -2
  -2   4   2   44.19    2.12   1
  -2  -4   2   39.78    2.11  -2
  -2   4   2   39.78    2.11   1
  -1  -4   2   58.95    2.89   1
   1  -4  -2   60.08    3.46   1
   1  -4  -2   59.97    2.90   1
  -1  -4   2   61.16    2.91   1
   1  -4  -2   56.39    2.91   1
   1  -4  -2   66.00    2.92   1
  -1  -4   2   58.29    2.90   1
   1  -4  -2   57.29    3.51   1
  -1  -4   2   57.41    3.45   1
   1   4  -2   57.04    2.91   1
   1   4  -2   59.70    2.91   1
  -1   4   2   56.33    2.91   1
  -1   4   2   59.65    3.45   1
   1   4  -2   56.38    3.46   1
   1   4  -2   59.88    2.89   1
  -1   4   2   66.74    2.92   1
  -1   4   2   61.08    2.91   1
   0  -4  -2    2.48    0.14   1
   0  -4  -2    1.81    0.12   1
   0  -4  -2    1.78    0.15   1
   0  -4  -2    2.60    0.19   1
   0  -4   2    2.12    0.13   1
   0  -4   2    2.09    0.13   1
   0  -4  -2    1.87    0.19   1
   0  -4   2    2.09    0.14   1
   0   4  -2    2.07    0.13   1
   0   4   2    2.26    0.14   1
   0   4  -2    2.22    0.13   1
   0   4  -2    2.00    0.13   1
   0   4  -2    2.24    0.14   1
   0   4   2    1.88    0.15   1
   0   4   2    2.03    0.13   1
  -1  -4  -2   56.89    3.47   1
  -1  -4  -2   60.43    2.86   1
   1  -4   2   54.90    3.51   1
  -1  -4  -2   63.18    2.86   1
   1  -4   2   61.86    2.86   1
  -1   4  -2   57.20    2.85   1
   1   4   2   61.66    2.87   1
  -1   4  -2   56.52    2.89   1
   1   4   2   55.96    3.47   1
  -1   4  -2   58.62    2.86   1
   1   4   2   61.08    2.86   1
   1   4   2   56.70    3.52   1
  -2  -4  -2    7.16    0.36   1
   2  -4   2    6.61    0.35   1
   2  -4   2    5.94    0.47   1
  -2  -4  -2    6.83    0.46   1
  -2  -4  -2    6.33    0.35   1
   2  -4   2    6.44    0.36   1
  -2   4  -2    6.39    0.35   1
  -2   4  -2    6.22    0.39   1
   2   4   2    6.12    0.36   1
   2   4   2    6.75    0.37   1
  -2   4  -2    6.65    0.35   1
   3  -4   2    0.38    0.14   1
  -3  -4  -2    0.81    0.14   1
   3  -4   2    0.41    0.11   1
  -3  -4  -2    0.51    0.15   1
  -3   4  -2    0.41    0.09   1
   3   4   2    0.95    0.14   1
   3   4   2    0.71    0.12   1
  -3   4  -2    0.66    0.16   1
   4  -4   2    2.11    0.25   1
  -4  -4  -2    1.63    0.25   1
  -4  -4  -2    2.01    0.25   1
  -4   4  -2    2.37    0.27   1
   4   4   2    1.96    0.25   1
   1   4  -8    1.31    0.23  -2
   5  -4   2    1.31    0.23   1
  -1   4   8    1.32    0.28  -2
  -5  -4  -2    1.32    0.28   1
   1  -4  -8    0.94    0.23  -2
   5   4   2    0.94    0.23   1
  -1  -4   8    1.08    0.24  -2
  -5   4  -2    1.08    0.24   1
  -6  -5   2    0.12    0.17   1
  -6  -5   2   -0.03    0.15   1
   6   5  -2    0.02    0.24   1
  -6   5   2    0.23    0.17   1
  -6   5   2    0.08    0.18   1
   5  -5  -2   11.40    0.72   1
  -5  -5   2   11.66    0.67   1
  -5  -5   2   12.12    0.71   1
  -5   5   2   11.57    0.69   1
   5   5  -2   11.38    0.89   1
   5   5  -2   11.82    0.72   1
  -5   5   2   11.26    0.69   1
   4  -5  -2   17.63    0.88   1
  -4  -5   2   15.05    0.84   1
  -4  -5   2   15.23    0.82   1
   4   5  -2   13.52    1.00   1
   4   5  -2   15.44    1.03   1
  -4   5   2   15.14    0.83   1
  -4   5   2   14.99    0.83   1
   4   5  -2   15.56    0.86   1
   3  -5  -2    1.16    0.22   1
   3  -5  -2    1.46    0.20   1
  -3  -5   2    1.41    0.17   1
   3  -5  -2    1.06    0.17   1
  -3  -5   2    1.21    0.13   1
  -3   5   2    1.54    0.17   1
   3   5  -2    1.63    0.22   1
  -3   5   2    1.10    0.15   1
   3   5  -2    1.48    0.18   1
   3   5  -2    1.61    0.22   1
  -2   5   2    0.39    0.10  -2
  -2  -5   2    0.39    0.10   1
  -2   5   2    0.40    0.07  -2
  -2  -5   2    0.40    0.07   1
   2   5  -2    0.81    0.10  -2
   2  -5  -2    0.81    0.10   1
  -2   5   2    0.52    0.08  -2
  -2  -5   2    0.52    0.08   1
   2   5  -2    0.50    0.12  -2
   2  -5  -2    0.50    0.12   1
   2   5  -2    0.34    0.11  -2
   2  -5  -2    0.34    0.11   1
   2   5  -2    0.47    0.10  -2
   2  -5  -2    0.47    0.10   1
  -2   5   2    0.46    0.10  -2
  -2  -5   2    0.46    0.10   1
  -2   5   2    0.85    0.12  -2
  -2  -5   2    0.85    0.12   1
   2   5  -2    0.41    0.09  -2
   2  -5  -2    0.41    0.09   1
   2  -5  -2    0.36    0.10  -2
   2   5  -2    0.36    0.10   1
  -2  -5   2    0.78    0.10  -2
  -2   5   2    0.78    0.10   1
  -2  -5   2    0.64    0.11  -2
  -2   5   2    0.64    0.11   1
   2  -5  -2    0.85    0.10  -2
   2   5  -2    0.85    0.10   1
  -2  -5   2    0.65    0.12  -2
  -2   5   2    0.65    0.12   1
   2  -5  -2    0.45    0.10  -2
   2   5  -2    0.45    0.10   1
  -2  -5   2    0.52    0.10  -2
  -2   5   2    0.52    0.10   1
  -1  -5   2    0.82    0.10   1
   1  -5  -2    0.63    0.11   1
   1  -5  -2    0.77    0.12   1
  -1  -5   2    0.76    0.09   1
  -1  -5   2    0.57    0.09   1
   1  -5  -2    0.60    0.10   1
   1  -5  -2    0.77    0.08   1
  -1  -5   2    0.89    0.08   1
   1  -5  -2    0.68    0.09   1
   1   5  -2    1.03    0.09   1
  -1   5   2    0.98    0.09   1
   1   5  -2    0.73    0.11   1
   1   5  -2    0.63    0.09   1
  -1   5   2    0.80    0.10   1
  -1   5   2    0.61    0.09   1
   1   5  -2    0.56    0.08   1
  -1   5   2    0.46    0.08   1
   0  -5  -2    1.13    0.10   1
   0  -5   2    1.01    0.10   1
   0  -5   2    0.90    0.09   1
   0  -5  -2    1.11    0.14   1
   0  -5  -2    0.83    0.08   1
   0  -5  -2    1.05    0.11   1
   0  -5  -2    1.16    0.14   1
   0   5  -2    1.11    0.10   1
   0   5   2    0.91    0.09   1
   0   5  -2    1.01    0.08   1
   0   5  -2    0.91    0.10   1
   0   5   2    0.83    0.10   1
   0   5   2    1.05    0.09   1
  -1  -5  -2    8.98    0.59   1
   1  -5   2    9.14    0.46   1
   1  -5   2    8.54    0.58   1
   1  -5   2    8.32    0.47   1
  -1  -5  -2    8.99    0.45   1
  -1  -5  -2    9.46    0.46   1
   1  -5   2    8.70    0.45   1
   1   5   2    9.03    0.60   1
  -1   5  -2    8.31    0.48   1
  -1   5  -2    8.06    0.47   1
   1   5   2    9.33    0.47   1
  -1   5  -2    8.62    0.45   1
   1   5   2    9.24    0.46   1
   1   5   2    8.66    0.58   1
  -1   5  -2    9.11    0.46   1
   2  -5   2    1.32    0.22   1
  -2  -5  -2    1.18    0.12   1
   2  -5   2    1.07    0.13   1
  -2  -5  -2    1.02    0.11   1
  -2  -5  -2    1.33    0.18   1
   2  -5   2    1.21    0.11   1
  -2   5  -2    1.06    0.10   1
   2   5   2    0.97    0.12   1
   2   5   2    1.19    0.13   1
   2   5   2    1.30    0.17   1
  -2   5  -2    1.18    0.11   1
  -2   5  -2    1.23    0.15   1
  -3  -5  -2    6.50    0.37   1
   3  -5   2    6.58    0.37   1
  -3  -5  -2    6.33    0.47   1
  -3  -5  -2    5.65    0.45   1
   3  -5   2    6.08    0.39   1
  -3   5  -2    5.72    0.36   1
   3   5   2    6.92    0.38   1
   3   5   2    6.41    0.38   1
  -3   5  -2    6.49    0.42   1
   4  -5   2    0.33    0.16   1
  -4  -5  -2    0.43    0.20   1
  -4  -5  -2    0.27    0.16   1
  -4   5  -2    0.48    0.17   1
   4   5   2    0.26    0.15   1
   1   5  -8    5.95    0.48  -2
   5  -5   2    5.95    0.48   1
  -1   5   8    6.62    0.51  -2
  -5  -5  -2    6.62    0.51   1
  -1  -5   8    6.00    0.48  -2
  -5   5  -2    6.00    0.48   1
   1  -5  -8    5.84    0.47  -2
   5   5   2    5.84    0.47   1
  -6  -6   2    0.08    0.15   1
   6  -6  -2    0.04    0.23   1
  -6  -6   2   -0.04    0.16   1
   6   6  -2   -0.08    0.23   1
  -6   6   2   -0.01    0.17   1
  -6   6   2    0.12    0.19   1
  -5  -6   2    0.47    0.15   1
   5  -6  -2    0.71    0.22   1
  -5  -6   2    0.50    0.17   1
  -5   6   2    0.83    0.19   1
   5   6  -2    1.07    0.29   1
  -5   6   2    0.59    0.18   1
  -4  -6   2   11.61    0.69   1
  -4  -6   2   11.78    0.66   1
   4  -6  -2   11.84    0.71   1
  -4   6   2   11.85    0.68   1
   4   6  -2   12.97    0.86   1
  -4   6   2   11.76    0.68   1
   4   6  -2   12.85    0.72   1
  -3  -6   2    0.12    0.10   1
   3  -6  -2    0.07    0.15   1
  -3  -6   2    0.19    0.08   1
   3  -6  -2   -0.03    0.13   1
   3  -6  -2    0.08    0.09   1
  -3   6   2    0.25    0.11   1
  -3   6   2    0.24    0.10   1
   3   6  -2    0.13    0.10   1
   3   6  -2    0.06    0.12   1
   3   6  -2    0.24    0.14   1
  -2   6   2   45.98    2.40  -2
  -2  -6   2   45.98    2.40   1
   2   6  -2   50.16    2.43  -2
   2  -6  -2   50.16    2.43   1
   2   6  -2   55.08    2.91  -2
   2  -6  -2   55.08    2.91   1
  -2   6   2   52.74    2.87  -2
  -2  -6   2   52.74    2.87   1
  -2   6   2   52.50    2.42  -2
  -2  -6   2   52.50    2.42   1
   2   6  -2   52.19    2.89  -2
   2  -6  -2   52.19    2.89   1
   2   6  -2   46.06    2.42  -2
   2  -6  -2   46.06    2.42   1
  -2   6   2   44.27    2.42  -2
  -2  -6   2   44.27    2.42   1
   2   6  -2   45.62    2.41  -2
   2  -6  -2   45.62    2.41   1
  -2   6   2   49.26    2.40  -2
  -2  -6   2   49.26    2.40   1
  -2  -6   2   46.49    2.42  -2
  -2   6   2   46.49    2.42   1
  -2  -6   2   49.85    2.43  -2
  -2   6   2   49.85    2.43   1
  -2  -6   2   53.93    2.88  -2
  -2   6   2   53.93    2.88   1
   2  -6  -2   48.97    2.42  -2
   2   6  -2   48.97    2.42   1
   2  -6  -2   46.99    2.40  -2
   2   6  -2   46.99    2.40   1
  -2  -6   2   49.21    2.43  -2
  -2   6   2   49.21    2.43   1
   2  -6  -2   45.60    2.42  -2
   2   6  -2   45.60    2.42   1
   2  -6  -2   51.90    2.88  -2
   2   6  -2   51.90    2.88   1
   2  -6  -2   44.98    2.91  -2
   2   6  -2   44.98    2.91   1
   1  -6  -2  111.43    6.88   1
  -1  -6   2  115.59    5.71   1
   1  -6  -2  117.77    5.70   1
  -1  -6   2  119.34    6.78   1
  -1  -6   2  121.34    5.69   1
   1  -6  -2  116.68    6.78   1
  -1  -6   2  120.77    5.71   1
   1  -6  -2  122.82    5.74   1
   1  -6  -2  105.86    5.71   1
   1   6  -2  113.36    6.78   1
  -1   6   2  112.48    5.71   1
   1   6  -2  116.12    5.71   1
  -1   6   2  128.25    5.74   1
  -1   6   2  121.49    5.68   1
  -1   6   2  116.40    5.71   1
  -1   6   2  116.61    6.78   1
   1   6  -2  121.67    5.69   1
   1   6  -2  116.32    5.71   1
   0  -6  -2   85.70    3.97   1
   0  -6   2   81.17    3.99   1
   0  -6  -2   78.47    4.83   1
   0  -6   2   84.93    3.99   1
   0  -6  -2   78.01    4.00   1
   0  -6  -2   78.96    4.88   1
   0  -6  -2   82.26    3.99   1
   0  -6   2   80.53    4.01   1
   0  -6   2   83.58    4.00   1
   0  -6  -2   81.02    4.74   1
   0   6   2   81.73    4.73   1
   0   6   2   83.26    4.00   1
   0   6  -2   81.34    3.99   1
   0   6  -2   88.94    4.00   1
   0   6  -2   83.20    3.99   1
   0   6   2   79.02    4.83   1
   0   6   2   84.88    4.00   1
   0   6  -2   82.64    4.01   1
   1  -6   2   38.83    1.80   1
   1  -6   2   38.94    1.81   1
  -1  -6  -2   39.16    1.81   1
  -1  -6  -2   36.48    1.81   1
   1  -6   2   36.10    2.22   1
   1  -6   2   37.00    1.83   1
  -1  -6  -2   34.60    2.21   1
  -1   6  -2   35.79    1.82   1
   1   6   2   36.91    1.81   1
  -1   6  -2   37.01    1.83   1
  -1   6  -2   38.19    1.80   1
  -1   6  -2   38.63    1.81   1
   1   6   2   34.90    1.81   1
   1   6   2   34.94    2.20   1
   1   6   2   34.66    2.23   1
  -2  -6  -2    2.53    0.24   1
  -2  -6  -2    1.83    0.16   1
  -2  -6  -2    2.13    0.16   1
  -2  -6  -2    1.97    0.19   1
   2  -6   2    2.31    0.16   1
   2  -6   2    2.36    0.18   1
   2  -6   2    2.12    0.25   1
   2   6   2    2.25    0.18   1
  -2   6  -2    2.19    0.16   1
   2   6   2    2.16    0.17   1
   2   6   2    2.47    0.23   1
  -2   6  -2    2.25    0.18   1
  -2   6  -2    2.19    0.15   1
  -3  -6  -2   19.69    1.21   1
  -3  -6  -2   18.12    1.17   1
   3  -6   2   19.44    1.01   1
  -3  -6  -2   20.38    0.99   1
   3   6   2   19.53    1.00   1
   3   6   2   20.37    1.00   1
  -3   6  -2   18.81    1.03   1
  -3   6  -2   18.97    0.98   1
   3   6   2   17.46    1.19   1
   4  -6   2    2.17    0.27   1
  -4  -6  -2    2.53    0.29   1
  -4  -6  -2    1.88    0.29   1
  -4   6  -2    2.29    0.27   1
   4   6   2    1.84    0.25   1
   1   6  -8    0.41    0.20  -2
   5  -6   2    0.41    0.20   1
  -1   6   8    0.56    0.24  -2
  -5  -6  -2    0.56    0.24   1
   1  -6  -8    0.16    0.19  -2
   5   6   2    0.16    0.19   1
  -1  -6   8    0.75    0.25  -2
  -5   6  -2    0.75    0.25   1
  -6  -7   2   -0.09    0.14   1
   6  -7  -2    0.19    0.25   1
  -6  -7   2    0.08    0.18   1
  -6   7   2    0.12    0.18   1
  -6   7   2    0.00    0.18   1
  -5  -7   2    0.59    0.16   1
  -5  -7   2    0.60    0.19   1
   5  -7  -2    1.23    0.26   1
  -5   7   2    0.86    0.20   1
   5   7  -2    0.52    0.28   1
  -5   7   2    0.74    0.19   1
   5   7  -2    0.58    0.24   1
   4  -7  -2    2.82    0.29   1
  -4  -7   2    1.95    0.23   1
  -4  -7   2    1.80    0.19   1
  -4   7   2    2.34    0.26   1
  -4   7   2    1.92    0.22   1
   3  -7  -2    1.87    0.28   1
  -3  -7   2    1.43    0.14   1
   3  -7  -2    1.78    0.22   1
  -3  -7   2    1.74    0.19   1
   3  -7  -2    1.56    0.19   1
  -3   7   2    1.57    0.17   1
   3   7  -2    1.74    0.19   1
   3   7  -2    1.60    0.24   1
  -3   7   2    1.55    0.18   1
   3   7  -2    1.99    0.25   1
  -2   7   2  223.09   10.61  -2
  -2  -7   2  223.09   10.61   1
   2   7  -2  220.16   10.66  -2
   2  -7  -2  220.16   10.66   1
  -2   7   2  202.90   10.65  -2
  -2  -7   2  202.90   10.65   1
   2   7  -2  239.75   12.68  -2
   2  -7  -2  239.75   12.68   1
  -2   7   2  244.94   12.66  -2
  -2  -7   2  244.94   12.66   1
   2   7  -2  205.84   10.70  -2
   2  -7  -2  205.84   10.70   1
  -2   7   2  211.17   10.67  -2
  -2  -7   2  211.17   10.67   1
   2   7  -2  200.32   10.64  -2
   2  -7  -2  200.32   10.64   1
  -2   7   2  226.32   10.65  -2
  -2  -7   2  226.32   10.65   1
   2   7  -2  244.05   12.82  -2
   2  -7  -2  244.05   12.82   1
  -2  -7   2  241.26   12.67  -2
  -2   7   2  241.26   12.67   1
   2  -7  -2  222.85   10.65  -2
   2   7  -2  222.85   10.65   1
   2  -7  -2  213.01   10.61  -2
   2   7  -2  213.01   10.61   1
  -2  -7   2  210.80   10.59  -2
  -2   7   2  210.80   10.59   1
   2  -7  -2  205.15   12.83  -2
   2   7  -2  205.15   12.83   1
   2  -7  -2  205.43   10.65  -2
   2   7  -2  205.43   10.65   1
  -2  -7   2  221.57   10.66  -2
  -2   7   2  221.57   10.66   1
   2  -7  -2  238.03   12.66  -2
   2   7  -2  238.03   12.66   1
  -2  -7   2  207.14   10.70  -2
  -2   7   2  207.14   10.70   1
  -2  -7   2  208.41   10.65  -2
  -2   7   2  208.41   10.65   1
   1  -7  -2    0.45    0.10   1
   1  -7  -2    0.36    0.05   1
   1  -7  -2    0.21    0.09   1
   1  -7  -2    0.28    0.07   1
  -1  -7   2    0.32    0.08   1
  -1  -7   2    0.35    0.08   1
  -1  -7   2    0.52    0.04   1
  -1  -7   2    0.58    0.08   1
   1  -7  -2    0.35    0.09   1
   1   7  -2    0.44    0.08   1
  -1   7   2    0.41    0.08   1
  -1   7   2    0.49    0.04   1
  -1   7   2    0.50    0.09   1
  -1   7   2    0.41    0.10   1
  -1   7   2    0.34    0.09   1
  -1   7   2    0.50    0.09   1
   0  -7  -2   35.65    2.21   1
   0  -7   2   36.99    1.81   1
   0  -7  -2   35.70    2.13   1
   0  -7   2   37.17    1.81   1
   0  -7   2   38.69    1.82   1
   0  -7  -2   38.22    1.82   1
   0  -7  -2   34.59    1.81   1
   0  -7  -2   35.69    2.20   1
   0  -7  -2   36.48    1.79   1
   0  -7   2   38.28    1.81   1
   0   7  -2   39.80    1.82   1
   0   7   2   36.05    2.20   1
   0   7   2   35.81    2.13   1
   0   7  -2   38.10    1.81   1
   0   7   2   36.22    1.81   1
   0   7  -2   36.99    1.81   1
   0   7   2   34.32    1.82   1
   0   7  -2   37.46    1.81   1
  -1  -7  -2   15.57    0.75   1
   1  -7   2   14.99    0.74   1
   1  -7   2   13.81    0.92   1
  -1  -7  -2   14.53    0.74   1
   1  -7   2   15.44    0.75   1
  -1  -7  -2   14.67    0.93   1
   1  -7   2   14.43    0.76   1
   1   7   2   14.58    0.94   1
  -1   7  -2   15.46    0.75   1
   1   7   2   15.18    0.74   1
  -1   7  -2   13.63    0.75   1
   1   7   2   13.38    0.75   1
   1   7   2   14.82    0.93   1
  -1   7  -2   14.22    0.76   1
  -1   7  -2   14.51    0.74   1
   2  -7   2   35.31    1.69   1
   2  -7   2   32.29    2.09   1
   2  -7   2   35.66    1.71   1
  -2  -7  -2   32.90    2.07   1
  -2  -7  -2   33.19    2.00   1
  -2  -7  -2   35.16    1.70   1
  -2   7  -2   33.99    1.72   1
   2   7   2   35.02    1.70   1
   2   7   2   32.42    2.06   1
  -2   7  -2   36.16    1.69   1
   2   7   2   34.00    1.70   1
  -2   7  -2   33.63    1.69   1
   3  -7   2    9.23    0.53   1
  -3  -7  -2    8.72    0.51   1
   3  -7   2    9.51    0.51   1
  -3  -7  -2    9.31    0.65   1
  -3  -7  -2    8.54    0.60   1
  -3   7  -2    8.86    0.50   1
   3   7   2    8.12    0.63   1
   3   7   2    9.29    0.52   1
  -3   7  -2    9.61    0.55   1
   3   7   2    9.98    0.52   1
   4  -7   2    0.33    0.16   1
  -4  -7  -2    0.41    0.19   1
  -4  -7  -2    0.13    0.17   1
  -4   7  -2    0.50    0.17   1
   4   7   2    0.11    0.15   1
  -1   7   8    0.32    0.21  -2
  -5  -7  -2    0.32    0.21   1
  -1  -7   8    0.35    0.23  -2
  -5   7  -2    0.35    0.23   1
   1  -7  -8    0.08    0.19  -2
   5   7   2    0.08    0.19   1
  -6  -8   2    0.26    0.20   1
   6  -8  -2    0.40    0.28   1
  -6  -8   2    0.07    0.15   1
  -6   8   2    0.12    0.19   1
  -5  -8   2    1.73    0.22   1
   5  -8  -2    2.43    0.35   1
  -5  -8   2    1.82    0.28   1
   5   8  -2    1.96    0.31   1
  -5   8   2    1.94    0.26   1
  -5   8   2    1.98    0.27   1
   5   8  -2    2.24    0.39   1
  -4  -8   2    1.15    0.20   1
   4  -8  -2    1.43    0.24   1
  -4  -8   2    1.14    0.17   1
  -4   8   2    1.67    0.22   1
   4   8  -2    0.89    0.20   1
   4   8  -2    1.20    0.25   1
  -4   8   2    1.34    0.21   1
  -3  -8   2    9.48    0.51   1
  -3  -8   2   10.10    0.55   1
   3  -8  -2    9.30    0.61   1
   3  -8  -2    9.11    0.56   1
  -3   8   2    9.50    0.54   1
  -3   8   2    9.84    0.54   1
   3   8  -2    8.70    0.64   1
   3   8  -2    9.24    0.54   1
   2   8  -2   13.72    0.74  -2
   2  -8  -2   13.72    0.74   1
   2   8  -2   12.63    0.73  -2
   2  -8  -2   12.63    0.73   1
  -2   8   2   14.62    0.74  -2
  -2  -8   2   14.62    0.74   1
   2   8  -2   14.36    0.76  -2
   2  -8  -2   14.36    0.76   1
   2   8  -2   15.14    0.91  -2
   2  -8  -2   15.14    0.91   1
  -2   8   2   15.39    0.87  -2
  -2  -8   2   15.39    0.87   1
  -2   8   2   12.65    0.74  -2
  -2  -8   2   12.65    0.74   1
  -2   8   2   14.01    0.72  -2
  -2  -8   2   14.01    0.72   1
   2   8  -2   15.01    0.89  -2
   2  -8  -2   15.01    0.89   1
  -2  -8   2   12.19    0.70  -2
  -2   8   2   12.19    0.70   1
   2  -8  -2   13.05    0.75  -2
   2   8  -2   13.05    0.75   1
  -2  -8   2   13.49    0.74  -2
  -2   8   2   13.49    0.74   1
  -2  -8   2   13.19    0.74  -2
  -2   8   2   13.19    0.74   1
   2  -8  -2   14.15    0.90  -2
   2   8  -2   14.15    0.90   1
  -2  -8   2   15.20    0.89  -2
  -2   8   2   15.20    0.89   1
  -2  -8   2   14.64    0.75  -2
  -2   8   2   14.64    0.75   1
   2  -8  -2   15.41    0.75  -2
   2   8  -2   15.41    0.75   1
   1  -8  -2    0.68    0.12   1
  -1  -8   2    0.98    0.07   1
   1  -8  -2    0.71    0.07   1
  -1  -8   2    0.96    0.12   1
   1  -8  -2    1.20    0.14   1
  -1  -8   2    0.94    0.11   1
   1  -8  -2    0.78    0.09   1
   1  -8  -2    0.66    0.13   1
  -1  -8   2    0.87    0.10   1
   1  -8  -2    0.64    0.09   1
   1   8  -2    0.97    0.11   1
  -1   8   2    0.71    0.10   1
   1   8  -2    1.18    0.17   1
   1   8  -2    0.87    0.12   1
   1   8  -2    0.87    0.13   1
  -1   8   2    0.91    0.13   1
  -1   8   2    0.78    0.12   1
   1   8  -2    1.08    0.11   1
  -1   8   2    0.72    0.10   1
  -1   8   2    0.78    0.06   1
  -1   8   2    0.69    0.12   1
   0  -8  -2  167.18   10.15   1
   0  -8  -2  170.73   10.05   1
   0  -8  -2  169.21    9.89   1
   0  -8   2  179.74    8.38   1
   0  -8   2  177.29    8.31   1
   0  -8  -2  165.32    8.31   1
   0  -8   2  178.22    8.33   1
   0  -8   2  184.79    8.34   1
   0  -8  -2  167.56    8.32   1
   0  -8  -2  154.69    8.33   1
   0   8  -2  179.00    8.40   1
   0   8  -2  184.52    8.34   1
   0   8   2  165.66    9.88   1
   0   8  -2  175.81   10.04   1
   0   8  -2  175.48    8.31   1
   0   8   2  153.86    8.33   1
   0   8   2  171.43   10.05   1
   0   8   2  166.19    8.33   1
   0   8  -2  177.71    8.33   1
   1  -8   2   10.23    0.52   1
  -1  -8  -2    9.75    0.66   1
   1  -8   2   10.48    0.53   1
   1  -8   2   10.03    0.53   1
  -1  -8  -2    9.62    0.53   1
  -1  -8  -2   10.28    0.52   1
  -1  -8  -2    9.82    0.52   1
  -1   8  -2    9.56    0.53   1
   1   8   2    9.85    0.52   1
  -1   8  -2    9.60    0.53   1
   1   8   2    9.85    0.66   1
   1   8   2    8.99    0.53   1
   1   8   2   10.12    0.66   1
  -1   8  -2   10.35    0.53   1
  -1   8  -2   10.04    0.52   1
  -2  -8  -2   12.34    0.74   1
   2  -8   2   12.89    0.66   1
  -2  -8  -2   13.03    0.65   1
   2  -8   2   12.38    0.81   1
   2  -8   2   11.44    0.63   1
  -2  -8  -2   12.31    0.81   1
   2   8   2   12.04    0.64   1
   2   8   2   12.63    0.66   1
  -2   8  -2   12.20    0.76   1
  -2   8  -2   11.97    0.66   1
  -2   8  -2   11.95    0.64   1
   2   8   2   12.16    0.81   1
  -2   8  -2   11.98    0.67   1
   3  -8   2   11.83    0.82   1
  -3  -8  -2   11.54    0.63   1
  -3  -8  -2   11.24    0.79   1
   3  -8   2   12.25    0.66   1
   3  -8   2   12.83    0.63   1
  -3  -8  -2    9.54    0.72   1
   3   8   2   12.11    0.64   1
  -3   8  -2   11.83    0.62   1
  -3   8  -2   11.77    0.66   1
   3   8   2   10.48    0.64   1
   4  -8   2   -0.03    0.15   1
  -4  -8  -2   -0.20    0.17   1
  -4  -8  -2    0.17    0.17   1
  -4   8  -2    0.02    0.16   1
   4   8   2   -0.02    0.14   1
  -1   8   8    0.23    0.23  -2
  -5  -8  -2    0.23    0.23   1
  -1  -8   8    0.12    0.20  -2
  -5   8  -2    0.12    0.20   1
   6  -9  -2    0.70    0.30   1
  -6  -9   2    0.66    0.22   1
  -6  -9   2    0.60    0.18   1
  -6   9   2    0.55    0.20   1
  -6   9   2    0.79    0.24   1
  -5  -9   2    0.28    0.15   1
   5  -9  -2    0.76    0.27   1
   5   9  -2    0.36    0.22   1
  -5   9   2    0.75    0.20   1
  -5   9   2    0.69    0.20   1
   5   9  -2    0.30    0.26   1
  -4  -9   2    0.70    0.14   1
  -4  -9   2    0.56    0.17   1
  -4   9   2    0.55    0.16   1
  -4   9   2    0.97    0.19   1
   3  -9  -2    7.59    0.54   1
  -3  -9   2    7.95    0.44   1
   3  -9  -2    8.15    0.51   1
  -3  -9   2    8.55    0.49   1
  -3   9   2    7.89    0.48   1
   3   9  -2    8.08    0.49   1
  -3   9   2    8.43    0.47   1
   3   9  -2    7.79    0.56   1
   2   9  -2    0.91    0.15  -2
   2  -9  -2    0.91    0.15   1
  -2   9   2    0.89    0.12  -2
  -2  -9   2    0.89    0.12   1
  -2   9   2    0.91    0.13  -2
  -2  -9   2    0.91    0.13   1
  -2   9   2    0.38    0.12  -2
  -2  -9   2    0.38    0.12   1
  -2   9   2    0.66    0.13  -2
  -2  -9   2    0.66    0.13   1
   2   9  -2    0.42    0.14  -2
   2  -9  -2    0.42    0.14   1
   2  -9  -2    1.36    0.17  -2
   2   9  -2    1.36    0.17   1
   2  -9  -2    0.95    0.12  -2
   2   9  -2    0.95    0.12   1
   2  -9  -2    0.54    0.12  -2
   2   9  -2    0.54    0.12   1
  -2  -9   2    0.68    0.13  -2
  -2   9   2    0.68    0.13   1
  -2  -9   2    0.99    0.14  -2
  -2   9   2    0.99    0.14   1
  -2  -9   2    0.53    0.08  -2
  -2   9   2    0.53    0.08   1
   2  -9  -2    0.83    0.16  -2
   2   9  -2    0.83    0.16   1
  -2  -9   2    0.78    0.12  -2
  -2   9   2    0.78    0.12   1
  -2  -9   2    0.75    0.14  -2
  -2   9   2    0.75    0.14   1
  -1  -9   2    0.22    0.09   1
   1  -9  -2    0.36    0.09   1
   1  -9  -2    0.28    0.10   1
   1  -9  -2    0.34    0.05   1
  -1  -9   2    0.41    0.05   1
  -1  -9   2    0.50    0.09   1
  -1  -9   2    0.32    0.08   1
   1  -9  -2    0.27    0.10   1
   1  -9  -2    0.30    0.10   1
   1  -9  -2    0.31    0.07   1
  -1   9   2    0.42    0.05   1
  -1   9   2    0.51    0.10   1
   1   9  -2    0.39    0.09   1
   1   9  -2    0.42    0.09   1
  -1   9   2    0.28    0.08   1
  -1   9   2    0.25    0.08   1
   1   9  -2    0.45    0.10   1
   1   9  -2    0.23    0.08   1
   1   9  -2    0.48    0.13   1
  -1   9   2    0.40    0.11   1
  -1   9   2    0.29    0.09   1
   0  -9   2   32.27    1.58   1
   0  -9  -2   31.04    1.85   1
   0  -9  -2   31.91    1.93   1
   0  -9  -2   32.59    1.94   1
   0  -9  -2   30.03    1.59   1
   0  -9  -2   30.86    1.56   1
   0  -9   2   32.31    1.59   1
   0  -9  -2   30.81    1.58   1
   0   9   2   31.88    1.93   1
   0   9  -2   33.08    1.58   1
   0   9   2   30.09    1.58   1
   0   9  -2   33.65    1.58   1
   0   9   2   29.09    1.59   1
   0   9  -2   33.25    1.59   1
   0   9   2   29.78    1.85   1
   0   9  -2   34.03    1.59   1
   0   9  -2   36.32    1.93   1
  -1  -9  -2   18.07    1.00   1
   1  -9   2   20.65    1.02   1
  -1  -9  -2   19.24    1.25   1
   1  -9   2   21.00    1.00   1
  -1  -9  -2   19.71    1.02   1
  -1  -9  -2   19.84    1.00   1
   1  -9   2   21.33    1.02   1
  -1   9  -2   20.60    1.02   1
  -1   9  -2   20.56    1.00   1
   1   9   2   19.12    1.24   1
  -1   9  -2   20.02    1.22   1
  -1   9  -2   20.17    1.02   1
   1   9   2   19.10    1.25   1
   1   9   2   20.21    1.01   1
   1   9   2   17.92    1.01   1
  -1   9  -2   21.12    1.01   1
  -2  -9  -2    0.67    0.16   1
   2  -9   2    0.68    0.17   1
  -2  -9  -2    0.54    0.11   1
   2  -9   2    0.37    0.08   1
  -2  -9  -2    0.75    0.10   1
   2  -9   2    0.75    0.13   1
  -2   9  -2    0.52    0.13   1
  -2   9  -2    0.54    0.10   1
   2   9   2    0.55    0.12   1
   2   9   2    0.65    0.11   1
  -2   9  -2    0.55    0.12   1
  -3  -9  -2   16.55    0.83   1
  -3  -9  -2   15.51    1.03   1
   3  -9   2   15.08    1.04   1
  -3  -9  -2   13.63    0.94   1
   3  -9   2   15.76    0.85   1
   3  -9   2   15.71    0.82   1
  -3   9  -2   15.50    0.81   1
  -3   9  -2   15.41    0.86   1
   3   9   2   16.06    0.83   1
   3   9   2   16.08    0.84   1
  -4  -9  -2    0.56    0.22   1
   4  -9   2    1.11    0.22   1
   4  -9   2    1.38    0.31   1
   4   9   2    0.84    0.20   1
  -4   9  -2    1.14    0.24   1
   1   9  -8    2.99    0.48  -2
   5  -9   2    2.99    0.48   1
  -1   9   8    1.56    0.30  -2
  -5  -9  -2    1.56    0.30   1
   1   9  -8    1.87    0.30  -2
   5  -9   2    1.87    0.30   1
   1  -9  -8    1.34    0.27  -2
   5   9   2    1.34    0.27   1
  -1  -9   8    1.68    0.30  -2
  -5   9  -2    1.68    0.30   1
   6  10  -2    0.80    0.28   1
  -6  10   2    0.49    0.22   1
  -5 -10   2    0.62    0.20   1
   5 -10  -2    0.75    0.25   1
  -5 -10   2    0.76    0.18   1
   5  10  -2    0.70    0.30   1
  -5  10   2    1.23    0.23   1
   5  10  -2    0.55    0.24   1
  -5  10   2    1.08    0.23   1
  -4 -10   2    0.01    0.10   1
   4 -10  -2    0.44    0.19   1
  -4 -10   2   -0.03    0.15   1
  -4  10   2    0.07    0.12   1
  -4  10   2    0.22    0.14   1
   4  10  -2    0.40    0.18   1
   4  10  -2    0.12    0.16   1
  -3 -10   2    0.48    0.15   1
   3 -10  -2    0.61    0.17   1
  -3 -10   2    0.43    0.10   1
   3 -10  -2    0.48    0.13   1
  -3  10   2    0.43    0.12   1
   3  10  -2    0.42    0.14   1
   3  10  -2    0.65    0.15   1
  -3  10   2    0.58    0.10   1
  -3  10   2    0.36    0.13   1
  -2  10   2    0.20    0.09  -2
  -2 -10   2    0.20    0.09   1
  -2  10   2    0.06    0.10  -2
  -2 -10   2    0.06    0.10   1
   2  10  -2    0.27    0.12  -2
   2 -10  -2    0.27    0.12   1
  -2  10   2    0.18    0.09  -2
  -2 -10   2    0.18    0.09   1
   2  10  -2    0.02    0.11  -2
   2 -10  -2    0.02    0.11   1
  -2 -10   2    0.17    0.11  -2
  -2  10   2    0.17    0.11   1
   2 -10  -2    0.12    0.10  -2
   2  10  -2    0.12    0.10   1
   2 -10  -2    0.38    0.10  -2
   2  10  -2    0.38    0.10   1
  -2 -10   2    0.27    0.09  -2
  -2  10   2    0.27    0.09   1
  -2 -10   2    0.24    0.06  -2
  -2  10   2    0.24    0.06   1
   2 -10  -2    0.23    0.11  -2
   2  10  -2    0.23    0.11   1
  -2 -10   2    0.25    0.11  -2
  -2  10   2    0.25    0.11   1
  -2 -10   2    0.34    0.10  -2
  -2  10   2    0.34    0.10   1
   1 -10  -2    2.48    0.18   1
  -1 -10   2    2.46    0.17   1
  -1 -10   2    2.03    0.20   1
  -1 -10   2    2.61    0.14   1
   1 -10  -2    2.14    0.20   1
   1 -10  -2    2.30    0.14   1
   1 -10  -2    2.54    0.17   1
  -1 -10   2    2.18    0.18   1
   1 -10  -2    2.33    0.25   1
  -1  10   2    2.50    0.19   1
  -1  10   2    2.27    0.23   1
  -1  10   2    2.43    0.20   1
  -1  10   2    2.19    0.19   1
   1  10  -2    2.21    0.20   1
   1  10  -2    2.02    0.18   1
   1  10  -2    2.30    0.18   1
   1  10  -2    2.36    0.25   1
   1  10  -2    1.79    0.18   1
  -1  10   2    2.33    0.18   1
  -1  10   2    2.25    0.14   1
   0 -10   2   84.22    4.02   1
   0 -10  -2   81.24    4.01   1
   0 -10  -2   81.64    3.98   1
   0 -10  -2   81.71    4.86   1
   0 -10   2   81.68    4.01   1
   0 -10   2   82.01    4.02   1
   0 -10  -2   87.24    4.03   1
   0 -10   2   79.56    4.00   1
   0  10   2   79.96    4.01   1
   0  10  -2   86.40    4.02   1
   0  10   2   82.40    4.86   1
   0  10  -2   80.53    4.02   1
   0  10   2   84.01    4.03   1
   0  10   2   79.06    4.73   1
   0  10  -2   79.36    4.00   1
   0  10  -2   82.73    4.01   1
   0  10  -2   84.53    4.85   1
  -1 -10  -2    0.42    0.13   1
  -1 -10  -2    0.37    0.07   1
  -1 -10  -2    0.45    0.10   1
  -1 -10  -2    0.41    0.08   1
   1 -10   2    0.56    0.11   1
   1 -10   2    0.50    0.09   1
   1 -10   2    0.58    0.08   1
   1  10   2    0.35    0.10   1
  -1  10  -2    0.60    0.10   1
   1  10   2    0.56    0.14   1
  -1  10  -2    0.39    0.11   1
   1  10   2    0.51    0.09   1
  -1  10  -2    0.49    0.10   1
  -1  10  -2    0.46    0.08   1
  -1  10  -2    0.51    0.10   1
   2 -10   2    2.24    0.18   1
   2 -10   2    2.42    0.22   1
  -2 -10  -2    2.17    0.20   1
  -2 -10  -2    2.36    0.30   1
   2 -10   2    2.11    0.26   1
   2  10   2    2.13    0.22   1
   2  10   2    2.06    0.20   1
  -2  10  -2    2.52    0.21   1
  -2  10  -2    2.31    0.18   1
  -2  10  -2    2.82    0.23   1
  -2  10  -2    2.07    0.23   1
   3 -10   2    2.23    0.32   1
  -3 -10  -2    2.44    0.23   1
  -3 -10  -2    2.51    0.37   1
  -3 -10  -2    1.74    0.19   1
   3 -10   2    1.76    0.20   1
   3 -10   2    2.04    0.26   1
  -3  10  -2    2.26    0.25   1
  -3  10  -2    1.85    0.20   1
  -3  10  -2    2.79    0.28   1
   3  10   2    2.31    0.24   1
   3  10   2    2.37    0.23   1
   4 -10   2    1.75    0.27   1
  -4 -10  -2    1.47    0.28   1
   4 -10   2    2.09    0.36   1
  -4  10  -2    1.88    0.27   1
   4  10   2    1.84    0.25   1
  -1  10   8    1.03    0.28  -2
  -5 -10  -2    1.03    0.28   1
   1  10  -8    1.19    0.38  -2
   5 -10   2    1.19    0.38   1
   1 -10  -8    0.85    0.23  -2
   5  10   2    0.85    0.23   1
  -1 -10   8    0.68    0.22  -2
  -5  10  -2    0.68    0.22   1
  -6 -11   2    1.12    0.27   1
  -6  11   2    0.87    0.25   1
  -6  11   2    0.95    0.27   1
  -5 -11   2    0.25    0.18   1
   5 -11  -2    0.41    0.24   1
  -5 -11   2    0.35    0.16   1
   5  11  -2    0.28    0.26   1
   5  11  -2    0.40    0.22   1
  -5  11   2    0.52    0.19   1
  -5  11   2    0.47    0.19   1
  -4 -11   2    0.61    0.14   1
  -4 -11   2    0.77    0.20   1
   4 -11  -2    1.01    0.23   1
   4  11  -2    1.00    0.23   1
  -4  11   2    0.78    0.14   1
  -4  11   2    0.52    0.17   1
   4  11  -2    0.83    0.21   1
  -4  11   2    0.58    0.16   1
  -3 -11   2    2.64    0.25   1
   3 -11  -2    2.48    0.26   1
   3 -11  -2    2.38    0.28   1
  -3  11   2    2.45    0.24   1
   3  11  -2    2.44    0.27   1
  -3  11   2    2.40    0.18   1
  -3  11   2    2.46    0.21   1
   3  11  -2    2.26    0.25   1
  -2  11   2    3.45    0.27  -2
  -2 -11   2    3.45    0.27   1
   2  11  -2    3.94    0.30  -2
   2 -11  -2    3.94    0.30   1
  -2  11   2    3.70    0.28  -2
  -2 -11   2    3.70    0.28   1
   2  11  -2    3.94    0.33  -2
   2 -11  -2    3.94    0.33   1
  -2 -11   2    3.27    0.31  -2
  -2  11   2    3.27    0.31   1
   2 -11  -2    3.99    0.30  -2
   2  11  -2    3.99    0.30   1
  -2 -11   2    3.62    0.25  -2
  -2  11   2    3.62    0.25   1
  -2 -11   2    3.59    0.22  -2
  -2  11   2    3.59    0.22   1
  -2 -11   2    3.57    0.26  -2
  -2  11   2    3.57    0.26   1
  -2 -11   2    4.21    0.31  -2
  -2  11   2    4.21    0.31   1
   2 -11  -2    3.50    0.25  -2
   2  11  -2    3.50    0.25   1
   2 -11  -2    3.57    0.27  -2
   2  11  -2    3.57    0.27   1
  -1 -11   2   12.98    0.68   1
  -1 -11   2   13.33    0.66   1
  -1 -11   2   12.73    0.68   1
   1 -11  -2   11.52    0.69   1
   1 -11  -2   13.42    0.65   1
   1 -11  -2   12.86    0.71   1
   1 -11  -2   13.81    0.85   1
  -1 -11   2   13.27    0.70   1
  -1  11   2   13.42    0.69   1
   1  11  -2   12.22    0.71   1
   1  11  -2   12.29    0.80   1
   1  11  -2   12.62    0.68   1
  -1  11   2   13.89    0.84   1
  -1  11   2   12.78    0.70   1
  -1  11   2   13.81    0.65   1
  -1  11   2   13.02    0.80   1
   1  11  -2   12.75    0.69   1
   0 -11  -2    4.92    0.31   1
   0 -11  -2    6.19    0.35   1
   0 -11  -2    5.68    0.32   1
   0 -11   2    5.22    0.32   1
   0 -11  -2    5.31    0.30   1
   0 -11   2    5.76    0.34   1
   0 -11  -2    5.49    0.42   1
   0  11  -2    5.16    0.32   1
   0  11   2    5.48    0.34   1
   0  11  -2    5.34    0.30   1
   0  11  -2    5.42    0.32   1
   0  11  -2    5.55    0.33   1
   0  11   2    5.49    0.33   1
   0  11   2    5.09    0.41   1
   1 -11   2    0.99    0.14   1
  -1 -11  -2    1.01    0.14   1
  -1 -11  -2    1.07    0.11   1
   1 -11   2    0.95    0.12   1
   1 -11   2    1.23    0.12   1
  -1 -11  -2    0.99    0.18   1
   1  11   2    1.13    0.13   1
   1  11   2    1.20    0.15   1
  -1  11  -2    1.09    0.12   1
  -1  11  -2    0.73    0.15   1
   1  11   2    1.39    0.20   1
  -1  11  -2    0.88    0.13   1
  -1  11  -2    0.99    0.13   1
   2 -11   2   11.24    0.78   1
   2 -11   2   11.01    0.62   1
  -2 -11  -2   12.34    0.65   1
  -2 -11  -2   11.86    0.81   1
   2 -11   2   12.12    0.65   1
  -2  11  -2   11.44    0.75   1
   2  11   2   12.45    0.64   1
  -2  11  -2   11.66    0.65   1
   2  11   2   11.33    0.65   1
  -2  11  -2   11.67    0.63   1
  -2  11  -2   11.63    0.65   1
   3 -11   2    2.18    0.27   1
   3 -11   2    2.19    0.21   1
  -3 -11  -2    1.51    0.29   1
  -3 -11  -2    1.70    0.21   1
   3  11   2    2.05    0.24   1
  -3  11  -2    2.67    0.26   1
  -3  11  -2    2.56    0.28   1
   3  11   2    1.20    0.20   1
  -3  11  -2    2.62    0.22   1
  -4 -11  -2    1.36    0.30   1
   4 -11   2    1.46    0.27   1
   4 -11   2    1.56    0.34   1
  -4  11  -2    1.60    0.25   1
  -4  11  -2    1.88    0.28   1
   4  11   2    1.36    0.22   1
  -1  11   8    2.12    0.33  -2
  -5 -11  -2    2.12    0.33   1
   1  11  -8    2.70    0.49  -2
   5 -11   2    2.70    0.49   1
   1 -11  -8    2.39    0.33  -2
   5  11   2    2.39    0.33   1
  -1 -11   8    1.70    0.31  -2
  -5  11  -2    1.70    0.31   1
  -1 -11   8    2.05    0.33  -2
  -5  11  -2    2.05    0.33   1
  -6 -12   2   -0.01    0.19   1
  -6  12   2   -0.09    0.17   1
  -5 -12   2    2.01    0.24   1
  -5 -12   2    2.34    0.31   1
   5 -12  -2    2.78    0.38   1
  -5  12   2    1.92    0.24   1
  -5  12   2    2.34    0.31   1
   5  12  -2    2.08    0.39   1
  -5  12   2    2.17    0.29   1
   5  12  -2    1.95    0.33   1
  -4 -12   2    5.53    0.40   1
   4 -12  -2    4.92    0.43   1
  -4 -12   2    5.30    0.34   1
   4  12  -2    4.72    0.40   1
  -4  12   2    5.01    0.33   1
   4  12  -2    4.86    0.45   1
  -4  12   2    5.24    0.39   1
  -4  12   2    5.26    0.37   1
  -3 -12   2    0.97    0.18   1
   3 -12  -2    0.99    0.22   1
   3 -12  -2    1.07    0.19   1
   3  12  -2    0.99    0.19   1
  -3  12   2    1.04    0.17   1
   3  12  -2    0.93    0.19   1
  -3  12   2    1.19    0.19   1
  -3  12   2    1.05    0.13   1
   2  12  -2    3.64    0.32  -2
   2 -12  -2    3.64    0.32   1
  -2  12   2    3.24    0.26  -2
  -2 -12   2    3.24    0.26   1
   2  12  -2    3.35    0.28  -2
   2 -12  -2    3.35    0.28   1
  -2 -12   2    2.89    0.25  -2
  -2  12   2    2.89    0.25   1
  -2 -12   2    3.19    0.24  -2
  -2  12   2    3.19    0.24   1
   2 -12  -2    3.62    0.27  -2
   2  12  -2    3.62    0.27   1
  -2 -12   2    3.69    0.30  -2
  -2  12   2    3.69    0.30   1
   2 -12  -2    3.45    0.24  -2
   2  12  -2    3.45    0.24   1
   2 -12  -2    3.89    0.29  -2
   2  12  -2    3.89    0.29   1
  -2 -12   2    3.21    0.21  -2
  -2  12   2    3.21    0.21   1
   1 -12  -2   18.63    1.01   1
  -1 -12   2   18.00    1.00   1
   1 -12  -2   19.68    0.96   1
  -1 -12   2   18.55    0.99   1
  -1 -12   2   19.70    0.96   1
   1 -12  -2   20.11    1.22   1
  -1  12   2   18.87    1.01   1
   1  12  -2   19.30    0.98   1
   1  12  -2   19.23    0.99   1
  -1  12   2   18.97    1.16   1
   1  12  -2   18.38    1.16   1
  -1  12   2   19.83    1.21   1
  -1  12   2   19.27    0.99   1
  -1  12   2   20.33    0.96   1
   0 -12   2    3.02    0.20   1
   0 -12   2    2.69    0.21   1
   0 -12  -2    2.68    0.28   1
   0 -12  -2    2.30    0.16   1
   0 -12  -2    2.26    0.21   1
   0  12  -2    2.66    0.17   1
   0  12  -2    2.95    0.20   1
   0  12   2    2.35    0.22   1
   0  12   2    2.25    0.19   1
   1 -12   2   12.84    0.64   1
  -1 -12  -2   10.77    0.78   1
   1 -12   2   11.19    0.62   1
  -1 -12  -2   12.38    0.63   1
  -1 -12  -2   11.11    0.60   1
   1 -12   2   11.68    0.61   1
   1  12   2   11.62    0.62   1
  -1  12  -2   11.77    0.61   1
  -1  12  -2   11.19    0.62   1
   1  12   2    9.68    0.62   1
  -1  12  -2   11.81    0.61   1
  -1  12  -2   11.37    0.75   1
   1  12   2   10.98    0.75   1
  -2 -12  -2    0.30    0.12   1
   2 -12   2    0.72    0.17   1
  -2 -12  -2    0.54    0.18   1
   2 -12   2    0.46    0.10   1
   2 -12   2    0.55    0.15   1
  -2  12  -2    0.44    0.14   1
  -2  12  -2    0.50    0.11   1
  -2  12  -2    0.50    0.13   1
   2  12   2    0.33    0.12   1
  -2  12  -2    0.75    0.15   1
   2  12   2    0.54    0.14   1
  -3 -12  -2   18.27    1.22   1
  -3 -12  -2   17.89    0.97   1
   3 -12   2   17.79    1.20   1
   3 -12   2   18.12    1.00   1
  -3  12  -2   18.49    0.99   1
   3  12   2   17.19    0.97   1
  -3  12  -2   18.93    0.96   1
  -3  12  -2   18.65    0.99   1
   4 -12   2    0.52    0.26   1
  -4 -12  -2    0.09    0.22   1
   4 -12   2    0.33    0.19   1
  -4  12  -2    0.51    0.18   1
  -4  12  -2    0.41    0.19   1
   4  12   2    0.21    0.17   1
  -1  12   8    0.29    0.23  -2
  -5 -12  -2    0.29    0.23   1
   1  12  -8    0.45    0.34  -2
   5 -12   2    0.45    0.34   1
  -1 -12   8    0.53    0.24  -2
  -5  12  -2    0.53    0.24   1
  -1 -12   8    0.84    0.25  -2
  -5  12  -2    0.84    0.25   1
  -5 -13   2    2.74    0.35   1
  -5 -13   2    2.68    0.27   1
   5 -13  -2    2.85    0.39   1
   5  13  -2    2.80    0.37   1
  -5  13   2    2.54    0.33   1
   5  13  -2    2.58    0.41   1
  -5  13   2    2.44    0.27   1
  -5  13   2    2.90    0.33   1
  -4 -13   2    2.15    0.28   1
  -4 -13   2    1.88    0.20   1
   4 -13  -2    2.90    0.35   1
   4 -13  -2    1.62    0.24   1
  -4  13   2    2.06    0.23   1
  -4  13   2    2.06    0.21   1
  -4  13   2    2.33    0.28   1
   4  13  -2    2.46    0.29   1
   4  13  -2    2.56    0.32   1
   3 -13  -2    2.42    0.28   1
  -3 -13   2    2.23    0.25   1
   3 -13  -2    2.38    0.28   1
  -3  13   2    2.32    0.22   1
   3  13  -2    2.02    0.25   1
  -3  13   2    2.32    0.25   1
   3  13  -2    2.08    0.26   1
  -3  13   2    2.22    0.18   1
  -2  13   2   14.97    0.84  -2
  -2 -13   2   14.97    0.84   1
  -2  13   2   14.40    0.79  -2
  -2 -13   2   14.40    0.79   1
   2  13  -2   15.10    0.85  -2
   2 -13  -2   15.10    0.85   1
   2  13  -2   16.31    1.01  -2
   2 -13  -2   16.31    1.01   1
  -2 -13   2   14.95    0.83  -2
  -2  13   2   14.95    0.83   1
  -2 -13   2   15.48    0.79  -2
  -2  13   2   15.48    0.79   1
   2 -13  -2   15.44    0.84  -2
   2  13  -2   15.44    0.84   1
   2 -13  -2   16.89    0.97  -2
   2  13  -2   16.89    0.97   1
  -2 -13   2   14.75    0.83  -2
  -2  13   2   14.75    0.83   1
   2 -13  -2   15.63    0.82  -2
   2  13  -2   15.63    0.82   1
  -2 -13   2   17.04    1.00  -2
  -2  13   2   17.04    1.00   1
  -1 -13   2   19.44    0.98   1
  -1 -13   2   19.02    0.96   1
  -1 -13   2   19.21    0.93   1
   1 -13  -2   17.78    0.92   1
   1 -13  -2   17.20    0.98   1
   1 -13  -2   19.24    1.18   1
   1 -13  -2   18.53    1.13   1
  -1  13   2   17.59    1.12   1
   1  13  -2   18.47    1.13   1
   1  13  -2   19.17    0.96   1
  -1  13   2   17.10    0.96   1
  -1  13   2   18.55    0.92   1
  -1  13   2   18.19    0.98   1
   1  13  -2   19.16    0.96   1
   0 -13   2    2.64    0.20   1
   0 -13  -2    2.28    0.17   1
   0 -13  -2    2.22    0.23   1
   0 -13   2    2.72    0.22   1
   0 -13  -2    2.58    0.29   1
   0 -13   2    2.51    0.18   1
   0  13   2    1.93    0.22   1
   0  13  -2    2.78    0.18   1
   0  13   2    2.39    0.21   1
   0  13   2    2.54    0.18   1
   0  13  -2    3.01    0.21   1
   0  13   2    2.51    0.18   1
   0  13  -2    2.80    0.20   1
  -1 -13  -2    5.59    0.46   1
   1 -13   2    5.27    0.32   1
   1 -13   2    5.61    0.35   1
   1 -13   2    4.14    0.32   1
  -1 -13  -2    5.11    0.35   1
   1  13   2    5.29    0.41   1
   1  13   2    5.22    0.35   1
  -1  13  -2    5.28    0.34   1
  -1  13  -2    5.16    0.42   1
  -1  13  -2    5.19    0.32   1
  -1  13  -2    5.71    0.33   1
   1  13   2    5.50    0.33   1
  -2 -13  -2   20.36    1.31   1
   2 -13   2   20.35    1.07   1
  -2 -13  -2   20.43    1.06   1
   2 -13   2   20.20    1.26   1
   2 -13   2   20.15    1.03   1
  -2  13  -2   20.44    1.06   1
   2  13   2   18.15    1.06   1
  -2  13  -2   20.84    1.04   1
   2  13   2   19.90    1.05   1
   2  13   2   20.27    1.31   1
  -2  13  -2   19.27    1.25   1
  -2  13  -2   20.08    1.05   1
  -3 -13  -2    6.51    0.58   1
   3 -13   2    6.45    0.45   1
  -3 -13  -2    5.73    0.41   1
   3 -13   2    6.34    0.52   1
   3  13   2    5.47    0.41   1
  -3  13  -2    6.13    0.43   1
  -3  13  -2    6.16    0.40   1
  -3  13  -2    6.81    0.44   1
  -4 -13  -2    0.83    0.28   1
   4 -13   2    1.35    0.32   1
   4 -13   2    0.96    0.24   1
   4  13   2    0.90    0.21   1
  -4  13  -2    0.92    0.23   1
  -4  13  -2    1.35    0.26   1
  -1  13   8    0.78    0.27  -2
  -5 -13  -2    0.78    0.27   1
   1  13  -8    1.72    0.42  -2
   5 -13   2    1.72    0.42   1
  -1 -13   8    1.43    0.27  -2
  -5  13  -2    1.43    0.27   1
   1 -13  -8    0.96    0.26  -2
   5  13   2    0.96    0.26   1
  -1 -13   8    0.84    0.26  -2
  -5  13  -2    0.84    0.26   1
  -6 -14   2    1.19    0.27   1
  -5 -14   2    0.45    0.16   1
  -5 -14   2    0.33    0.21   1
   5 -14  -2    0.49    0.26   1
  -5  14   2    0.70    0.23   1
   5  14  -2    0.26    0.23   1
   5  14  -2    0.24    0.26   1
  -5  14   2    0.62    0.16   1
  -5  14   2    0.44    0.18   1
  -4 -14   2    0.36    0.18   1
   4 -14  -2    0.65    0.24   1
  -4 -14   2    0.37    0.13   1
  -4  14   2    0.57    0.17   1
   4  14  -2    0.35    0.19   1
  -4  14   2    0.61    0.14   1
  -4  14   2    0.50    0.19   1
   4  14  -2    0.64    0.21   1
   3 -14  -2    8.67    0.58   1
  -3 -14   2    9.05    0.56   1
   3 -14  -2    8.65    0.64   1
   3  14  -2    8.27    0.61   1
  -3  14   2    9.17    0.54   1
  -3  14   2    9.03    0.49   1
  -3  14   2    9.09    0.55   1
   3  14  -2    9.61    0.56   1
   2  14  -2    1.70    0.23  -2
   2 -14  -2    1.70    0.23   1
  -2  14   2    1.37    0.13  -2
  -2 -14   2    1.37    0.13   1
  -2  14   2    1.60    0.20  -2
  -2 -14   2    1.60    0.20   1
   2  14  -2    1.40    0.23  -2
   2 -14  -2    1.40    0.23   1
  -2 -14   2    1.66    0.20  -2
  -2  14   2    1.66    0.20   1
  -2 -14   2    1.83    0.19  -2
  -2  14   2    1.83    0.19   1
   2 -14  -2    1.84    0.21  -2
   2  14  -2    1.84    0.21   1
   2 -14  -2    1.38    0.18  -2
   2  14  -2    1.38    0.18   1
   2 -14  -2    1.67    0.20  -2
   2  14  -2    1.67    0.20   1
  -2 -14   2    1.56    0.14  -2
  -2  14   2    1.56    0.14   1
  -1 -14   2   12.06    0.65   1
  -1 -14   2   11.11    0.62   1
   1 -14  -2   12.14    0.79   1
   1 -14  -2   10.90    0.58   1
   1 -14  -2   11.67    0.66   1
  -1 -14   2   11.19    0.59   1
   1 -14  -2   11.54    0.72   1
  -1  14   2   11.64    0.59   1
   1  14  -2   10.43    0.72   1
  -1  14   2   10.96    0.63   1
  -1  14   2   11.42    0.72   1
   1  14  -2   11.17    0.62   1
   1  14  -2   11.13    0.62   1
   0 -14  -2   26.09    1.36   1
   0 -14   2   28.90    1.41   1
   0 -14  -2   24.50    1.40   1
   0 -14  -2   27.91    1.71   1
   0 -14   2   29.36    1.39   1
   0 -14   2   29.15    1.38   1
   0  14  -2   27.44    1.39   1
   0  14  -2   27.18    1.37   1
   0  14  -2   27.78    1.38   1
   0  14   2   24.36    1.40   1
   0  14   2   28.22    1.37   1
   0  14   2   25.63    1.39   1
   0  14   2   29.00    1.60   1
  -1 -14  -2    0.32    0.17   1
  -1 -14  -2    0.12    0.12   1
   1 -14   2    0.11    0.08   1
   1 -14   2    0.26    0.13   1
  -1  14  -2    0.19    0.09   1
   1  14   2    0.12    0.10   1
  -1  14  -2   -0.02    0.09   1
   1  14   2    0.19    0.12   1
  -1  14  -2    0.10    0.10   1
   1  14   2    0.31    0.16   1
   2 -14   2   33.25    1.62   1
  -2 -14  -2   32.33    1.97   1
   2 -14   2   31.59    1.58   1
  -2 -14  -2   30.88    1.60   1
   2  14   2   33.88    1.60   1
  -2  14  -2   31.09    1.60   1
  -2  14  -2   30.75    1.60   1
   2  14   2   31.72    1.96   1
  -2  14  -2   30.63    1.58   1
   2  14   2   28.27    1.60   1
  -2  14  -2   29.82    1.90   1
   3 -14   2    1.07    0.22   1
  -3 -14  -2    1.17    0.28   1
   3 -14   2    1.01    0.26   1
  -3 -14  -2    0.92    0.19   1
   3  14   2    0.95    0.19   1
  -3  14  -2    0.94    0.17   1
  -3  14  -2    1.06    0.21   1
  -3  14  -2    0.76    0.20   1
  -4 -14  -2    0.99    0.30   1
   4 -14   2    1.63    0.35   1
   4 -14   2    1.25    0.26   1
   4  14   2    1.28    0.24   1
  -4  14  -2    1.43    0.25   1
  -4  14  -2    1.08    0.24   1
  -1  14   8    0.96    0.28  -2
  -5 -14  -2    0.96    0.28   1
   1  14  -8    1.30    0.31  -2
   5 -14   2    1.30    0.31   1
  -1 -14   8    1.11    0.27  -2
  -5  14  -2    1.11    0.27   1
  -1 -14   8    1.55    0.30  -2
  -5  14  -2    1.55    0.30   1
   5 -15  -2    0.93    0.30   1
  -5 -15   2    0.77    0.23   1
  -5  15   2    0.78    0.17   1
   5  15  -2    0.83    0.27   1
  -5  15   2    0.93    0.25   1
  -5  15   2    0.90    0.23   1
   5  15  -2    0.70    0.29   1
  -4 -15   2    6.73    0.48   1
   4 -15  -2    6.71    0.51   1
  -4 -15   2    6.59    0.41   1
  -4  15   2    6.48    0.47   1
  -4  15   2    6.36    0.41   1
  -4  15   2    6.80    0.46   1
   4  15  -2    6.72    0.49   1
   4  15  -2    5.69    0.51   1
   3 -15  -2    4.19    0.42   1
  -3 -15   2    4.60    0.37   1
   3 -15  -2    3.81    0.38   1
  -3  15   2    4.33    0.29   1
   3  15  -2    4.67    0.34   1
  -3  15   2    4.62    0.36   1
  -3  15   2    4.57    0.33   1
   3  15  -2    4.93    0.37   1
   3  15  -2    4.54    0.38   1
   2  15  -2    5.51    0.39  -2
   2 -15  -2    5.51    0.39   1
  -2  15   2    5.66    0.39  -2
  -2 -15   2    5.66    0.39   1
  -2  15   2    4.34    0.29  -2
  -2 -15   2    4.34    0.29   1
   2  15  -2    5.24    0.45  -2
   2 -15  -2    5.24    0.45   1
   2 -15  -2    5.72    0.37  -2
   2  15  -2    5.72    0.37   1
   2 -15  -2    4.94    0.35  -2
   2  15  -2    4.94    0.35   1
  -2 -15   2    5.26    0.36  -2
  -2  15   2    5.26    0.36   1
  -2 -15   2    5.25    0.30  -2
  -2  15   2    5.25    0.30   1
   2 -15  -2    5.58    0.40  -2
   2  15  -2    5.58    0.40   1
  -2 -15   2    5.11    0.34  -2
  -2  15   2    5.11    0.34   1
   1 -15  -2    3.04    0.34   1
   1 -15  -2    2.25    0.26   1
   1 -15  -2    2.29    0.17   1
  -1 -15   2    2.60    0.18   1
  -1 -15   2    2.53    0.24   1
   1 -15  -2    2.70    0.22   1
  -1  15   2    2.08    0.23   1
  -1  15   2    2.46    0.18   1
   1  15  -2    2.89    0.24   1
  -1  15   2    2.52    0.24   1
   1  15  -2    2.74    0.22   1
   1  15  -2    2.58    0.25   1
   0 -15  -2    0.58    0.09   1
   0 -15  -2    0.69    0.16   1
   0 -15   2    0.69    0.12   1
   0 -15  -2    0.78    0.20   1
   0  15   2    0.73    0.16   1
   0  15   2    0.77    0.14   1
   1 -15   2   13.52    0.69   1
  -1 -15  -2   13.54    0.90   1
   1 -15   2   13.61    0.73   1
  -1 -15  -2   11.58    0.71   1
   1  15   2   12.42    0.70   1
  -1  15  -2   12.98    0.71   1
  -1  15  -2   13.83    0.70   1
   1  15   2   10.82    0.71   1
   1  15   2   12.49    0.85   1
  -1  15  -2   13.85    0.71   1
  -2 -15  -2    2.10    0.25   1
   2 -15   2    2.04    0.26   1
  -2 -15  -2    1.51    0.30   1
   2 -15   2    1.72    0.19   1
   2  15   2    1.78    0.23   1
  -2  15  -2    1.99    0.23   1
  -2  15  -2    2.43    0.23   1
   2  15   2    2.52    0.34   1
  -2  15  -2    2.31    0.25   1
  -2  15  -2    1.20    0.22   1
   3 -15   2    0.20    0.18   1
   3 -15   2    0.13    0.19   1
  -3 -15  -2    0.03    0.23   1
  -3 -15  -2    0.06    0.14   1
  -3  15  -2    0.33    0.15   1
  -3  15  -2    0.14    0.15   1
  -3  15  -2    0.27    0.13   1
   3  15   2    0.07    0.15   1
  -4 -15  -2    1.67    0.37   1
   4 -15   2    2.13    0.32   1
   4  15   2    2.30    0.30   1
  -4  15  -2    2.41    0.31   1
  -4  15  -2    2.56    0.33   1
  -1  15   8    0.33    0.22  -2
  -5 -15  -2    0.33    0.22   1
  -1 -15   8    0.18    0.21  -2
  -5  15  -2    0.18    0.21   1
   5 -16  -2    1.17    0.32   1
  -5 -16   2    0.94    0.26   1
  -5  16   2    0.92    0.24   1
  -5  16   2    0.51    0.25   1
   4 -16  -2    0.88    0.26   1
  -4 -16   2    0.26    0.12   1
  -4 -16   2    0.28    0.18   1
  -4  16   2    0.41    0.13   1
   4  16  -2    0.49    0.20   1
   4  16  -2    0.69    0.20   1
  -4  16   2    0.49    0.19   1
  -4  16   2    0.29    0.16   1
  -3 -16   2    0.68    0.18   1
   3 -16  -2    0.45    0.20   1
   3 -16  -2    0.80    0.24   1
  -3  16   2    0.55    0.18   1
   3  16  -2    0.58    0.18   1
   3  16  -2    0.76    0.17   1
   3  16  -2    0.79    0.17   1
  -3  16   2    0.57    0.12   1
  -3  16   2    0.60    0.16   1
   2  16  -2    0.65    0.19  -2
   2 -16  -2    0.65    0.19   1
   2  16  -2    0.42    0.19  -2
   2 -16  -2    0.42    0.19   1
  -2  16   2    0.27    0.08  -2
  -2 -16   2    0.27    0.08   1
  -2  16   2    0.41    0.15  -2
  -2 -16   2    0.41    0.15   1
   2 -16  -2    0.42    0.15  -2
   2  16  -2    0.42    0.15   1
   2 -16  -2    0.71    0.16  -2
   2  16  -2    0.71    0.16   1
  -2 -16   2    0.54    0.15  -2
  -2  16   2    0.54    0.15   1
   2 -16  -2    0.61    0.15  -2
   2  16  -2    0.61    0.15   1
  -2 -16   2    0.54    0.16  -2
  -2  16   2    0.54    0.16   1
  -2 -16   2    0.54    0.10  -2
  -2  16   2    0.54    0.10   1
   1 -16  -2    1.70    0.14   1
   1 -16  -2    1.64    0.26   1
  -1 -16   2    1.78    0.15   1
   1 -16  -2    1.81    0.24   1
  -1 -16   2    1.57    0.21   1
   1  16  -2    1.61    0.22   1
  -1  16   2    1.68    0.20   1
   1  16  -2    1.71    0.19   1
   1  16  -2    1.75    0.20   1
  -1  16   2    1.86    0.15   1
  -1  16   2    1.67    0.21   1
   0 -16   2    4.42    0.32   1
   0 -16   2    4.53    0.28   1
   0 -16  -2    3.64    0.26   1
   0 -16  -2    4.28    0.34   1
   0 -16   2    4.63    0.30   1
   0 -16  -2    4.72    0.44   1
   0  16  -2    4.88    0.32   1
   0  16  -2    4.73    0.28   1
   0  16  -2    4.40    0.31   1
   0  16   2    3.91    0.31   1
   0  16  -2    4.56    0.31   1
   0  16   2    4.05    0.29   1
   0  16   2    4.38    0.28   1
   1 -16   2    0.45    0.15   1
  -1 -16  -2    0.50    0.15   1
  -1 -16  -2    0.40    0.20   1
   1 -16   2    0.32    0.10   1
  -1  16  -2    0.39    0.12   1
  -1  16  -2    0.27    0.12   1
  -1  16  -2    0.35    0.14   1
   1  16   2    0.49    0.15   1
   1  16   2    0.73    0.19   1
   1  16   2    0.49    0.13   1
   2 -16   2    2.15    0.21   1
  -2 -16  -2    2.41    0.26   1
  -2 -16  -2    2.11    0.35   1
   2 -16   2    2.12    0.28   1
   2  16   2    2.83    0.36   1
  -2  16  -2    2.49    0.24   1
  -2  16  -2    2.21    0.25   1
   2  16   2    1.90    0.25   1
   2  16   2    2.20    0.25   1
  -2  16  -2    2.59    0.26   1
   3 -16   2    6.72    0.49   1
  -3 -16  -2    7.23    0.66   1
  -3 -16  -2    6.03    0.45   1
   3  16   2    6.23    0.45   1
  -3  16  -2    6.64    0.46   1
  -3  16  -2    7.07    0.46   1
  -3  16  -2    6.43    0.43   1
  -4 -16  -2    1.02    0.34   1
   4 -16   2    1.26    0.27   1
  -4  16  -2    1.35    0.25   1
   4  16   2    1.43    0.26   1
  -4  16  -2    1.45    0.27   1
  -1 -16   8   -0.09    0.20  -2
  -5  16  -2   -0.09    0.20   1
   5 -17  -2    1.46    0.37   1
  -5 -17   2    1.45    0.29   1
  -5  17   2    1.39    0.29   1
   5  17  -2    0.95    0.29   1
  -5  17   2    1.38    0.29   1
   4 -17  -2    1.21    0.30   1
  -4 -17   2    0.93    0.22   1
  -4  17   2    0.89    0.22   1
  -4  17   2    1.08    0.17   1
   4  17  -2    0.95    0.24   1
   4  17  -2    1.10    0.24   1
  -4  17   2    0.82    0.23   1
   3 -17  -2   -0.02    0.18   1
  -3 -17   2    0.26    0.17   1
   3 -17  -2   -0.06    0.19   1
   3  17  -2    0.03    0.13   1
  -3  17   2   -0.02    0.15   1
  -3  17   2    0.09    0.15   1
   3  17  -2    0.07    0.16   1
   3  17  -2    0.17    0.15   1
  -3  17   2    0.00    0.09   1
  -2  17   2    5.21    0.39  -2
  -2 -17   2    5.21    0.39   1
   2  17  -2    4.54    0.47  -2
   2 -17  -2    4.54    0.47   1
   2  17  -2    4.83    0.40  -2
   2 -17  -2    4.83    0.40   1
   2 -17  -2    5.46    0.39  -2
   2  17  -2    5.46    0.39   1
   2 -17  -2    4.56    0.35  -2
   2  17  -2    4.56    0.35   1
  -2 -17   2    4.90    0.30  -2
  -2  17   2    4.90    0.30   1
   2 -17  -2    5.19    0.36  -2
   2  17  -2    5.19    0.36   1
  -2 -17   2    5.18    0.37  -2
  -2  17   2    5.18    0.37   1
  -2 -17   2    4.63    0.34  -2
  -2  17   2    4.63    0.34   1
  -1 -17   2    9.57    0.52   1
   1 -17  -2    9.74    0.52   1
   1 -17  -2    9.42    0.59   1
  -1 -17   2    9.64    0.58   1
   1 -17  -2    9.93    0.73   1
   1  17  -2    9.59    0.57   1
   1  17  -2    9.94    0.56   1
  -1  17   2    9.22    0.63   1
  -1  17   2    9.52    0.52   1
  -1  17   2    9.57    0.57   1
   1  17  -2    9.57    0.65   1
   0 -17  -2    0.43    0.17   1
   0 -17  -2    0.44    0.20   1
   0  17   2    0.36    0.14   1
   1 -17   2    2.95    0.29   1
  -1 -17  -2    3.25    0.30   1
   1 -17   2    2.81    0.24   1
  -1 -17  -2    3.31    0.42   1
   1  17   2    3.23    0.32   1
  -1  17  -2    2.50    0.27   1
   1  17   2    3.01    0.27   1
  -1  17  -2    2.74    0.24   1
  -1  17  -2    3.20    0.26   1
   2 -17   2    8.89    0.53   1
   2 -17   2    9.19    0.58   1
  -2 -17  -2    9.55    0.77   1
  -2 -17  -2    9.36    0.58   1
   2  17   2    9.71    0.70   1
  -2  17  -2    9.51    0.55   1
  -2  17  -2    8.90    0.57   1
  -2  17  -2    9.35    0.57   1
   2  17   2    9.13    0.56   1
  -3 -17  -2    0.82    0.20   1
   3 -17   2    0.97    0.22   1
  -3 -17  -2    0.76    0.30   1
  -3  17  -2    0.98    0.21   1
   3  17   2    0.96    0.20   1
  -3  17  -2    1.13    0.21   1
   4 -17   2    0.18    0.21   1
  -4  17  -2   -0.03    0.16   1
  -4  17  -2   -0.15    0.19   1
   4  17   2   -0.16    0.18   1
   5 -18  -2    1.02    0.34   1
  -5 -18   2    0.80    0.25   1
   5  18  -2    0.54    0.26   1
  -5  18   2    0.76    0.25   1
  -5  18   2    0.91    0.23   1
  -4 -18   2    0.40    0.19   1
   4 -18  -2    0.60    0.26   1
  -4  18   2    0.33    0.21   1
  -4  18   2    0.67    0.15   1
  -4  18   2    0.43    0.20   1
   4  18  -2    0.62    0.21   1
   4  18  -2    0.56    0.23   1
   3 -18  -2    0.69    0.24   1
   3 -18  -2    0.82    0.26   1
  -3 -18   2    0.84    0.22   1
   3  18  -2    1.25    0.21   1
  -3  18   2    1.17    0.22   1
  -3  18   2    1.45    0.17   1
   3  18  -2    0.84    0.19   1
   3  18  -2    1.29    0.24   1
  -3  18   2    1.09    0.21   1
  -2  18   2    0.04    0.07  -2
  -2 -18   2    0.04    0.07   1
  -2  18   2    0.16    0.15  -2
  -2 -18   2    0.16    0.15   1
   2  18  -2   -0.08    0.17  -2
   2 -18  -2   -0.08    0.17   1
   2  18  -2   -0.15    0.18  -2
   2 -18  -2   -0.15    0.18   1
  -2 -18   2   -0.02    0.14  -2
  -2  18   2   -0.02    0.14   1
   2 -18  -2   -0.06    0.13  -2
   2  18  -2   -0.06    0.13   1
   2 -18  -2    0.01    0.12  -2
   2  18  -2    0.01    0.12   1
  -2 -18   2    0.00    0.13  -2
  -2  18   2    0.00    0.13   1
  -2 -18   2   -0.02    0.07  -2
  -2  18   2   -0.02    0.07   1
   2 -18  -2    0.06    0.13  -2
   2  18  -2    0.06    0.13   1
  -1 -18   2    4.96    0.38   1
   1 -18  -2    4.92    0.39   1
  -1 -18   2    4.04    0.28   1
   1 -18  -2    5.07    0.50   1
   1  18  -2    4.39    0.34   1
  -1  18   2    3.89    0.36   1
  -1  18   2    4.91    0.35   1
   1  18  -2    4.57    0.38   1
   1  18  -2    4.65    0.33   1
  -1  18   2    4.98    0.29   1
   0 -18   2    0.11    0.16   1
   0 -18  -2    0.42    0.17   1
   0 -18  -2    0.08    0.20   1
   0  18  -2    0.23    0.11   1
   0  18  -2    0.08    0.11   1
   0  18   2    0.31    0.13   1
   0  18   2    0.45    0.09   1
   0  18   2    0.28    0.10   1
   0  18  -2    0.14    0.13   1
  -1 -18  -2    2.17    0.27   1
  -1 -18  -2    1.96    0.34   1
   1 -18   2    2.12    0.25   1
  -1  18  -2    2.12    0.22   1
  -1  18  -2    1.69    0.23   1
  -1  18  -2    2.27    0.21   1
   1  18   2    2.35    0.28   1
   1  18   2    2.29    0.23   1
   2 -18   2   -0.06    0.15   1
  -2 -18  -2   -0.03    0.25   1
  -2 -18  -2   -0.02    0.14   1
  -2  18  -2    0.21    0.13   1
  -2  18  -2    0.27    0.16   1
   2  18   2   -0.01    0.21   1
   2  18   2    0.17    0.15   1
  -2  18  -2    0.10    0.13   1
  -3 -18  -2    5.06    0.60   1
   3 -18   2    4.84    0.44   1
  -3 -18  -2    4.64    0.39   1
   3  18   2    4.45    0.39   1
  -3  18  -2    5.30    0.40   1
  -3  18  -2    5.12    0.41   1
   3  18   2    5.64    0.56   1
  -4 -18  -2   -0.42    0.26   1
   4 -18   2    0.17    0.22   1
  -4  18  -2    0.19    0.19   1
  -4  18  -2   -0.29    0.17   1
   4  18   2   -0.01    0.18   1
  -5 -19   2    0.85    0.26   1
   5 -19  -2    0.92    0.34   1
  -5  19   2    1.21    0.29   1
  -5  19   2    1.08    0.26   1
   5  19  -2    0.96    0.29   1
  -4 -19   2    0.64    0.21   1
   4 -19  -2    0.67    0.30   1
   4  19  -2    0.37    0.21   1
  -4  19   2    0.57    0.22   1
  -4  19   2    0.55    0.19   1
  -4  19   2    0.46    0.15   1
  -3 -19   2    8.95    0.59   1
   3 -19  -2    9.54    0.65   1
   3 -19  -2    7.85    0.68   1
   3  19  -2    9.35    0.59   1
  -3  19   2    8.60    0.57   1
  -3  19   2    8.30    0.49   1
   3  19  -2    9.32    0.56   1
   3  19  -2    7.56    0.60   1
  -3  19   2    8.74    0.54   1
   2  19  -2   -0.18    0.20  -2
   2 -19  -2   -0.18    0.20   1
   2  19  -2    0.10    0.18  -2
   2 -19  -2    0.10    0.18   1
  -2  19   2    0.03    0.15  -2
  -2 -19   2    0.03    0.15   1
   2 -19  -2   -0.08    0.12  -2
   2  19  -2   -0.08    0.12   1
   2 -19  -2   -0.11    0.13  -2
   2  19  -2   -0.11    0.13   1
  -2 -19   2    0.06    0.13  -2
  -2  19   2    0.06    0.13   1
   2 -19  -2    0.00    0.12  -2
   2  19  -2    0.00    0.12   1
  -2 -19   2   -0.03    0.14  -2
  -2  19   2   -0.03    0.14   1
  -2 -19   2    0.03    0.08  -2
  -2  19   2    0.03    0.08   1
  -1 -19   2   16.65    0.89   1
   1 -19  -2   14.45    0.88   1
   1 -19  -2   15.85    1.09   1
  -1  19   2   15.88    0.86   1
  -1  19   2   14.43    0.97   1
   1  19  -2   15.62    0.86   1
  -1  19   2   15.08    0.80   1
   1  19  -2   15.02    0.98   1
   1  19  -2   16.04    0.85   1
   0 -19  -2   10.29    0.67   1
   0 -19   2   11.95    0.69   1
   0 -19  -2   11.96    0.86   1
   0  19   2   10.30    0.65   1
   0  19  -2   11.24    0.65   1
   0  19   2   10.85    0.61   1
   0  19  -2   11.10    0.61   1
   0  19   2   11.49    0.68   1
   0  19  -2   11.27    0.64   1
   1 -19   2    1.16    0.22   1
  -1 -19  -2    0.97    0.30   1
  -1 -19  -2    1.27    0.22   1
   1  19   2    1.39    0.24   1
  -1  19  -2    1.04    0.20   1
   1  19   2    1.06    0.19   1
  -1  19  -2    1.00    0.18   1
  -1  19  -2    1.15    0.18   1
  -2 -19  -2    5.94    0.63   1
  -2 -19  -2    5.47    0.42   1
   2 -19   2    5.85    0.45   1
  -2  19  -2    5.86    0.40   1
  -2  19  -2    5.43    0.42   1
  -2  19  -2    5.26    0.39   1
   2  19   2    5.73    0.51   1
   2  19   2    5.47    0.41   1
  -3 -19  -2    0.53    0.19   1
  -3 -19  -2    0.15    0.29   1
   3 -19   2    0.32    0.22   1
  -3  19  -2    0.48    0.19   1
   3  19   2    0.45    0.19   1
   3  19   2    0.57    0.29   1
  -3  19  -2    0.64    0.21   1
  -4 -19  -2   -0.28    0.29   1
   4 -19   2    0.32    0.22   1
  -4  19  -2    0.09    0.19   1
   4  19   2    0.38    0.35   1
   4  19   2    0.23    0.21   1
  -4  19  -2    0.32    0.20   1
  -5 -20   2   -0.04    0.20   1
  -5  20   2    0.32    0.23   1
   4 -20  -2    0.51    0.26   1
  -4 -20   2    0.36    0.19   1
  -4  20   2    0.62    0.16   1
  -4  20   2    0.37    0.18   1
   4  20  -2    0.48    0.22   1
  -4  20   2    0.55    0.22   1
  -3 -20   2    3.18    0.35   1
   3 -20  -2    1.75    0.35   1
   3 -20  -2    3.04    0.40   1
  -3  20   2    2.51    0.32   1
   3  20  -2    2.77    0.34   1
  -3  20   2    2.67    0.29   1
  -3  20   2    2.33    0.22   1
   3  20  -2    2.45    0.29   1
   3  20  -2    2.76    0.30   1
   2  20  -2    2.54    0.35  -2
   2 -20  -2    2.54    0.35   1
  -2  20   2    2.79    0.32  -2
  -2 -20   2    2.79    0.32   1
   2  20  -2    2.42    0.37  -2
   2 -20  -2    2.42    0.37   1
   2 -20  -2    2.73    0.29  -2
   2  20  -2    2.73    0.29   1
  -2 -20   2    2.55    0.28  -2
  -2  20   2    2.55    0.28   1
  -2 -20   2    2.58    0.31  -2
  -2  20   2    2.58    0.31   1
  -2 -20   2    2.51    0.21  -2
  -2  20   2    2.51    0.21   1
   2 -20  -2    2.76    0.29  -2
   2  20  -2    2.76    0.29   1
   2 -20  -2    2.83    0.29  -2
   2  20  -2    2.83    0.29   1
  -1 -20   2    0.85    0.20   1
   1 -20  -2    0.50    0.25   1
   1 -20  -2    0.61    0.21   1
  -1  20   2    0.54    0.19   1
  -1  20   2    0.68    0.12   1
   1  20  -2    0.88    0.19   1
   1  20  -2    0.73    0.16   1
  -1  20   2    0.51    0.15   1
   1  20  -2    0.86    0.19   1
   0 -20  -2    9.03    0.59   1
   0 -20   2    9.31    0.59   1
   0 -20  -2    9.26    0.78   1
   0  20   2    9.09    0.57   1
   0  20  -2    9.53    0.56   1
   0  20   2    8.67    0.52   1
   0  20   2    9.32    0.57   1
   0  20  -2    9.79    0.57   1
  -1 -20  -2    1.47    0.36   1
   1 -20   2    1.75    0.26   1
  -1 -20  -2    1.55    0.25   1
  -1  20  -2    1.58    0.22   1
   1  20   2    1.81    0.24   1
  -1  20  -2    2.15    0.26   1
  -1  20  -2    1.68    0.22   1
   2 -20   2    0.37    0.21   1
  -2 -20  -2    0.09    0.28   1
  -2 -20  -2    0.08    0.16   1
  -2  20  -2    0.27    0.18   1
   2  20   2    0.44    0.24   1
   2  20   2    0.01    0.15   1
  -2  20  -2    0.29    0.15   1
  -2  20  -2    0.18    0.15   1
   3 -20   2    1.83    0.31   1
  -3 -20  -2    1.15    0.38   1
  -3  20  -2    2.05    0.30   1
   3  20   2    1.95    0.40   1
  -3  20  -2    1.77    0.27   1
   3  20   2    1.59    0.26   1
   4 -20   2    2.32    0.37   1
  -4 -20  -2    1.54    0.43   1
  -4  20  -2    2.20    0.34   1
  -4  20  -2    2.07    0.34   1
   4  20   2    2.12    0.49   1
   4  20   2    2.00    0.32   1
  -5 -21   2    0.07    0.20   1
  -5  21   2   -0.04    0.22   1
  -4 -21   2    1.00    0.24   1
   4 -21  -2    1.03    0.29   1
  -4  21   2    1.03    0.28   1
  -4  21   2    0.61    0.22   1
   4  21  -2    1.01    0.26   1
   3 -21  -2   -0.37    0.21   1
   3 -21  -2   -0.10    0.22   1
  -3 -21   2    0.27    0.19   1
   3  21  -2    0.18    0.18   1
   3  21  -2    0.16    0.15   1
  -3  21   2    0.13    0.18   1
   3  21  -2    0.19    0.20   1
  -3  21   2    0.05    0.20   1
  -3  21   2    0.24    0.12   1
   2  21  -2   11.59    0.93  -2
   2 -21  -2   11.59    0.93   1
  -2  21   2   12.00    0.76  -2
  -2 -21   2   12.00    0.76   1
   2  21  -2   14.06    0.81  -2
   2 -21  -2   14.06    0.81   1
   2 -21  -2   13.08    0.82  -2
   2  21  -2   13.08    0.82   1
  -2 -21   2   11.07    0.72  -2
  -2  21   2   11.07    0.72   1
   2 -21  -2   12.47    0.75  -2
   2  21  -2   12.47    0.75   1
   2 -21  -2   13.25    0.73  -2
   2  21  -2   13.25    0.73   1
  -2 -21   2   12.04    0.74  -2
  -2  21   2   12.04    0.74   1
  -2 -21   2   11.60    0.66  -2
  -2  21   2   11.60    0.66   1
   1 -21  -2    0.82    0.30   1
   1 -21  -2    0.95    0.26   1
  -1 -21   2    1.24    0.24   1
  -1  21   2    1.16    0.16   1
  -1  21   2    1.09    0.23   1
   1  21  -2    1.34    0.22   1
   1  21  -2    1.13    0.19   1
   1  21  -2    1.68    0.24   1
   0 -21  -2    0.46    0.20   1
   0 -21  -2    0.22    0.25   1
   0 -21   2    0.48    0.20   1
   0  21  -2    0.38    0.16   1
   0  21   2    0.31    0.12   1
   0  21   2    0.23    0.16   1
   0  21  -2    0.40    0.15   1
   1 -21   2    5.45    0.43   1
  -1 -21  -2    4.88    0.61   1
  -1 -21  -2    4.61    0.40   1
  -1  21  -2    5.11    0.37   1
  -1  21  -2    4.61    0.35   1
   1  21   2    5.06    0.39   1
  -1  21  -2    5.45    0.39   1
  -2 -21  -2   -0.21    0.28   1
  -2 -21  -2   -0.12    0.16   1
   2 -21   2   -0.01    0.18   1
  -2  21  -2   -0.09    0.16   1
  -2  21  -2    0.17    0.15   1
  -2  21  -2    0.11    0.16   1
   2  21   2   -0.11    0.15   1
   2  21   2    0.16    0.22   1
  -3 -21  -2    0.80    0.38   1
   3 -21   2    1.20    0.28   1
   3  21   2    1.63    0.38   1
  -3  21  -2    1.06    0.23   1
  -3  21  -2    1.22    0.25   1
   3  21   2    1.39    0.26   1
  -4 -21  -2    0.01    0.33   1
  -4  21  -2    0.23    0.23   1
  -4  21  -2    0.21    0.20   1
   4  21   2    0.28    0.23   1
  -5 -22   2    0.00    0.21   1
   4 -22  -2    0.15    0.27   1
  -4 -22   2    0.24    0.20   1
  -4  22   2    0.06    0.20   1
   4  22  -2   -0.07    0.21   1
  -4  22   2    0.29    0.23   1
   3 -22  -2    0.63    0.29   1
  -3 -22   2    1.15    0.26   1
   3 -22  -2    0.88    0.28   1
  -3  22   2    1.24    0.23   1
  -3  22   2    1.32    0.28   1
  -3  22   2    1.52    0.20   1
   3  22  -2    1.74    0.28   1
   3  22  -2    1.09    0.25   1
   2  22  -2    0.24    0.27  -2
   2 -22  -2    0.24    0.27   1
   2  22  -2    0.68    0.25  -2
   2 -22  -2    0.68    0.25   1
  -2  22   2    0.63    0.21  -2
  -2 -22   2    0.63    0.21   1
  -2 -22   2    0.38    0.19  -2
  -2  22   2    0.38    0.19   1
   2 -22  -2    0.46    0.17  -2
   2  22  -2    0.46    0.17   1
   2 -22  -2    0.39    0.17  -2
   2  22  -2    0.39    0.17   1
   2 -22  -2    0.51    0.18  -2
   2  22  -2    0.51    0.18   1
  -2 -22   2    0.14    0.11  -2
  -2  22   2    0.14    0.11   1
  -1 -22   2    0.29    0.20   1
   1 -22  -2    0.32    0.27   1
   1 -22  -2    0.13    0.20   1
   1  22  -2    0.30    0.15   1
   1  22  -2    0.38    0.18   1
  -1  22   2    0.08    0.11   1
   1  22  -2    0.04    0.16   1
  -1  22   2    0.02    0.16   1
   0 -22  -2   11.06    0.87   1
   0 -22   2   10.02    0.65   1
   0 -22  -2   10.06    0.67   1
   0  22   2    9.59    0.59   1
   0  22  -2   10.10    0.62   1
   0  22  -2   10.83    0.62   1
   0  22   2    9.83    0.63   1
  -1 -22  -2    1.48    0.26   1
   1 -22   2    1.75    0.28   1
  -1 -22  -2    1.31    0.37   1
  -1  22  -2    1.63    0.25   1
  -1  22  -2    1.21    0.20   1
  -1  22  -2    1.33    0.24   1
   1  22   2    1.61    0.25   1
  -2 -22  -2    1.23    0.38   1
   2 -22   2    1.69    0.29   1
  -2 -22  -2    1.11    0.25   1
   2  22   2    1.59    0.32   1
   2  22   2    1.35    0.24   1
  -2  22  -2    1.43    0.25   1
  -2  22  -2    1.54    0.24   1
  -2  22  -2    1.35    0.25   1
  -3 -22  -2   -0.15    0.34   1
   3 -22   2    0.04    0.21   1
   3  22   2    0.48    0.32   1
  -3  22  -2    0.03    0.17   1
  -3  22  -2    0.08    0.19   1
   3  22   2    0.15    0.18   1
  -4 -22  -2   -0.41    0.30   1
  -4  22  -2   -0.10    0.20   1
   4  22   2    0.48    0.37   1
  -4 -23   2    0.31    0.20   1
   4  23  -2    0.46    0.24   1
  -4  23   2    0.40    0.20   1
  -4  23   2    0.52    0.23   1
  -3 -23   2    0.20    0.20   1
   3 -23  -2    0.04    0.25   1
   3 -23  -2   -0.42    0.24   1
   3  23  -2    0.13    0.18   1
  -3  23   2   -0.10    0.19   1
  -3  23   2    0.19    0.13   1
   3  23  -2    0.07    0.20   1
  -3  23   2    0.01    0.17   1
   2  23  -2    6.59    0.55  -2
   2 -23  -2    6.59    0.55   1
  -2  23   2    5.90    0.47  -2
  -2 -23   2    5.90    0.47   1
   2  23  -2    4.68    0.62  -2
   2 -23  -2    4.68    0.62   1
   2 -23  -2    6.08    0.47  -2
   2  23  -2    6.08    0.47   1
   2 -23  -2    5.53    0.43  -2
   2  23  -2    5.53    0.43   1
  -2 -23   2    5.58    0.46  -2
  -2  23   2    5.58    0.46   1
   2 -23  -2    5.74    0.45  -2
   2  23  -2    5.74    0.45   1
  -2 -23   2    5.52    0.37  -2
  -2  23   2    5.52    0.37   1
   1 -23  -2    0.76    0.33   1
   1 -23  -2    0.78    0.25   1
  -1 -23   2    1.19    0.26   1
  -1  23   2    1.03    0.25   1
   1  23  -2    0.99    0.23   1
   1  23  -2    0.98    0.21   1
  -1  23   2    0.85    0.17   1
   1  23  -2    0.81    0.21   1
   0 -23  -2    0.63    0.31   1
   1 -23   2    1.34    0.28   1
  -1 -23  -2    1.28    0.27   1
  -1 -23  -2    1.30    0.39   1
  -1  23  -2    1.48    0.23   1
   1  23   2    1.26    0.25   1
  -1  23  -2    1.49    0.25   1
  -1  23  -2    1.32    0.24   1
  -2 -23  -2    0.09    0.18   1
  -2 -23  -2   -0.15    0.32   1
   2 -23   2    0.34    0.23   1
   2  23   2    0.23    0.19   1
  -2  23  -2    0.20    0.18   1
  -2  23  -2    0.45    0.20   1
  -2  23  -2    0.27    0.17   1
  -3 -23  -2   -0.46    0.33   1
   3 -23   2    0.06    0.24   1
  -3  23  -2    0.18    0.19   1
   3  23   2    0.12    0.28   1
   3  23   2    0.55    0.22   1
  -3  23  -2    0.18    0.20   1
  -4 -23  -2   -0.19    0.34   1
  -4 -24   2    0.32    0.22   1
   4 -24  -2    0.53    0.33   1
  -4  24   2    0.54    0.25   1
   4  24  -2    0.41    0.25   1
  -3 -24   2    0.21    0.22   1
   3 -24  -2   -0.27    0.27   1
   3 -24  -2    0.44    0.30   1
   3  24  -2    0.20    0.22   1
  -3  24   2    0.13    0.19   1
   3  24  -2   -0.03    0.18   1
  -3  24   2    0.66    0.24   1
   2  24  -2    1.73    0.33  -2
   2 -24  -2    1.73    0.33   1
   2  24  -2    0.39    0.31  -2
   2 -24  -2    0.39    0.31   1
  -2  24   2    1.47    0.28  -2
  -2 -24   2    1.47    0.28   1
   2 -24  -2    1.06    0.22  -2
   2  24  -2    1.06    0.22   1
  -2 -24   2    1.15    0.18  -2
  -2  24   2    1.15    0.18   1
   2 -24  -2    1.39    0.26  -2
   2  24  -2    1.39    0.26   1
  -2 -24   2    1.57    0.29  -2
  -2  24   2    1.57    0.29   1
   2 -24  -2    1.56    0.24  -2
   2  24  -2    1.56    0.24   1
  -1 -24   2    1.54    0.29   1
   1 -24  -2    0.95    0.29   1
   1 -24  -2    1.09    0.37   1
   1  24  -2    1.19    0.23   1
   1  24  -2    1.16    0.24   1
  -1  24   2    1.12    0.26   1
  -1  24   2    0.95    0.17   1
   1  24  -2    1.17    0.24   1
   0 -24  -2    2.20    0.33   1
   0 -24  -2    1.75    0.42   1
   0 -24   2    2.57    0.35   1
   0  24  -2    1.70    0.26   1
   0  24   2    1.88    0.23   1
   0  24   2    2.20    0.31   1
   0  24  -2    1.76    0.26   1
   1 -24   2    0.27    0.22   1
  -1 -24  -2    0.06    0.34   1
  -1 -24  -2    0.09    0.19   1
   1  24   2    0.53    0.20   1
  -1  24  -2    0.12    0.17   1
  -1  24  -2    0.18    0.16   1
  -1  24  -2    0.39    0.19   1
  -2 -24  -2   -0.27    0.31   1
   2 -24   2    0.01    0.21   1
  -2 -24  -2    0.26    0.20   1
  -2  24  -2    0.03    0.16   1
   2  24   2    0.16    0.19   1
  -2  24  -2    0.21    0.19   1
  -3 -24  -2   -0.23    0.33   1
   3 -24   2    0.12    0.24   1
  -3  24  -2    0.17    0.18   1
   3  24   2   -0.19    0.19   1
  -3  24  -2    0.32    0.21   1
  -4 -25   2   -0.02    0.20   1
  -3 -25   2    0.08    0.21   1
   3 -25  -2   -0.41    0.26   1
  -3  25   2   -0.16    0.20   1
  -3  25   2   -0.18    0.19   1
   3  25  -2    0.06    0.17   1
   3  25  -2    0.09    0.21   1
   2  25  -2    1.94    0.42  -2
   2 -25  -2    1.94    0.42   1
  -2  25   2    2.70    0.36  -2
  -2 -25   2    2.70    0.36   1
   2  25  -2    2.58    0.39  -2
   2 -25  -2    2.58    0.39   1
   2 -25  -2    2.51    0.33  -2
   2  25  -2    2.51    0.33   1
  -2 -25   2    3.06    0.39  -2
  -2  25   2    3.06    0.39   1
  -2 -25   2    2.15    0.24  -2
  -2  25   2    2.15    0.24   1
   2 -25  -2    2.70    0.34  -2
   2  25  -2    2.70    0.34   1
   1 -25  -2    1.15    0.40   1
  -1 -25   2    1.74    0.30   1
   1 -25  -2    1.51    0.30   1
   1  25  -2    1.83    0.29   1
   1  25  -2    1.53    0.27   1
  -1  25   2    1.63    0.22   1
  -1  25   2    1.52    0.28   1
   1  25  -2    1.65    0.26   1
   0 -25   2    0.57    0.24   1
   0 -25  -2    0.17    0.34   1
   0 -25  -2    0.28    0.22   1
   0  25   2    0.37    0.21   1
   0  25  -2    0.47    0.19   1
   0  25  -2    0.42    0.18   1
   0  25   2    0.26    0.14   1
  -1 -25  -2    1.59    0.29   1
  -1 -25  -2    1.40    0.42   1
   1 -25   2    1.54    0.30   1
  -1  25  -2    1.72    0.28   1
   1  25   2    1.79    0.29   1
  -1  25  -2    1.58    0.26   1
  -1  25  -2    1.55    0.24   1
   2 -25   2    3.17    0.40   1
  -2 -25  -2    2.61    0.35   1
  -2 -25  -2    2.16    0.49   1
  -2  25  -2    2.71    0.32   1
  -2  25  -2    2.48    0.29   1
   2  25   2    2.73    0.35   1
  -3 -25  -2   -0.36    0.36   1
  -3  25  -2    0.23    0.22   1
  -3  25  -2    0.35    0.24   1
  -3 -26   2    1.24    0.30   1
  -3  26   2    1.46    0.31   1
  -3  26   2    1.30    0.31   1
   3  26  -2    0.79    0.27   1
   3  26  -2    1.32    0.29   1
   2  26  -2    2.81    0.50  -2
   2 -26  -2    2.81    0.50   1
   2  26  -2    4.04    0.44  -2
   2 -26  -2    4.04    0.44   1
  -2  26   2    3.62    0.40  -2
  -2 -26   2    3.62    0.40   1
   2 -26  -2    3.26    0.37  -2
   2  26  -2    3.26    0.37   1
  -2 -26   2    3.14    0.28  -2
  -2  26   2    3.14    0.28   1
   2 -26  -2    3.76    0.39  -2
   2  26  -2    3.76    0.39   1
  -2 -26   2    4.02    0.43  -2
  -2  26   2    4.02    0.43   1
  -1 -26   2    0.46    0.24   1
   1 -26  -2    0.45    0.25   1
   1 -26  -2   -0.21    0.30   1
   1  26  -2    0.23    0.19   1
  -1  26   2    0.36    0.23   1
  -1  26   2    0.23    0.14   1
   1  26  -2    0.20    0.19   1
   1  26  -2    0.34    0.19   1
   0 -26  -2    1.67    0.45   1
   0 -26   2    1.93    0.33   1
   0 -26  -2    1.84    0.31   1
   0  26   2    2.24    0.33   1
   0  26  -2    2.40    0.31   1
   0  26  -2    1.82    0.28   1
   0  26   2    2.12    0.27   1
  -1 -26  -2    0.10    0.21   1
  -1 -26  -2   -0.12    0.36   1
   1 -26   2    0.04    0.21   1
  -1  26  -2    0.13    0.19   1
  -1  26  -2    0.04    0.18   1
   1  26   2    0.04    0.19   1
  -1  26  -2    0.04    0.17   1
  -2 -26  -2   -0.43    0.35   1
  -2 -26  -2    0.45    0.23   1
   2 -26   2    0.33    0.25   1
   2  26   2    0.12    0.20   1
  -2  26  -2    0.29    0.19   1
  -2  26  -2    0.57    0.21   1
  -3  26  -2    1.09    0.26   1
  -3 -27   2    1.42    0.32   1
   3  27  -2    1.21    0.30   1
  -3  27   2    1.56    0.33   1
  -2  27   2    0.51    0.25  -2
  -2 -27   2    0.51    0.25   1
   2  27  -2    0.14    0.32  -2
   2 -27  -2    0.14    0.32   1
   2  27  -2    0.44    0.27  -2
   2 -27  -2    0.44    0.27   1
   2 -27  -2    0.24    0.20  -2
   2  27  -2    0.24    0.20   1
  -2 -27   2    0.61    0.16  -2
  -2  27   2    0.61    0.16   1
   2 -27  -2    0.51    0.22  -2
   2  27  -2    0.51    0.22   1
  -2 -27   2    0.65    0.26  -2
  -2  27   2    0.65    0.26   1
   1 -27  -2    1.32    0.32   1
  -1 -27   2    1.47    0.30   1
  -1  27   2    1.41    0.22   1
   1  27  -2    1.27    0.25   1
  -1  27   2    1.23    0.27   1
   1  27  -2    1.72    0.29   1
   0 -27  -2   -0.02    0.21   1
   0 -27  -2   -0.33    0.33   1
   0 -27   2   -0.02    0.22   1
   0  27  -2    0.12    0.19   1
   0  27   2   -0.05    0.19   1
   0  27   2    0.13    0.14   1
   0  27  -2    0.06    0.18   1
  -1 -27  -2    0.89    0.41   1
  -1 -27  -2    1.05    0.29   1
   1 -27   2    1.21    0.31   1
  -1  27  -2    1.34    0.27   1
   1  27   2    1.24    0.27   1
  -1  27  -2    0.96    0.25   1
  -2 -27  -2   -0.80    0.33   1
   2 -27   2   -0.05    0.22   1
   2  27   2   -0.18    0.19   1
  -2  27  -2   -0.02    0.18   1
  -2  27  -2    0.18    0.20   1
  -3  28   2    0.52    0.28   1
   3  28  -2    0.99    0.30   1
  -2  28   2    0.01    0.22  -2
  -2 -28   2    0.01    0.22   1
  -2 -28   2    0.46    0.25  -2
  -2  28   2    0.46    0.25   1
   2 -28  -2    0.21    0.22  -2
   2  28  -2    0.21    0.22   1
   2 -28  -2    0.02    0.20  -2
   2  28  -2    0.02    0.20   1
  -1 -28   2    0.17    0.25   1
   1 -28  -2    0.27    0.23   1
   1 -28  -2   -0.65    0.29   1
  -1  28   2   -0.02    0.13   1
   1  28  -2   -0.16    0.17   1
  -1  28   2   -0.05    0.21   1
   1  28  -2   -0.23    0.18   1
   0 -28  -2    0.70    0.29   1
   0 -28   2    0.60    0.27   1
   0 -28  -2    0.22    0.37   1
   0  28  -2    0.51    0.21   1
   0  28  -2    0.86    0.24   1
   0  28  -2    0.81    0.27   1
   0  28   2    0.59    0.19   1
   0  28   2    0.52    0.23   1
  -1 -28  -2    0.36    0.24   1
  -1 -28  -2   -0.40    0.37   1
   1 -28   2    0.57    0.28   1
  -1  28  -2    0.09    0.19   1
   1  28   2   -0.05    0.21   1
  -2  28  -2    0.49    0.23   1
  -2  28  -2    1.10    0.28   1
  -2  29   2    0.05    0.24  -2
  -2 -29   2    0.05    0.24   1
  -2 -29   2    0.15    0.25  -2
  -2  29   2    0.15    0.25   1
   2 -29  -2    0.20    0.23  -2
   2  29  -2    0.20    0.23   1
  -1 -29   2    0.06    0.24   1
   1  29  -2   -0.06    0.17   1
  -1  29   2   -0.09    0.20   1
   1  29  -2    0.05    0.22   1
  -1  29   2   -0.01    0.14   1
   0 -29   2    0.98    0.30   1
   0 -29  -2    1.10    0.31   1
   0  29   2    0.32    0.18   1
   0  29  -2    0.63    0.23   1
   0  29  -2    0.56    0.23   1
   0  29   2    0.74    0.25   1
  -1 -29  -2   -0.02    0.22   1
  -1  29  -2   -0.20    0.18   1
   1  29   2   -0.18    0.21   1
  -2  29  -2    0.10    0.20   1
   2  30  -2   -0.04    0.33  -2
   2 -30  -2   -0.04    0.33   1
   2 -30  -2    0.23    0.23  -2
   2  30  -2    0.23    0.23   1
   1  30  -2    0.20    0.23   1
  -1  30   2    0.24    0.26   1
   0 -30  -2    0.21    0.25   1
   0  30  -2    0.13    0.20   1
   0  30   2    0.19    0.25   1
   0  30   2    0.27    0.18   1
   0  30  -2    0.30    0.21   1
  -1 -30  -2    0.15    0.24   1
  -2  30  -2   -0.03    0.20   1
   1 -31  -2    0.20    0.27   1
   1  31  -2    0.10    0.24   1
   0 -31  -2    0.07    0.25   1
   0  31   2   -0.12    0.16   1
   0  31  -2   -0.18    0.20   1
  -1 -31  -2    1.15    0.34   1
   1  32  -2   -0.02    0.24   1
   0 -32  -2    0.30    0.27   1
  -6   0   3   -0.12    0.14   1
   6   0  -3    0.12    0.22   1
   5   0  -3    1.57    0.27   1
   5   0  -3    1.21    0.32   1
  -5   0   3    1.18    0.22   1
   4   0  -3    2.76    0.36   1
   4   0  -3    2.66    0.28   1
  -3   0   3    0.24    0.08  -2
  -3   0   3    0.24    0.08   1
   3   0  -3    0.58    0.13  -2
   3   0  -3    0.58    0.13   1
  -3   0   3    0.18    0.06  -2
  -3   0   3    0.18    0.06   1
  -2   0   3    0.00    0.08   1
  -2   0   3    0.27    0.05   1
  -2   0   3    0.30    0.09   1
  -2   0   3    0.37    0.06   1
  -2   0   3   -0.06    0.08   1
   2   0  -3    0.17    0.10   1
  -1   0   3    0.06    0.05   1
   1   0  -3    0.07    0.07   1
   1   0  -3    0.19    0.04   1
   1   0  -3   -0.10    0.05   1
   1   0  -3    0.04    0.06   1
  -1   0   3    0.09    0.04   1
  -1   0   3    0.08    0.05   1
   1   0  -3    0.15    0.04   1
   0   0  -3    0.12    0.04   1
   0   0  -3    0.39    0.12   1
   0   0   3    0.08    0.04   1
   0   0  -3    0.01    0.03   1
   0   0   3    0.12    0.04   1
   0   0  -3    0.25    0.08   1
   1   0   3    5.58    0.45   1
  -2   0  -3    0.36    0.06   1
  -2   0  -3    0.51    0.12   1
   2   0   3    0.85    0.18   1
  -2   0  -3    0.76    0.14   1
   2   0   3    0.52    0.08   1
  -2   0  -3    0.52    0.06   1
   2   0   3    0.31    0.07   1
  -3   0  -3    0.48    0.08   1
  -3   0  -3    0.54    0.13   1
  -3   0  -3    0.80    0.18   1
   3   0   3    1.12    0.28   1
   3   0   3    0.31    0.08   1
   0   0   7    0.01    0.18  -2
  -4   0  -3    0.01    0.18   1
   0   0  -7    0.36    0.29  -2
   4   0   3    0.36    0.29   1
   0   0  -7   -0.06    0.12  -2
   4   0   3   -0.06    0.12   1
   5   0   3    0.10    0.35   1
  -5   0  -3    0.20    0.25   1
  -6  -1   3    0.56    0.21   1
   6  -1  -3    0.68    0.29   1
  -6  -1   3    0.33    0.17   1
  -6   1   3    0.37    0.18   1
  -6   1   3    0.64    0.21   1
   6   1  -3    0.73    0.27   1
   5  -1  -3    5.87    0.62   1
  -5  -1   3    6.16    0.44   1
   5  -1  -3    6.01    0.47   1
  -5  -1   3    6.05    0.40   1
   5   1  -3    6.03    0.47   1
  -5   1   3    6.15    0.41   1
   5   1  -3    5.80    0.60   1
  -5   1   3    5.96    0.43   1
  -4  -1   3   17.70    0.90   1
  -4  -1   3   16.73    0.92   1
   4  -1  -3   15.98    1.14   1
   4  -1  -3   18.06    0.95   1
   4   1  -3   15.11    1.13   1
  -4   1   3   17.86    0.91   1
   4   1  -3   16.70    0.94   1
  -4   1   3   18.59    0.93   1
  -3   1   3   19.69    0.99  -2
  -3  -1   3   19.69    0.99   1
   3   1  -3   17.99    0.99  -2
   3  -1  -3   17.99    0.99   1
   3   1  -3   20.53    1.03  -2
   3  -1  -3   20.53    1.03   1
   3   1  -3   20.83    1.23  -2
   3  -1  -3   20.83    1.23   1
  -3   1   3   19.46    0.98  -2
  -3  -1   3   19.46    0.98   1
  -3   1   3   18.11    1.01  -2
  -3  -1   3   18.11    1.01   1
  -3  -1   3   20.37    1.00  -2
  -3   1   3   20.37    1.00   1
  -3  -1   3   17.98    1.01  -2
  -3   1   3   17.98    1.01   1
   3  -1  -3   20.11    1.03  -2
   3   1  -3   20.11    1.03   1
   3  -1  -3   19.04    0.99  -2
   3   1  -3   19.04    0.99   1
  -3  -1   3   18.90    0.97  -2
  -3   1   3   18.90    0.97   1
   3  -1  -3   21.39    1.24  -2
   3   1  -3   21.39    1.24   1
   2  -1  -3   27.29    1.44   1
   2  -1  -3   26.79    1.71   1
  -2  -1   3   27.80    1.43   1
  -2  -1   3   27.24    1.43   1
   2  -1  -3   28.36    1.43   1
  -2  -1   3   28.07    1.71   1
  -2  -1   3   29.52    1.40   1
  -2  -1   3   31.11    1.41   1
   2  -1  -3   30.42    1.42   1
   2   1  -3   26.88    1.71   1
  -2   1   3   28.61    1.43   1
   2   1  -3   26.24    1.43   1
  -2   1   3   27.75    1.70   1
  -2   1   3   29.10    1.44   1
   2   1  -3   27.83    1.44   1
  -2   1   3   30.01    1.39   1
  -2   1   3   31.68    1.42   1
   2   1  -3   29.04    1.41   1
   1  -1  -3    1.86    0.10   1
   1  -1  -3    1.65    0.16   1
  -1  -1   3    1.69    0.16   1
   1  -1  -3    1.60    0.12   1
   1   1  -3    1.41    0.10   1
   1   1  -3    1.38    0.10   1
   1   1  -3    1.57    0.13   1
   1   1  -3    1.21    0.12   1
   1   1  -3    1.35    0.16   1
   0  -1   3    5.32    0.27   1
   0  -1  -3    5.82    0.27   1
   0  -1  -3    4.96    0.27   1
   0  -1   3    5.03    0.27   1
   0  -1  -3    5.11    0.39   1
   0  -1  -3    5.23    0.35   1
   0   1   3    5.02    0.27   1
   0   1  -3    5.16    0.27   1
   0   1  -3    4.99    0.27   1
   0   1  -3    5.70    0.29   1
   0   1  -3    5.41    0.39   1
   0   1  -3    5.53    0.36   1
   0   1   3    4.97    0.27   1
   1  -1   3   30.34    1.93   1
   1   1   3   32.39    1.93   1
  -2  -1  -3    1.44    0.09   1
  -2  -1  -3    1.17    0.18   1
   2  -1   3    0.90    0.10   1
   2  -1   3    1.13    0.21   1
  -2  -1  -3    1.38    0.10   1
   2  -1   3    1.14    0.11   1
   2   1   3    1.38    0.12   1
  -2   1  -3    1.07    0.09   1
  -2   1  -3    1.63    0.18   1
  -2   1  -3    1.65    0.19   1
   2   1   3    1.20    0.11   1
  -2   1  -3    0.89    0.09   1
  -3  -1  -3    1.89    0.24   1
   3  -1   3    1.47    0.15   1
   3  -1   3    2.63    0.37   1
   3  -1   3    2.44    0.20   1
  -3  -1  -3    1.55    0.14   1
  -3  -1  -3    2.44    0.27   1
  -3   1  -3    1.89    0.21   1
   3   1   3    1.72    0.16   1
   3   1   3    2.27    0.19   1
  -3   1  -3    2.35    0.24   1
   3   1   3    2.52    0.36   1
  -3   1  -3    1.88    0.15   1
   0   1   7    0.32    0.21  -2
  -4  -1  -3    0.32    0.21   1
   0   1  -7    0.10    0.13  -2
   4  -1   3    0.10    0.13   1
   0   1  -7    0.44    0.28  -2
   4  -1   3    0.44    0.28   1
   0  -1   7    0.32    0.20  -2
  -4   1  -3    0.32    0.20   1
   0  -1  -7    0.26    0.14  -2
   4   1   3    0.26    0.14   1
   0  -1  -7    0.47    0.29  -2
   4   1   3    0.47    0.29   1
  -5  -1  -3    0.55    0.28   1
   5  -1   3    0.78    0.43   1
  -5   1  -3    1.15    0.31   1
   5   1   3    0.84    0.42   1
  -6  -2   3    0.89    0.23   1
  -6  -2   3    0.29    0.17   1
   6   2  -3    0.91    0.30   1
  -6   2   3    1.05    0.23   1
  -6   2   3    0.56    0.20   1
   5  -2  -3    1.71    0.28   1
   5  -2  -3    1.13    0.32   1
  -5  -2   3    1.04    0.21   1
  -5   2   3    1.14    0.22   1
   5   2  -3    1.47    0.26   1
   5   2  -3    1.34    0.34   1
   4  -2  -3    5.16    0.52   1
   4  -2  -3    6.20    0.41   1
  -4  -2   3    5.55    0.38   1
  -4   2   3    5.65    0.38   1
   4   2  -3    4.38    0.42   1
   4   2  -3    6.12    0.40   1
   4   2  -3    5.54    0.51   1
   3   2  -3    5.63    0.35  -2
   3  -2  -3    5.63    0.35   1
  -3   2   3    5.70    0.33  -2
  -3  -2   3    5.70    0.33   1
  -3   2   3    6.34    0.38  -2
  -3  -2   3    6.34    0.38   1
   3   2  -3    6.55    0.49  -2
   3  -2  -3    6.55    0.49   1
  -3   2   3    5.92    0.34  -2
  -3  -2   3    5.92    0.34   1
   3   2  -3    5.93    0.39  -2
   3  -2  -3    5.93    0.39   1
  -3  -2   3    5.91    0.35  -2
  -3   2   3    5.91    0.35   1
   3  -2  -3    6.02    0.34  -2
   3   2  -3    6.02    0.34   1
   3  -2  -3    6.62    0.39  -2
   3   2  -3    6.62    0.39   1
  -3  -2   3    5.94    0.37  -2
  -3   2   3    5.94    0.37   1
   3  -2  -3    6.78    0.47  -2
   3   2  -3    6.78    0.47   1
  -3  -2   3    5.68    0.33  -2
  -3   2   3    5.68    0.33   1
   2  -2  -3   14.05    0.76   1
  -2  -2   3   13.16    0.74   1
  -2  -2   3   14.47    0.89   1
   2  -2  -3   13.73    0.90   1
   2  -2  -3   12.91    0.74   1
  -2  -2   3   14.62    0.72   1
   2  -2  -3   15.32    0.73   1
  -2  -2   3   15.47    0.72   1
  -2  -2   3   14.47    0.75   1
   2   2  -3   12.63    0.75   1
  -2   2   3   14.16    0.75   1
  -2   2   3   13.49    0.89   1
  -2   2   3   14.32    0.70   1
   2   2  -3   14.54    0.72   1
   2   2  -3   14.27    0.90   1
   2   2  -3   15.03    0.76   1
   2   2  -3   14.63    0.72   1
  -2   2   3   13.94    0.74   1
  -2   2   3   15.73    0.73   1
  -1  -2   3   32.51    1.54   1
   1  -2  -3   32.55    1.56   1
   1  -2  -3   29.09    1.85   1
  -1  -2   3   31.73    1.86   1
   1  -2  -3   31.59    1.52   1
   1  -2  -3   29.93    1.55   1
  -1  -2   3   33.00    1.55   1
   1  -2  -3   30.53    1.56   1
  -1  -2   3   31.84    1.55   1
   1   2  -3   31.56    1.54   1
   1   2  -3   29.92    1.86   1
   1   2  -3   32.26    1.54   1
  -1   2   3   31.11    1.55   1
  -1   2   3   33.13    1.86   1
   1   2  -3   30.94    1.55   1
  -1   2   3   31.22    1.55   1
   1   2  -3   31.72    1.55   1
   0  -2  -3   35.89    2.18   1
   0  -2  -3   34.43    2.26   1
   0  -2  -3   41.50    1.83   1
   0  -2  -3   38.15    1.82   1
   0   2  -3   37.03    1.82   1
   0   2  -3   35.00    2.19   1
   0   2   3   39.26    1.82   1
   0   2  -3   37.79    1.82   1
   0   2  -3   37.20    1.83   1
  -1  -2  -3    1.49    0.20   1
   1  -2   3    1.55    0.24   1
   1   2   3    1.55    0.23   1
  -1   2  -3    1.05    0.14   1
   2  -2   3    7.54    0.39   1
   2  -2   3    7.48    0.38   1
  -2  -2  -3    6.82    0.38   1
  -2  -2  -3    7.07    0.51   1
  -2  -2  -3    7.04    0.38   1
   2  -2   3    6.86    0.55   1
   2   2   3    7.30    0.39   1
  -2   2  -3    7.37    0.37   1
  -2   2  -3    7.58    0.49   1
   2   2   3    7.19    0.56   1
   2   2   3    7.39    0.39   1
  -2   2  -3    7.02    0.37   1
  -2   2  -3    8.22    0.45   1
  -3  -2  -3    7.73    0.40   1
  -3  -2  -3    6.85    0.52   1
  -3  -2  -3    7.65    0.49   1
   3  -2   3    7.52    0.61   1
   3  -2   3    7.06    0.42   1
   3   2   3    7.74    0.42   1
  -3   2  -3    6.59    0.49   1
   3   2   3    7.24    0.61   1
  -3   2  -3    7.25    0.47   1
   3   2   3    7.34    0.41   1
  -3   2  -3    7.03    0.39   1
   0   2  -7    0.44    0.14  -2
   4  -2   3    0.44    0.14   1
   0   2   7    0.58    0.20  -2
  -4  -2  -3    0.58    0.20   1
   0   2  -7    0.98    0.34  -2
   4  -2   3    0.98    0.34   1
   0  -2  -7    0.62    0.29  -2
   4   2   3    0.62    0.29   1
   0  -2   7    0.70    0.21  -2
  -4   2  -3    0.70    0.21   1
   0  -2  -7    0.37    0.14  -2
   4   2   3    0.37    0.14   1
   5  -2   3    0.75    0.42   1
  -5  -2  -3    0.48    0.26   1
   5   2   3    1.41    0.46   1
   5   2   3    0.37    0.19   1
  -5   2  -3    0.69    0.26   1
  -6  -3   3    1.79    0.30   1
  -6  -3   3    1.76    0.26   1
   6  -3  -3    1.60    0.33   1
  -6   3   3    1.61    0.27   1
  -5  -3   3    5.39    0.40   1
  -5  -3   3    4.60    0.35   1
   5  -3  -3    6.63    0.61   1
   5   3  -3    5.35    0.43   1
   5   3  -3    4.62    0.55   1
  -5   3   3    4.62    0.37   1
   4  -3  -3   14.92    1.11   1
  -4  -3   3   17.12    0.89   1
  -4  -3   3   17.07    0.86   1
   4  -3  -3   15.09    0.90   1
  -4   3   3   17.48    0.88   1
   4   3  -3   15.20    1.09   1
   4   3  -3   16.52    0.90   1
  -4   3   3   17.07    0.89   1
   3   3  -3    1.47    0.15  -2
   3  -3  -3    1.47    0.15   1
   3   3  -3    1.65    0.20  -2
   3  -3  -3    1.65    0.20   1
  -3   3   3    1.63    0.18  -2
  -3  -3   3    1.63    0.18   1
   3   3  -3    1.67    0.25  -2
   3  -3  -3    1.67    0.25   1
  -3   3   3    1.48    0.12  -2
  -3  -3   3    1.48    0.12   1
  -3   3   3    1.11    0.12  -2
  -3  -3   3    1.11    0.12   1
   3  -3  -3    1.60    0.20  -2
   3   3  -3    1.60    0.20   1
   3  -3  -3    2.00    0.24  -2
   3   3  -3    2.00    0.24   1
  -3  -3   3    1.33    0.14  -2
  -3   3   3    1.33    0.14   1
  -3  -3   3    1.00    0.10  -2
  -3   3   3    1.00    0.10   1
  -3  -3   3    1.35    0.18  -2
  -3   3   3    1.35    0.18   1
   2  -3  -3   53.24    2.82   1
   2  -3  -3   57.20    2.81   1
  -2  -3   3   55.97    2.81   1
  -2  -3   3   56.01    3.35   1
   2  -3  -3   55.53    3.35   1
  -2  -3   3   58.46    2.79   1
  -2  -3   3   56.13    2.81   1
   2  -3  -3   61.32    2.82   1
  -2  -3   3   61.25    2.79   1
  -2   3   3   63.14    2.82   1
   2   3  -3   57.47    2.82   1
   2   3  -3   54.07    2.79   1
  -2   3   3   56.18    3.35   1
  -2   3   3   58.70    2.77   1
   2   3  -3   56.14    2.78   1
   2   3  -3   54.52    2.81   1
   2   3  -3   53.03    3.35   1
  -2   3   3   59.97    2.82   1
  -2   3   3   58.34    2.81   1
  -1  -3   3    8.35    0.44   1
   1  -3  -3    8.18    0.44   1
   1  -3  -3    8.22    0.45   1
   1  -3  -3    8.85    0.44   1
  -1  -3   3    8.32    0.44   1
  -1  -3   3    8.25    0.53   1
   1  -3  -3    7.98    0.53   1
  -1  -3   3    8.39    0.43   1
   1   3  -3    8.50    0.43   1
   1   3  -3    8.29    0.44   1
  -1   3   3    8.52    0.44   1
  -1   3   3    7.87    0.44   1
   1   3  -3    8.77    0.41   1
   1   3  -3    7.77    0.44   1
  -1   3   3    8.39    0.53   1
   1   3  -3    7.84    0.54   1
   0  -3   3    0.02    0.01   1
   0  -3  -3    0.09    0.07   1
   0  -3  -3    0.02    0.03   1
   0  -3  -3    0.05    0.10   1
   0  -3   3    0.02    0.04   1
   0  -3  -3    0.07    0.05   1
   0   3  -3   -0.02    0.04   1
   0   3  -3    0.11    0.05   1
   0   3  -3    0.12    0.06   1
   0   3   3   -0.01    0.02   1
   0   3   3    0.01    0.04   1
  -1  -3  -3   55.62    2.55   1
   1  -3   3   50.21    3.18   1
  -1  -3  -3   50.82    3.13   1
  -1  -3  -3   53.04    2.55   1
  -1   3  -3   51.47    2.61   1
   1   3   3   56.86    2.56   1
   1   3   3   51.17    3.18   1
  -1   3  -3   50.57    3.17   1
   1   3   3   53.72    2.56   1
   2  -3   3   19.00    0.91   1
  -2  -3  -3   16.65    1.14   1
   2  -3   3   16.96    1.17   1
  -2  -3  -3   18.35    0.90   1
  -2  -3  -3   18.46    0.91   1
   2  -3   3   19.11    0.91   1
  -2   3  -3   18.80    0.97   1
  -2   3  -3   17.84    0.90   1
  -2   3  -3   18.83    0.90   1
   2   3   3   18.91    0.91   1
   2   3   3   16.93    1.18   1
   3  -3   3    0.67    0.12   1
  -3  -3  -3    0.75    0.11   1
  -3  -3  -3    0.52    0.17   1
   3  -3   3    1.38    0.31   1
   3  -3   3    0.85    0.14   1
  -3  -3  -3    0.59    0.16   1
  -3   3  -3    1.01    0.20   1
   3   3   3    1.06    0.28   1
  -3   3  -3    0.96    0.14   1
   3   3   3    0.56    0.14   1
   3   3   3    0.79    0.12   1
  -3   3  -3    0.89    0.11   1
   0   3  -7    0.82    0.31  -2
   4  -3   3    0.82    0.31   1
   0   3   7    0.66    0.21  -2
  -4  -3  -3    0.66    0.21   1
   0   3  -7    0.32    0.14  -2
   4  -3   3    0.32    0.14   1
   0  -3  -7    0.40    0.14  -2
   4   3   3    0.40    0.14   1
   0  -3  -7    0.66    0.31  -2
   4   3   3    0.66    0.31   1
   0  -3   7    0.56    0.21  -2
  -4   3  -3    0.56    0.21   1
  -5  -3  -3    3.19    0.39   1
   5  -3   3    2.79    0.33   1
   5  -3   3    4.05    0.63   1
  -5   3  -3    2.85    0.37   1
   5   3   3    2.80    0.56   1
  -6  -4   3    0.19    0.16   1
   6  -4  -3    0.25    0.26   1
  -6  -4   3    0.25    0.19   1
  -6   4   3    0.42    0.18   1
  -6   4   3    0.35    0.20   1
  -5  -4   3    9.69    0.59   1
   5  -4  -3    9.93    0.66   1
  -5  -4   3   10.90    0.65   1
   5   4  -3   10.49    0.66   1
  -5   4   3   11.00    0.64   1
  -5   4   3    9.69    0.60   1
   5   4  -3    9.82    0.82   1
   4  -4  -3    0.72    0.26   1
  -4  -4   3    0.65    0.12   1
   4  -4  -3    0.81    0.19   1
  -4   4   3    0.59    0.14   1
  -4   4   3    1.03    0.17   1
   3   4  -3   13.35    0.71  -2
   3  -4  -3   13.35    0.71   1
  -3   4   3   11.94    0.65  -2
  -3  -4   3   11.94    0.65   1
   3   4  -3   14.07    0.86  -2
   3  -4  -3   14.07    0.86   1
  -3   4   3   12.25    0.65  -2
  -3  -4   3   12.25    0.65   1
  -3   4   3   12.11    0.68  -2
  -3  -4   3   12.11    0.68   1
   3   4  -3   11.17    0.67  -2
   3  -4  -3   11.17    0.67   1
   3  -4  -3   13.56    0.71  -2
   3   4  -3   13.56    0.71   1
  -3  -4   3   11.68    0.68  -2
  -3   4   3   11.68    0.68   1
  -3  -4   3   12.55    0.67  -2
  -3   4   3   12.55    0.67   1
   3  -4  -3   14.19    0.84  -2
   3   4  -3   14.19    0.84   1
  -2  -4   3   80.83    3.83   1
  -2  -4   3   78.45    4.56   1
   2  -4  -3   75.92    4.56   1
   2  -4  -3   82.50    3.84   1
  -2  -4   3   80.68    3.80   1
  -2  -4   3   74.21    3.83   1
   2  -4  -3   74.99    3.83   1
  -2  -4   3   85.00    3.81   1
   2  -4  -3   72.79    3.84   1
  -2   4   3   76.93    4.56   1
  -2   4   3   80.20    3.83   1
   2   4  -3   78.31    3.83   1
   2   4  -3   76.12    3.80   1
  -2   4   3   85.87    3.84   1
  -2   4   3   79.09    3.84   1
  -2   4   3   78.24    3.78   1
   2   4  -3   75.09    4.56   1
   2   4  -3   73.13    3.83   1
   1  -4  -3    0.80    0.10   1
  -1  -4   3    1.22    0.14   1
   1  -4  -3    0.77    0.12   1
   1  -4  -3    1.02    0.10   1
  -1  -4   3    1.21    0.11   1
   1  -4  -3    1.23    0.15   1
  -1   4   3    0.86    0.10   1
  -1   4   3    0.66    0.10   1
   1   4  -3    0.97    0.11   1
   1   4  -3    1.09    0.15   1
   1   4  -3    0.88    0.11   1
   0  -4  -3    9.89    0.53   1
   0  -4  -3    9.59    0.69   1
   0  -4   3   11.43    0.53   1
   0  -4  -3   11.74    0.54   1
   0  -4  -3   10.59    0.65   1
   0  -4  -3    9.59    0.68   1
   0   4  -3   10.75    0.53   1
   0   4  -3   10.72    0.53   1
   0   4  -3   10.92    0.55   1
   0   4  -3   10.09    0.54   1
   0   4   3   10.80    0.53   1
   0   4   3   10.13    0.54   1
   1  -4   3   14.96    0.69   1
  -1  -4  -3   12.76    0.89   1
  -1  -4  -3   13.45    0.69   1
  -1  -4  -3   13.99    0.69   1
   1  -4   3   14.79    0.69   1
   1   4   3   12.31    0.70   1
   1   4   3   13.28    0.91   1
  -1   4  -3   15.28    0.69   1
  -1   4  -3   13.65    0.73   1
  -1   4  -3   14.48    0.69   1
  -1   4  -3   14.02    0.90   1
   1   4   3   13.68    0.69   1
   2  -4   3    1.38    0.14   1
  -2  -4  -3    1.94    0.23   1
  -2  -4  -3    1.54    0.12   1
  -2  -4  -3    1.37    0.12   1
   2  -4   3    2.12    0.27   1
   2  -4   3    1.46    0.12   1
   2   4   3    1.79    0.14   1
  -2   4  -3    1.44    0.11   1
   2   4   3    1.92    0.28   1
  -2   4  -3    1.86    0.20   1
  -2   4  -3    1.41    0.12   1
   3  -4   3    2.41    0.21   1
   3  -4   3    2.42    0.36   1
  -3  -4  -3    2.06    0.17   1
   3  -4   3    2.26    0.18   1
  -3  -4  -3    2.39    0.28   1
  -3   4  -3    2.10    0.22   1
  -3   4  -3    2.19    0.17   1
  -3   4  -3    2.13    0.24   1
   3   4   3    2.30    0.19   1
   3   4   3    2.00    0.21   1
   3   4   3    2.59    0.38   1
   0   4  -7    2.02    0.25  -2
   4  -4   3    2.02    0.25   1
   0   4  -7    3.09    0.46  -2
   4  -4   3    3.09    0.46   1
   0   4   7    2.33    0.31  -2
  -4  -4  -3    2.33    0.31   1
   0  -4   7    2.44    0.28  -2
  -4   4  -3    2.44    0.28   1
   0  -4  -7    2.69    0.48  -2
   4   4   3    2.69    0.48   1
   0  -4  -7    2.17    0.26  -2
   4   4   3    2.17    0.26   1
  -5  -4  -3    0.35    0.24   1
   5  -4   3    0.45    0.40   1
   5   4   3    0.48    0.40   1
  -5   4  -3    0.44    0.25   1
  -6  -5   3    0.47    0.21   1
   6  -5  -3    0.61    0.27   1
  -6  -5   3    0.54    0.18   1
  -6   5   3    0.68    0.22   1
   6   5  -3    0.09    0.31   1
  -6   5   3    0.44    0.19   1
  -5  -5   3    1.49    0.20   1
   5  -5  -3    1.74    0.28   1
  -5   5   3    1.29    0.22   1
  -5   5   3    1.60    0.24   1
  -4  -5   3    1.48    0.21   1
   4  -5  -3    1.24    0.20   1
  -4  -5   3    1.28    0.15   1
   4  -5  -3    1.45    0.23   1
   4  -5  -3    1.49    0.32   1
   4   5  -3    1.62    0.24   1
  -4   5   3    1.48    0.19   1
  -4   5   3    1.60    0.21   1
   4   5  -3    1.53    0.30   1
   3   5  -3    2.08    0.27  -2
   3  -5  -3    2.08    0.27   1
  -3   5   3    1.69    0.19  -2
  -3  -5   3    1.69    0.19   1
  -3   5   3    1.66    0.14  -2
  -3  -5   3    1.66    0.14   1
   3   5  -3    1.85    0.21  -2
   3  -5  -3    1.85    0.21   1
  -3  -5   3    1.71    0.17  -2
  -3   5   3    1.71    0.17   1
   3  -5  -3    2.16    0.22  -2
   3   5  -3    2.16    0.22   1
   3  -5  -3    2.41    0.26  -2
   3   5  -3    2.41    0.26   1
  -3  -5   3    1.74    0.19  -2
  -3   5   3    1.74    0.19   1
  -2  -5   3   33.02    1.59   1
   2  -5  -3   28.32    1.89   1
   2  -5  -3   28.56    1.59   1
  -2  -5   3   32.59    1.59   1
   2  -5  -3   30.04    1.58   1
  -2  -5   3   31.97    1.88   1
  -2  -5   3   34.01    1.56   1
  -2  -5   3   34.91    1.54   1
  -2   5   3   31.60    1.58   1
  -2   5   3   28.82    1.88   1
   2   5  -3   33.03    1.56   1
   2   5  -3   33.34    1.90   1
  -2   5   3   29.66    1.59   1
   2   5  -3   31.06    1.59   1
  -2   5   3   32.70    1.58   1
   1  -5  -3   29.27    1.46   1
  -1  -5   3   29.54    1.45   1
   1  -5  -3   27.01    1.46   1
  -1  -5   3   30.02    1.44   1
   1  -5  -3   27.73    1.73   1
   1  -5  -3   28.33    1.77   1
   1  -5  -3   28.92    1.45   1
  -1  -5   3   30.81    1.45   1
  -1   5   3   27.08    1.45   1
  -1   5   3   29.61    1.73   1
   1   5  -3   29.03    1.74   1
   1   5  -3   29.93    1.44   1
  -1   5   3   29.78    1.45   1
   1   5  -3   30.28    1.45   1
   1   5  -3   30.88    1.46   1
   0  -5  -3    5.07    0.31   1
   0  -5   3    5.96    0.31   1
   0  -5  -3    5.77    0.38   1
   0  -5  -3    6.03    0.44   1
   0  -5  -3    5.69    0.43   1
   0  -5  -3    6.15    0.33   1
   0  -5   3    6.26    0.32   1
   0   5  -3    6.03    0.32   1
   0   5  -3    6.27    0.31   1
   0   5   3    5.50    0.32   1
   0   5   3    5.74    0.33   1
   0   5  -3    6.62    0.34   1
   0   5  -3    5.82    0.32   1
  -1  -5  -3   32.99    2.12   1
   1  -5   3   36.75    1.72   1
  -1  -5  -3   34.55    1.72   1
   1  -5   3   37.10    1.71   1
  -1  -5  -3   33.44    1.72   1
   1   5   3   32.89    2.15   1
  -1   5  -3   36.03    1.75   1
  -1   5  -3   35.61    1.76   1
  -1   5  -3   36.11    1.71   1
   1   5   3   34.09    1.72   1
  -1   5  -3   35.13    2.14   1
  -1   5  -3   36.31    1.71   1
  -2  -5  -3    9.37    0.66   1
   2  -5   3    9.88    0.69   1
  -2  -5  -3    9.40    0.50   1
  -2  -5  -3    8.53    0.49   1
   2  -5   3   10.22    0.51   1
  -2   5  -3   10.42    0.56   1
   2   5   3    9.90    0.50   1
  -2   5  -3   10.23    0.49   1
   2   5   3    9.12    0.69   1
   2   5   3    7.92    0.50   1
  -2   5  -3   10.16    0.49   1
   3  -5   3    1.59    0.16   1
  -3  -5  -3    2.34    0.28   1
  -3  -5  -3    1.86    0.16   1
   3  -5   3    1.55    0.20   1
   3  -5   3    2.50    0.38   1
   3   5   3    2.37    0.36   1
   3   5   3    1.50    0.19   1
  -3   5  -3    1.63    0.15   1
  -3   5  -3    2.17    0.26   1
  -3   5  -3    1.58    0.20   1
   3   5   3    1.77    0.18   1
   0   5  -7    2.80    0.28  -2
   4  -5   3    2.80    0.28   1
   0   5   7    3.51    0.34  -2
  -4  -5  -3    3.51    0.34   1
   0   5   7    2.20    0.33  -2
  -4  -5  -3    2.20    0.33   1
   0   5  -7    2.85    0.44  -2
   4  -5   3    2.85    0.44   1
   0  -5  -7    3.56    0.54  -2
   4   5   3    3.56    0.54   1
   0  -5   7    3.27    0.33  -2
  -4   5  -3    3.27    0.33   1
   0  -5  -7    2.49    0.27  -2
   4   5   3    2.49    0.27   1
  -5  -5  -3    0.14    0.25   1
   5  -5   3    0.94    0.43   1
  -5   5  -3    0.37    0.24   1
   5   5   3    0.16    0.40   1
   6  -6  -3    0.01    0.23   1
  -6  -6   3   -0.10    0.18   1
   6   6  -3    0.00    0.30   1
  -6   6   3   -0.01    0.14   1
  -5  -6   3    0.55    0.15   1
   5  -6  -3    1.17    0.26   1
  -5  -6   3    0.63    0.20   1
  -5   6   3    0.43    0.17   1
   5   6  -3    0.79    0.29   1
  -5   6   3    0.40    0.19   1
   5   6  -3    0.81    0.25   1
   4  -6  -3    1.45    0.32   1
   4  -6  -3    2.22    0.28   1
   4  -6  -3    1.62    0.22   1
  -4  -6   3    1.33    0.15   1
  -4   6   3    1.49    0.20   1
   4   6  -3    1.38    0.24   1
  -4   6   3    1.88    0.24   1
   4   6  -3    1.47    0.28   1
   3   6  -3    4.79    0.34  -2
   3  -6  -3    4.79    0.34   1
  -3   6   3    4.32    0.32  -2
  -3  -6   3    4.32    0.32   1
   3   6  -3    5.29    0.38  -2
   3  -6  -3    5.29    0.38   1
  -3   6   3    4.16    0.26  -2
  -3  -6   3    4.16    0.26   1
   3   6  -3    5.09    0.42  -2
   3  -6  -3    5.09    0.42   1
   3  -6  -3    4.16    0.32  -2
   3   6  -3    4.16    0.32   1
  -3  -6   3    4.39    0.30  -2
  -3   6   3    4.39    0.30   1
   3  -6  -3    4.70    0.39  -2
   3   6  -3    4.70    0.39   1
  -3  -6   3    4.22    0.31  -2
  -3   6   3    4.22    0.31   1
   2  -6  -3    5.80    0.38   1
  -2  -6   3    6.15    0.34   1
  -2  -6   3    5.71    0.43   1
   2  -6  -3    6.22    0.35   1
   2  -6  -3    6.98    0.46   1
  -2  -6   3    5.28    0.36   1
   2  -6  -3    5.76    0.45   1
  -2  -6   3    5.16    0.37   1
  -2   6   3    6.09    0.43   1
  -2   6   3    5.75    0.37   1
  -2   6   3    6.47    0.37   1
   2   6  -3    7.21    0.45   1
   2   6  -3    5.70    0.37   1
   2   6  -3    6.67    0.35   1
  -2   6   3    6.27    0.35   1
  -1  -6   3    0.73    0.09   1
   1  -6  -3    0.52    0.08   1
   1  -6  -3    0.69    0.09   1
   1  -6  -3    0.48    0.12   1
   1  -6  -3    0.75    0.12   1
  -1  -6   3    0.58    0.09   1
  -1  -6   3    0.52    0.09   1
   1  -6  -3    0.70    0.12   1
   1   6  -3    0.77    0.13   1
  -1   6   3    0.56    0.10   1
   1   6  -3    0.76    0.10   1
   1   6  -3    0.53    0.09   1
   1   6  -3    0.93    0.10   1
  -1   6   3    0.48    0.11   1
  -1   6   3    0.62    0.09   1
   0  -6  -3  109.35    6.72   1
   0  -6  -3  109.49    6.86   1
   0  -6  -3  108.60    6.93   1
   0  -6   3  114.43    5.66   1
   0  -6   3  129.63    5.67   1
   0  -6  -3  116.60    5.67   1
   0  -6   3  124.97    5.66   1
   0  -6  -3  115.17    5.66   1
   0   6  -3  121.44    5.67   1
   0   6   3  114.07    5.66   1
   0   6   3  112.50    5.67   1
   0   6  -3  122.03    5.66   1
   0   6  -3  118.14    5.66   1
   0   6  -3  117.51    5.69   1
  -1  -6  -3   37.57    1.86   1
  -1  -6  -3   38.18    2.29   1
   1  -6   3   38.70    1.86   1
  -1  -6  -3   38.43    1.86   1
  -1  -6  -3   38.21    2.21   1
  -1   6  -3   37.50    2.30   1
  -1   6  -3   37.20    1.89   1
   1   6   3   39.08    1.86   1
  -1   6  -3   38.97    1.86   1
   1   6   3   38.37    2.32   1
  -1   6  -3   35.74    1.88   1
   1   6   3   38.91    1.87   1
  -1   6  -3   35.59    1.85   1
   2  -6   3    1.91    0.27   1
  -2  -6  -3    1.69    0.14   1
   2  -6   3    1.54    0.16   1
  -2  -6  -3    1.65    0.25   1
  -2   6  -3    1.16    0.12   1
  -2   6  -3    2.06    0.21   1
   2   6   3    1.50    0.16   1
  -2   6  -3    1.37    0.12   1
   2   6   3    2.00    0.15   1
   2   6   3    1.98    0.30   1
   3  -6   3    0.19    0.23   1
   3  -6   3   -0.02    0.09   1
  -3  -6  -3    0.25    0.14   1
   3  -6   3    0.04    0.13   1
  -3  -6  -3    0.18    0.14   1
   3   6   3    0.10    0.11   1
   3   6   3    0.36    0.25   1
  -3   6  -3    0.07    0.08   1
  -3   6  -3    0.24    0.16   1
   3   6   3   -0.09    0.11   1
  -3   6  -3    0.07    0.09   1
   0   6  -7    1.02    0.32  -2
   4  -6   3    1.02    0.32   1
   0   6   7    0.66    0.21  -2
  -4  -6  -3    0.66    0.21   1
   0   6  -7    0.54    0.16  -2
   4  -6   3    0.54    0.16   1
   0   6   7    0.07    0.19  -2
  -4  -6  -3    0.07    0.19   1
   0  -6   7    0.99    0.21  -2
  -4   6  -3    0.99    0.21   1
   0  -6  -7    0.52    0.16  -2
   4   6   3    0.52    0.16   1
   0  -6  -7    1.10    0.35  -2
   4   6   3    1.10    0.35   1
   5  -6   3    0.17    0.16   1
   5  -6   3    0.24    0.37   1
  -5  -6  -3    0.54    0.27   1
   5   6   3    0.32    0.41   1
  -5   6  -3    0.28    0.24   1
  -6  -7   3    0.04    0.19   1
   6   7  -3   -0.21    0.27   1
  -6   7   3    0.10    0.19   1
  -6   7   3   -0.04    0.16   1
  -5  -7   3    0.36    0.19   1
  -5  -7   3    0.34    0.13   1
   5  -7  -3    0.62    0.23   1
  -5   7   3    0.34    0.18   1
   5   7  -3    0.23    0.25   1
  -5   7   3    0.35    0.16   1
   5   7  -3    0.16    0.22   1
  -4  -7   3    2.05    0.25   1
   4  -7  -3    2.19    0.28   1
  -4  -7   3    1.88    0.17   1
   4  -7  -3    2.07    0.37   1
  -4   7   3    1.60    0.20   1
   4   7  -3    1.75    0.29   1
  -4   7   3    1.99    0.25   1
   4   7  -3    2.59    0.30   1
   3   7  -3    2.40    0.31  -2
   3  -7  -3    2.40    0.31   1
  -3   7   3    1.73    0.21  -2
  -3  -7   3    1.73    0.21   1
   3   7  -3    2.10    0.24  -2
   3  -7  -3    2.10    0.24   1
  -3   7   3    1.82    0.14  -2
  -3  -7   3    1.82    0.14   1
   3   7  -3    2.36    0.26  -2
   3  -7  -3    2.36    0.26   1
   3  -7  -3    2.36    0.25  -2
   3   7  -3    2.36    0.25   1
   3  -7  -3    2.31    0.27  -2
   3   7  -3    2.31    0.27   1
  -3  -7   3    2.05    0.19  -2
  -3   7   3    2.05    0.19   1
  -3  -7   3    1.88    0.21  -2
  -3   7   3    1.88    0.21   1
   2  -7  -3   12.18    0.64   1
   2  -7  -3   12.56    0.67   1
  -2  -7   3   11.39    0.65   1
   2  -7  -3   12.51    0.79   1
  -2  -7   3   12.05    0.65   1
   2  -7  -3   11.78    0.78   1
  -2  -7   3   11.95    0.63   1
   2   7  -3   10.92    0.77   1
   2   7  -3   11.09    0.65   1
   2   7  -3   11.83    0.63   1
  -2   7   3   13.35    0.65   1
  -2   7   3   11.95    0.77   1
  -2   7   3   12.45    0.65   1
  -2   7   3   11.93    0.65   1
   1  -7  -3    1.24    0.15   1
   1  -7  -3    1.31    0.19   1
   1  -7  -3    0.88    0.11   1
   1  -7  -3    0.77    0.11   1
  -1   7   3    1.01    0.14   1
   1   7  -3    1.62    0.18   1
  -1   7   3    1.01    0.13   1
   1   7  -3    1.44    0.13   1
   1   7  -3    1.42    0.13   1
   0  -7   3   16.92    0.85   1
   0  -7  -3   17.29    0.84   1
   0  -7  -3   17.16    1.08   1
   0  -7   3   18.67    0.87   1
   0  -7   3   16.22    0.87   1
   0  -7  -3   16.86    1.07   1
   0  -7  -3   16.25    0.85   1
   0  -7  -3   16.97    1.01   1
   0  -7  -3   18.10    0.87   1
   0   7   3   15.99    0.87   1
   0   7  -3   17.60    0.87   1
   0   7  -3   17.17    0.87   1
   0   7   3   16.78    0.86   1
   0   7  -3   16.43    0.86   1
   0   7  -3   16.92    0.86   1
   1  -7   3   21.10    1.03   1
  -1  -7  -3   20.72    1.21   1
   1  -7   3   17.39    1.01   1
  -1  -7  -3   22.31    1.03   1
  -1  -7  -3   20.98    1.02   1
  -1  -7  -3   20.99    1.29   1
  -1   7  -3   19.20    1.02   1
   1   7   3   21.20    1.31   1
   1   7   3   21.70    1.03   1
   1   7   3   21.15    1.04   1
  -1   7  -3   20.16    1.05   1
  -1   7  -3   18.68    1.05   1
  -1   7  -3   21.11    1.02   1
   2  -7   3    1.04    0.12   1
  -2  -7  -3    1.29    0.14   1
   2  -7   3    1.23    0.15   1
  -2  -7  -3    1.91    0.27   1
   2  -7   3    1.00    0.23   1
  -2   7  -3    0.90    0.11   1
   2   7   3    1.49    0.28   1
  -2   7  -3    0.94    0.16   1
   2   7   3    1.56    0.15   1
   2   7   3    1.25    0.16   1
  -2   7  -3    1.60    0.19   1
  -3  -7  -3    9.73    0.55   1
   3  -7   3   10.63    0.55   1
   3  -7   3    9.77    0.76   1
  -3  -7  -3   10.00    0.71   1
  -3  -7  -3    9.10    0.66   1
   3  -7   3   10.28    0.57   1
  -3   7  -3   11.14    0.61   1
   3   7   3    9.68    0.78   1
   3   7   3    9.33    0.56   1
  -3   7  -3   10.09    0.54   1
   3   7   3    9.97    0.56   1
   0   7  -7    1.27    0.34  -2
   4  -7   3    1.27    0.34   1
   0   7   7    0.13    0.20  -2
  -4  -7  -3    0.13    0.20   1
   0   7   7    0.74    0.22  -2
  -4  -7  -3    0.74    0.22   1
   0   7  -7    0.78    0.18  -2
   4  -7   3    0.78    0.18   1
   0  -7  -7    0.54    0.16  -2
   4   7   3    0.54    0.16   1
   0  -7   7    1.02    0.23  -2
  -4   7  -3    1.02    0.23   1
   0  -7  -7    1.31    0.39  -2
   4   7   3    1.31    0.39   1
  -5  -7  -3    0.66    0.28   1
   5  -7   3    0.32    0.36   1
   5   7   3    0.33    0.41   1
  -5   7  -3    0.33    0.23   1
   6  -8  -3   -0.06    0.26   1
  -6  -8   3   -0.03    0.19   1
   6   8  -3   -0.08    0.29   1
  -6   8   3    0.05    0.19   1
  -6   8   3    0.05    0.17   1
   6   8  -3   -0.05    0.27   1
  -5  -8   3    0.42    0.14   1
  -5  -8   3    0.38    0.21   1
   5  -8  -3    0.82    0.25   1
   5   8  -3    0.44    0.24   1
   5   8  -3    0.50    0.27   1
  -5   8   3    0.57    0.17   1
  -5   8   3    0.52    0.19   1
   4  -8  -3    0.80    0.21   1
   4  -8  -3    0.80    0.28   1
  -4  -8   3    0.75    0.12   1
  -4  -8   3    0.59    0.16   1
  -4   8   3    0.76    0.18   1
  -4   8   3    0.79    0.17   1
   4   8  -3    0.50    0.18   1
   4   8  -3    0.93    0.23   1
   3   8  -3    3.07    0.31  -2
   3  -8  -3    3.07    0.31   1
  -3   8   3    2.99    0.19  -2
  -3  -8   3    2.99    0.19   1
   3   8  -3    2.99    0.36  -2
   3  -8  -3    2.99    0.36   1
  -3   8   3    2.93    0.26  -2
  -3  -8   3    2.93    0.26   1
   3   8  -3    3.16    0.29  -2
   3  -8  -3    3.16    0.29   1
  -3  -8   3    2.75    0.18  -2
  -3   8   3    2.75    0.18   1
   3  -8  -3    2.98    0.27  -2
   3   8  -3    2.98    0.27   1
  -3  -8   3    3.11    0.26  -2
  -3   8   3    3.11    0.26   1
   3  -8  -3    3.25    0.31  -2
   3   8  -3    3.25    0.31   1
  -3  -8   3    3.10    0.23  -2
  -3   8   3    3.10    0.23   1
   2  -8  -3    0.32    0.13   1
  -2  -8   3    0.15    0.10   1
  -2  -8   3    0.36    0.10   1
  -2  -8   3    0.36    0.09   1
   2   8  -3    0.47    0.13   1
  -2   8   3    0.28    0.11   1
  -2   8   3    0.25    0.09   1
  -2   8   3    0.28    0.11   1
   2   8  -3    0.28    0.11   1
   1  -8  -3    9.66    0.62   1
   1  -8  -3    9.28    0.52   1
  -1  -8   3   11.14    0.54   1
   1  -8  -3    9.54    0.66   1
   1  -8  -3   10.15    0.54   1
  -1  -8   3   10.10    0.52   1
   1  -8  -3    8.93    0.51   1
   1   8  -3    9.94    0.52   1
  -1   8   3    9.45    0.53   1
  -1   8   3    9.32    0.52   1
   1   8  -3   10.25    0.53   1
   1   8  -3    9.77    0.52   1
   1   8  -3    9.25    0.63   1
   0  -8   3   17.40    0.91   1
   0  -8   3   18.27    0.92   1
   0  -8  -3   18.41    0.93   1
   0  -8  -3   17.84    1.14   1
   0  -8  -3   18.75    1.07   1
   0  -8  -3   19.24    0.91   1
   0  -8  -3   18.93    0.90   1
   0  -8   3   16.39    0.92   1
   0  -8  -3   18.39    1.14   1
   0   8   3   18.87    1.07   1
   0   8   3   19.27    0.92   1
   0   8  -3   18.36    0.92   1
   0   8  -3   17.87    0.91   1
   0   8  -3   16.60    0.90   1
   0   8  -3   16.02    0.92   1
   0   8   3   17.86    0.92   1
  -1  -8  -3    3.46    0.23   1
  -1  -8  -3    3.58    0.33   1
   1  -8   3    3.53    0.21   1
  -1  -8  -3    3.29    0.23   1
   1  -8   3    3.71    0.22   1
  -1  -8  -3    3.22    0.21   1
  -1   8  -3    3.36    0.25   1
   1   8   3    3.30    0.22   1
  -1   8  -3    3.45    0.21   1
   1   8   3    3.56    0.34   1
  -1   8  -3    3.50    0.22   1
  -1   8  -3    3.14    0.23   1
   1   8   3    3.29    0.23   1
   2  -8   3   12.75    0.84   1
  -2  -8  -3   12.70    0.84   1
   2  -8   3   11.74    0.64   1
   2  -8   3   12.28    0.63   1
  -2  -8  -3   11.27    0.64   1
   2   8   3   11.58    0.65   1
   2   8   3   11.68    0.64   1
  -2   8  -3   13.28    0.68   1
   2   8   3   12.04    0.85   1
  -2   8  -3   11.43    0.62   1
  -2   8  -3   12.57    0.67   1
   3  -8   3    5.96    0.39   1
  -3  -8  -3    5.03    0.36   1
   3  -8   3    7.02    0.55   1
  -3  -8  -3    5.70    0.50   1
  -3   8  -3    7.00    0.43   1
  -3   8  -3    5.73    0.36   1
   3   8   3    6.34    0.57   1
   3   8   3    5.45    0.37   1
   0   8   7    1.80    0.32  -2
  -4  -8  -3    1.80    0.32   1
   0   8  -7    2.91    0.45  -2
   4  -8   3    2.91    0.45   1
   0   8   7    2.45    0.32  -2
  -4  -8  -3    2.45    0.32   1
   0  -8   7    2.06    0.27  -2
  -4   8  -3    2.06    0.27   1
   0  -8  -7    2.16    0.26  -2
   4   8   3    2.16    0.26   1
   0  -8  -7    3.30    0.52  -2
   4   8   3    3.30    0.52   1
  -5  -8  -3    0.28    0.24   1
   5  -8   3    0.56    0.38   1
  -5   8  -3    0.08    0.23   1
   5   8   3   -0.06    0.39   1
  -6  -9   3   -0.08    0.19   1
   6   9  -3   -0.21    0.28   1
  -6   9   3    0.16    0.20   1
   6   9  -3    0.12    0.27   1
  -6   9   3    0.04    0.17   1
  -5  -9   3    0.38    0.13   1
   5  -9  -3    1.34    0.28   1
  -5  -9   3    0.32    0.21   1
  -5   9   3    0.34    0.17   1
   5   9  -3    0.45    0.23   1
  -5   9   3    0.37    0.19   1
   5   9  -3    0.50    0.25   1
   4  -9  -3    0.89    0.22   1
  -4  -9   3    0.67    0.12   1
  -4  -9   3    0.39    0.18   1
   4  -9  -3    0.50    0.16   1
  -4   9   3    0.63    0.17   1
   4   9  -3    0.76    0.23   1
  -4   9   3    0.74    0.17   1
   4   9  -3    0.80    0.20   1
   3   9  -3    0.27    0.18  -2
   3  -9  -3    0.27    0.18   1
   3   9  -3    0.16    0.13  -2
   3  -9  -3    0.16    0.13   1
   3   9  -3    0.36    0.15  -2
   3  -9  -3    0.36    0.15   1
  -3   9   3    0.08    0.12  -2
  -3  -9   3    0.08    0.12   1
  -3   9   3    0.10    0.06  -2
  -3  -9   3    0.10    0.06   1
   3  -9  -3    0.24    0.15  -2
   3   9  -3    0.24    0.15   1
  -3  -9   3    0.28    0.12  -2
  -3   9   3    0.28    0.12   1
  -3  -9   3    0.16    0.06  -2
  -3   9   3    0.16    0.06   1
   3  -9  -3    0.23    0.13  -2
   3   9  -3    0.23    0.13   1
  -3  -9   3    0.29    0.12  -2
  -3   9   3    0.29    0.12   1
  -2  -9   3   49.85    2.46   1
   2  -9  -3   48.05    2.94   1
   2  -9  -3   45.97    2.47   1
  -2  -9   3   54.18    2.47   1
   2  -9  -3   52.06    2.98   1
   2   9  -3   49.52    2.44   1
   2   9  -3   50.21    2.46   1
   2   9  -3   46.17    2.92   1
  -2   9   3   50.24    2.40   1
  -2   9   3   46.93    2.46   1
  -2   9   3   53.54    2.47   1
  -2   9   3   46.56    2.94   1
  -2   9   3   51.49    2.46   1
   1  -9  -3   16.36    0.85   1
   1  -9  -3   17.09    0.87   1
   1  -9  -3   16.41    1.00   1
  -1  -9   3   17.09    0.85   1
   1  -9  -3   16.42    1.05   1
   1  -9  -3   16.14    0.80   1
  -1  -9   3   16.81    0.84   1
  -1  -9   3   16.40    0.85   1
  -1   9   3   16.05    0.85   1
   1   9  -3   15.97    0.84   1
   1   9  -3   16.86    0.85   1
   1   9  -3   15.06    1.01   1
  -1   9   3   17.06    1.00   1
  -1   9   3   16.21    0.86   1
   0  -9  -3   16.93    0.85   1
   0  -9  -3   17.12    1.08   1
   0  -9   3   17.25    0.87   1
   0  -9  -3   16.67    1.02   1
   0  -9  -3   16.47    1.09   1
   0  -9   3   16.65    0.86   1
   0  -9  -3   17.15    0.89   1
   0  -9   3   18.46    0.88   1
   0  -9  -3   16.94    0.87   1
   0   9  -3   17.36    0.88   1
   0   9   3   16.91    0.88   1
   0   9   3   17.22    1.01   1
   0   9  -3   16.53    0.88   1
   0   9  -3   17.52    0.87   1
   0   9  -3   17.08    0.86   1
   0   9   3   17.53    0.88   1
  -1  -9  -3    9.56    0.63   1
   1  -9   3   10.75    0.56   1
   1  -9   3   10.47    0.58   1
  -1  -9  -3   10.30    0.56   1
   1  -9   3   10.94    0.57   1
  -1  -9  -3   10.88    0.74   1
  -1  -9  -3   11.23    0.58   1
  -1   9  -3   10.77    0.58   1
  -1   9  -3   11.14    0.57   1
   1   9   3   11.08    0.58   1
   1   9   3   10.91    0.57   1
  -1   9  -3   10.38    0.56   1
   1   9   3   10.71    0.74   1
  -1   9  -3   10.88    0.59   1
  -2  -9  -3   47.15    2.88   1
   2  -9   3   49.14    2.43   1
  -2  -9  -3   49.85    2.44   1
   2  -9   3   49.44    3.02   1
   2  -9   3   51.48    2.45   1
  -2  -9  -3   50.04    3.00   1
   2   9   3   51.48    2.45   1
  -2   9  -3   49.59    2.47   1
   2   9   3   47.86    2.45   1
  -2   9  -3   50.53    2.48   1
   2   9   3   47.07    3.03   1
  -2   9  -3   50.29    2.43   1
  -3  -9  -3   13.07    0.92   1
   3  -9   3   12.58    0.73   1
   3  -9   3   13.37    0.94   1
  -3  -9  -3   13.05    0.71   1
  -3   9  -3   13.81    0.77   1
   3   9   3   13.53    0.72   1
   3   9   3   12.69    0.96   1
  -3   9  -3   13.87    0.77   1
   0   9  -7    0.53    0.29  -2
   4  -9   3    0.53    0.29   1
   0   9  -7    0.56    0.17  -2
   4  -9   3    0.56    0.17   1
   0   9   7   -0.10    0.22  -2
  -4  -9  -3   -0.10    0.22   1
   0  -9   7    0.10    0.19  -2
  -4   9  -3    0.10    0.19   1
   0  -9  -7    0.35    0.17  -2
   4   9   3    0.35    0.17   1
   0  -9  -7    0.38    0.32  -2
   4   9   3    0.38    0.32   1
  -5  -9  -3    0.53    0.26   1
   5  -9   3    0.49    0.36   1
   5   9   3    0.03    0.41   1
  -5   9  -3    0.52    0.25   1
  -6  10   3    0.29    0.21   1
  -6  10   3    0.14    0.18   1
   6  10  -3   -0.20    0.27   1
  -5 -10   3    1.72    0.27   1
  -5 -10   3    1.47    0.19   1
  -5  10   3    1.96    0.28   1
   5  10  -3    2.22    0.38   1
  -5  10   3    1.92    0.25   1
   4 -10  -3    2.57    0.31   1
  -4 -10   3    2.32    0.28   1
   4 -10  -3    2.06    0.28   1
  -4 -10   3    2.30    0.18   1
   4  10  -3    2.46    0.30   1
  -4  10   3    2.29    0.24   1
  -4  10   3    2.13    0.18   1
  -4  10   3    2.46    0.27   1
   4  10  -3    2.26    0.34   1
  -3  10   3    5.10    0.32  -2
  -3 -10   3    5.10    0.32   1
   3  10  -3    6.42    0.47  -2
   3 -10  -3    6.42    0.47   1
   3  10  -3    6.64    0.52  -2
   3 -10  -3    6.64    0.52   1
  -3  10   3    5.55    0.39  -2
  -3 -10   3    5.55    0.39   1
   3  10  -3    6.86    0.44  -2
   3 -10  -3    6.86    0.44   1
  -3 -10   3    5.56    0.31  -2
  -3  10   3    5.56    0.31   1
  -3 -10   3    5.80    0.39  -2
  -3  10   3    5.80    0.39   1
   3 -10  -3    5.87    0.47  -2
   3  10  -3    5.87    0.47   1
   3 -10  -3    5.75    0.40  -2
   3  10  -3    5.75    0.40   1
   3 -10  -3    5.28    0.36  -2
   3  10  -3    5.28    0.36   1
  -3 -10   3    5.96    0.37  -2
  -3  10   3    5.96    0.37   1
  -2 -10   3    5.81    0.39   1
   2 -10  -3    6.62    0.50   1
   2 -10  -3    6.47    0.50   1
  -2 -10   3    6.18    0.41   1
   2 -10  -3    6.86    0.43   1
  -2  10   3    6.33    0.40   1
   2  10  -3    7.58    0.40   1
  -2  10   3    7.24    0.40   1
   2  10  -3    7.31    0.41   1
  -2  10   3    5.70    0.41   1
  -2  10   3    6.07    0.33   1
   2  10  -3    7.65    0.49   1
   1 -10  -3   21.12    1.29   1
   1 -10  -3   21.49    1.05   1
  -1 -10   3   22.24    1.09   1
   1 -10  -3   21.09    1.11   1
  -1 -10   3   20.40    1.06   1
   1 -10  -3   22.40    1.35   1
  -1 -10   3   22.32    1.11   1
  -1  10   3   20.88    1.28   1
  -1  10   3   22.23    1.11   1
   1  10  -3   21.39    1.09   1
   1  10  -3   22.24    1.10   1
   1  10  -3   20.69    1.31   1
  -1  10   3   21.12    1.10   1
   0 -10  -3    5.35    0.35   1
   0 -10  -3    5.24    0.40   1
   0 -10   3    5.40    0.30   1
   0 -10   3    5.86    0.33   1
   0 -10  -3    4.99    0.33   1
   0 -10  -3    5.30    0.29   1
   0 -10   3    5.56    0.31   1
   0 -10  -3    5.01    0.43   1
   0  10   3    4.94    0.32   1
   0  10   3    5.67    0.32   1
   0  10  -3    5.06    0.32   1
   0  10   3    5.17    0.34   1
   0  10  -3    5.81    0.32   1
   0  10  -3    5.41    0.30   1
   1 -10   3   16.36    0.80   1
   1 -10   3   15.50    0.80   1
  -1 -10  -3   14.63    0.78   1
  -1 -10  -3   15.52    0.80   1
   1 -10   3   15.54    0.78   1
  -1 -10  -3   15.03    1.01   1
  -1  10  -3   15.63    0.78   1
   1  10   3   15.90    0.79   1
  -1  10  -3   15.54    0.80   1
  -1  10  -3   14.63    0.81   1
   1  10   3   14.71    1.00   1
   1  10   3   14.01    0.80   1
   2 -10   3    2.55    0.31   1
   2 -10   3    1.70    0.16   1
   2 -10   3    1.84    0.21   1
  -2 -10  -3    1.86    0.17   1
  -2 -10  -3    2.72    0.35   1
  -2 -10  -3    1.96    0.20   1
  -2  10  -3    2.46    0.23   1
  -2  10  -3    2.86    0.26   1
  -2  10  -3    1.83    0.24   1
   2  10   3    2.01    0.20   1
  -2  10  -3    1.67    0.17   1
   2  10   3    1.66    0.21   1
   3 -10   3   10.12    0.82   1
  -3 -10  -3   10.56    0.81   1
   3 -10   3   11.03    0.65   1
   3  10   3   11.99    0.63   1
  -3  10  -3   12.06    0.67   1
   3  10   3   10.91    0.86   1
  -3  10  -3   11.64    0.68   1
   0  10   7   -0.19    0.22  -2
  -4 -10  -3   -0.19    0.22   1
   0  10  -7    0.33    0.29  -2
   4 -10   3    0.33    0.29   1
   0  10  -7    0.53    0.18  -2
   4 -10   3    0.53    0.18   1
   0 -10  -7    0.85    0.37  -2
   4  10   3    0.85    0.37   1
   0 -10   7    0.40    0.19  -2
  -4  10  -3    0.40    0.19   1
   0 -10  -7    0.26    0.16  -2
   4  10   3    0.26    0.16   1
   0 -10   7    0.37    0.20  -2
  -4  10  -3    0.37    0.20   1
   5 -10   3    0.10    0.19   1
   5 -10   3    0.49    0.35   1
  -5 -10  -3    0.21    0.23   1
  -5  10  -3    0.24    0.20   1
  -5  10  -3   -0.23    0.20   1
   5  10   3   -0.01    0.42   1
  -6 -11   3    1.42    0.29   1
   6  11  -3    0.77    0.35   1
  -6  11   3    1.56    0.27   1
   5 -11  -3    1.41    0.30   1
  -5 -11   3    1.60    0.27   1
  -5  11   3    1.22    0.18   1
   5  11  -3    1.58    0.33   1
  -5  11   3    1.75    0.27   1
   5  11  -3    1.53    0.32   1
  -5  11   3    1.66    0.25   1
   4 -11  -3    1.04    0.21   1
  -4 -11   3    1.45    0.24   1
   4 -11  -3    1.33    0.26   1
  -4 -11   3    1.16    0.14   1
  -4  11   3    1.28    0.21   1
  -4  11   3    1.50    0.21   1
  -4  11   3    1.18    0.14   1
   4  11  -3    1.61    0.26   1
   4  11  -3    1.57    0.28   1
   3  11  -3    5.97    0.45  -2
   3 -11  -3    5.97    0.45   1
  -3  11   3    6.58    0.43  -2
  -3 -11   3    6.58    0.43   1
  -3  11   3    5.97    0.35  -2
  -3 -11   3    5.97    0.35   1
   3  11  -3    7.14    0.52  -2
   3 -11  -3    7.14    0.52   1
   3 -11  -3    6.15    0.41  -2
   3  11  -3    6.15    0.41   1
   3 -11  -3    6.97    0.43  -2
   3  11  -3    6.97    0.43   1
  -3 -11   3    6.71    0.42  -2
  -3  11   3    6.71    0.42   1
   3 -11  -3    7.09    0.51  -2
   3  11  -3    7.09    0.51   1
  -3 -11   3    6.05    0.35  -2
  -3  11   3    6.05    0.35   1
  -3 -11   3    6.05    0.40  -2
  -3  11   3    6.05    0.40   1
  -2 -11   3    0.80    0.13   1
   2 -11  -3    1.12    0.21   1
   2 -11  -3    0.74    0.17   1
  -2 -11   3    0.71    0.14   1
   2 -11  -3    0.75    0.19   1
  -2 -11   3    0.79    0.06   1
  -2  11   3    1.16    0.15   1
   2  11  -3    1.24    0.16   1
   2  11  -3    0.91    0.16   1
  -2  11   3    0.89    0.08   1
   2  11  -3    0.95    0.17   1
  -2  11   3    0.99    0.15   1
   1 -11  -3    1.74    0.25   1
   1 -11  -3    1.34    0.10   1
  -1 -11   3    1.57    0.17   1
  -1 -11   3    1.54    0.10   1
  -1 -11   3    1.64    0.16   1
   1 -11  -3    1.55    0.20   1
   1 -11  -3    1.77    0.20   1
  -1  11   3    1.62    0.17   1
  -1  11   3    1.74    0.16   1
   1  11  -3    1.59    0.16   1
   1  11  -3    1.83    0.21   1
   1  11  -3    1.71    0.17   1
  -1  11   3    1.28    0.17   1
   0 -11  -3    0.63    0.08   1
   0 -11   3    0.87    0.13   1
   0 -11   3    0.75    0.09   1
   0 -11  -3    0.74    0.18   1
   0 -11   3    0.83    0.11   1
   0 -11  -3    0.73    0.15   1
   0 -11  -3    0.71    0.13   1
   0 -11  -3    0.87    0.11   1
   0  11  -3    0.81    0.11   1
   0  11   3    0.81    0.13   1
   0  11   3    0.72    0.09   1
   0  11  -3    0.98    0.11   1
   0  11  -3    0.67    0.12   1
   0  11   3    0.97    0.12   1
  -1 -11  -3   14.55    0.79   1
   1 -11   3   16.32    0.81   1
   1 -11   3   15.44    0.79   1
  -1 -11  -3   15.97    0.82   1
  -1 -11  -3   16.14    1.03   1
   1 -11   3   15.46    0.81   1
   1  11   3   15.43    1.02   1
  -1  11  -3   15.50    0.98   1
   1  11   3   13.51    0.81   1
  -1  11  -3   15.98    0.81   1
  -1  11  -3   15.42    0.82   1
   1  11   3   15.53    0.81   1
  -1  11  -3   15.29    0.80   1
  -2 -11  -3    2.69    0.38   1
  -2 -11  -3    2.96    0.23   1
   2 -11   3    2.28    0.19   1
   2 -11   3    2.93    0.25   1
   2  11   3    2.87    0.37   1
  -2  11  -3    2.65    0.25   1
  -2  11  -3    2.22    0.20   1
  -2  11  -3    2.43    0.27   1
   2  11   3    2.64    0.24   1
  -2  11  -3    2.31    0.28   1
   2  11   3    2.68    0.23   1
   3 -11   3    1.49    0.21   1
   3 -11   3    1.42    0.31   1
  -3 -11  -3    1.20    0.26   1
  -3  11  -3    1.72    0.24   1
  -3  11  -3    1.40    0.22   1
   3  11   3    1.80    0.36   1
   3  11   3    1.39    0.20   1
   0  11  -7    2.32    0.29  -2
   4 -11   3    2.32    0.29   1
   0  11   7    1.86    0.36  -2
  -4 -11  -3    1.86    0.36   1
   0  11  -7    2.90    0.46  -2
   4 -11   3    2.90    0.46   1
   0 -11  -7    2.70    0.50  -2
   4  11   3    2.70    0.50   1
   0 -11   7    2.40    0.31  -2
  -4  11  -3    2.40    0.31   1
   0 -11  -7    2.03    0.27  -2
   4  11   3    2.03    0.27   1
   0 -11   7    1.96    0.31  -2
  -4  11  -3    1.96    0.31   1
   5 -11   3    1.42    0.43   1
  -5 -11  -3    0.77    0.29   1
  -6  12   3    0.38    0.24   1
  -6  12   3    0.52    0.22   1
   6  12  -3    0.26    0.31   1
   5 -12  -3    0.28    0.24   1
  -5 -12   3    0.06    0.18   1
  -5  12   3    0.12    0.19   1
   5  12  -3    0.36    0.24   1
   5  12  -3    0.33    0.23   1
  -5  12   3    0.34    0.17   1
  -4 -12   3    1.41    0.16   1
   4 -12  -3    1.53    0.24   1
  -4 -12   3    2.09    0.28   1
   4 -12  -3    1.91    0.30   1
  -4  12   3    1.47    0.16   1
   4  12  -3    1.95    0.30   1
  -4  12   3    1.63    0.24   1
   4  12  -3    1.70    0.27   1
  -4  12   3    1.82    0.25   1
  -3  12   3    1.04    0.19  -2
  -3 -12   3    1.04    0.19   1
   3  12  -3    1.17    0.22  -2
   3 -12  -3    1.17    0.22   1
  -3  12   3    0.79    0.10  -2
  -3 -12   3    0.79    0.10   1
   3  12  -3    0.78    0.20  -2
   3 -12  -3    0.78    0.20   1
   3 -12  -3    1.27    0.23  -2
   3  12  -3    1.27    0.23   1
  -3 -12   3    0.82    0.15  -2
  -3  12   3    0.82    0.15   1
  -3 -12   3    0.88    0.18  -2
  -3  12   3    0.88    0.18   1
  -3 -12   3    0.81    0.10  -2
  -3  12   3    0.81    0.10   1
   3 -12  -3    1.25    0.19  -2
   3  12  -3    1.25    0.19   1
   3 -12  -3    1.13    0.19  -2
   3  12  -3    1.13    0.19   1
  -2 -12   3    0.38    0.05   1
   2 -12  -3    0.39    0.17   1
   2 -12  -3    0.25    0.15   1
   2 -12  -3    0.24    0.16   1
  -2 -12   3    0.27    0.12   1
   2  12  -3    0.43    0.12   1
   2  12  -3    0.23    0.13   1
  -2  12   3    0.23    0.12   1
  -2  12   3    0.40    0.12   1
  -2  12   3    0.37    0.06   1
   2  12  -3    0.28    0.14   1
   1 -12  -3    1.85    0.23   1
  -1 -12   3    2.18    0.20   1
  -1 -12   3    2.19    0.18   1
   1 -12  -3    1.75    0.20   1
   1 -12  -3    1.77    0.13   1
   1 -12  -3    1.97    0.22   1
   1 -12  -3    1.97    0.28   1
  -1 -12   3    2.16    0.13   1
   1  12  -3    2.07    0.19   1
  -1  12   3    1.49    0.18   1
  -1  12   3    2.48    0.20   1
   1  12  -3    2.50    0.24   1
  -1  12   3    1.81    0.20   1
   1  12  -3    2.34    0.19   1
   0 -12  -3   10.72    0.58   1
   0 -12  -3   10.46    0.73   1
   0 -12   3   10.56    0.55   1
   0 -12   3   10.66    0.54   1
   0 -12   3   10.75    0.57   1
   0 -12  -3    9.79    0.53   1
   0  12   3    9.53    0.57   1
   0  12  -3   10.36    0.54   1
   0  12  -3   10.60    0.55   1
   0  12  -3   10.49    0.57   1
   0  12   3    9.40    0.61   1
   0  12   3    9.63    0.56   1
   1 -12   3    0.73    0.11   1
   1 -12   3    0.69    0.14   1
  -1 -12  -3    0.63    0.13   1
  -1 -12  -3    0.61    0.19   1
  -1  12  -3    0.70    0.12   1
   1  12   3    0.56    0.14   1
   1  12   3    0.41    0.12   1
   1  12   3    0.97    0.21   1
  -1  12  -3    1.08    0.13   1
  -1  12  -3    0.67    0.15   1
  -2 -12  -3    0.30    0.20   1
  -2 -12  -3    0.20    0.12   1
   2 -12   3    0.29    0.09   1
   2 -12   3    0.39    0.15   1
  -2  12  -3    0.39    0.16   1
   2  12   3    0.31    0.23   1
   2  12   3    0.20    0.13   1
  -2  12  -3    0.20    0.15   1
  -2  12  -3    0.30    0.15   1
   2  12   3    0.15    0.12   1
  -2  12  -3    0.37    0.11   1
   3 -12   3    1.56    0.32   1
  -3 -12  -3    1.75    0.31   1
   3 -12   3    1.75    0.23   1
   3  12   3    1.73    0.36   1
   3  12   3    1.46    0.21   1
  -3  12  -3    2.05    0.27   1
  -3  12  -3    1.71    0.25   1
   0  12  -7    1.25    0.35  -2
   4 -12   3    1.25    0.35   1
   0  12  -7    1.21    0.24  -2
   4 -12   3    1.21    0.24   1
   0  12   7    0.53    0.29  -2
  -4 -12  -3    0.53    0.29   1
   0 -12  -7    0.91    0.21  -2
   4  12   3    0.91    0.21   1
   0 -12   7    1.52    0.28  -2
  -4  12  -3    1.52    0.28   1
   0 -12  -7    1.27    0.43  -2
   4  12   3    1.27    0.43   1
   0 -12   7    0.97    0.23  -2
  -4  12  -3    0.97    0.23   1
  -6 -13   3    0.44    0.24   1
  -6  13   3    0.29    0.20   1
  -6  13   3   -0.08    0.21   1
   6  13  -3    0.04    0.29   1
   5 -13  -3    0.72    0.26   1
  -5 -13   3    0.57    0.22   1
   5  13  -3    0.43    0.24   1
   5  13  -3    0.84    0.27   1
  -5  13   3    0.98    0.25   1
  -5  13   3    0.84    0.22   1
  -4 -13   3    4.46    0.28   1
   4 -13  -3    3.97    0.41   1
   4 -13  -3    3.79    0.41   1
  -4 -13   3    5.05    0.38   1
   4  13  -3    4.82    0.39   1
  -4  13   3    3.91    0.27   1
  -4  13   3    4.34    0.35   1
   4  13  -3    4.62    0.44   1
  -4  13   3    4.56    0.38   1
   3  13  -3    2.12    0.28  -2
   3 -13  -3    2.12    0.28   1
  -3  13   3    1.93    0.15  -2
  -3 -13   3    1.93    0.15   1
  -3  13   3    1.99    0.24  -2
  -3 -13   3    1.99    0.24   1
   3  13  -3    1.97    0.30  -2
   3 -13  -3    1.97    0.30   1
  -3 -13   3    1.68    0.21  -2
  -3  13   3    1.68    0.21   1
  -3 -13   3    1.89    0.23  -2
  -3  13   3    1.89    0.23   1
   3 -13  -3    2.26    0.25  -2
   3  13  -3    2.26    0.25   1
   3 -13  -3    2.91    0.33  -2
   3  13  -3    2.91    0.33   1
   3 -13  -3    2.30    0.25  -2
   3  13  -3    2.30    0.25   1
  -3 -13   3    1.81    0.15  -2
  -3  13   3    1.81    0.15   1
  -2 -13   3    5.92    0.40   1
  -2 -13   3    5.86    0.31   1
   2 -13  -3    5.71    0.49   1
   2 -13  -3    6.07    0.43   1
   2  13  -3    5.81    0.45   1
  -2  13   3    5.71    0.31   1
  -2  13   3    5.66    0.39   1
   2  13  -3    5.96    0.39   1
  -2  13   3    6.02    0.38   1
   2  13  -3    6.16    0.38   1
   1 -13  -3    0.38    0.06   1
   1 -13  -3    0.45    0.16   1
   1 -13  -3    0.51    0.15   1
  -1  13   3    0.29    0.13   1
  -1  13   3    0.38    0.11   1
   1  13  -3    0.55    0.14   1
   0 -13  -3    1.99    0.30   1
   0 -13  -3    1.68    0.20   1
   0 -13  -3    1.70    0.14   1
   0 -13   3    1.85    0.15   1
   0 -13   3    1.76    0.19   1
   0 -13   3    1.84    0.17   1
   0  13  -3    1.80    0.17   1
   0  13  -3    1.76    0.15   1
   0  13  -3    2.04    0.22   1
   0  13  -3    1.55    0.19   1
   0  13   3    1.77    0.14   1
   0  13   3    1.95    0.18   1
   0  13   3    1.61    0.19   1
  -1 -13  -3    0.70    0.15   1
   1 -13   3    0.65    0.11   1
   1 -13   3    0.80    0.15   1
  -1 -13  -3    0.75    0.20   1
   1  13   3    0.52    0.14   1
   1  13   3    0.58    0.22   1
  -1  13  -3    1.03    0.17   1
  -1  13  -3    0.92    0.13   1
  -1  13  -3    0.88    0.13   1
   1  13   3    0.66    0.13   1
  -2 -13  -3    0.27    0.13   1
   2 -13   3    0.19    0.10   1
  -2 -13  -3    0.51    0.22   1
   2 -13   3    0.31    0.15   1
   2  13   3    0.55    0.14   1
  -2  13  -3    0.30    0.17   1
   2  13   3    0.23    0.14   1
  -2  13  -3    0.53    0.15   1
   2  13   3    0.59    0.26   1
  -2  13  -3    0.15    0.11   1
  -2  13  -3    0.60    0.16   1
   3 -13   3    4.74    0.37   1
   3 -13   3    4.77    0.51   1
  -3 -13  -3    4.87    0.53   1
  -3  13  -3    5.04    0.40   1
   3  13   3    5.02    0.36   1
  -3  13  -3    4.91    0.38   1
   3  13   3    5.54    0.55   1
   0  13   7    0.05    0.28  -2
  -4 -13  -3    0.05    0.28   1
   0  13  -7    0.84    0.21  -2
   4 -13   3    0.84    0.21   1
   0  13  -7    0.99    0.33  -2
   4 -13   3    0.99    0.33   1
   0 -13  -7    0.68    0.19  -2
   4  13   3    0.68    0.19   1
   0 -13   7    0.64    0.21  -2
  -4  13  -3    0.64    0.21   1
   0 -13   7    0.75    0.22  -2
  -4  13  -3    0.75    0.22   1
   0 -13  -7    0.71    0.39  -2
   4  13   3    0.71    0.39   1
   5 -13   3    1.59    0.29   1
  -5 -14   3    1.26    0.27   1
   5 -14  -3    0.94    0.30   1
  -5  14   3    0.96    0.22   1
  -5  14   3    1.16    0.25   1
   5  14  -3    1.12    0.30   1
   5  14  -3    0.87    0.27   1
   4 -14  -3    0.07    0.22   1
  -4 -14   3    0.22    0.17   1
  -4 -14   3   -0.01    0.09   1
   4  14  -3    0.30    0.20   1
  -4  14   3    0.02    0.13   1
  -4  14   3    0.01    0.18   1
   4  14  -3    0.05    0.18   1
  -4  14   3    0.01    0.08   1
   3  14  -3    0.84    0.21  -2
   3 -14  -3    0.84    0.21   1
  -3  14   3    0.84    0.10  -2
  -3 -14   3    0.84    0.10   1
   3  14  -3    0.71    0.20  -2
   3 -14  -3    0.71    0.20   1
  -3  14   3    0.66    0.17  -2
  -3 -14   3    0.66    0.17   1
   3 -14  -3    0.75    0.19  -2
   3  14  -3    0.75    0.19   1
  -3 -14   3    0.64    0.16  -2
  -3  14   3    0.64    0.16   1
  -3 -14   3    0.84    0.18  -2
  -3  14   3    0.84    0.18   1
   3 -14  -3    0.74    0.20  -2
   3  14  -3    0.74    0.20   1
  -3 -14   3    0.84    0.11  -2
  -3  14   3    0.84    0.11   1
   3 -14  -3    0.65    0.18  -2
   3  14  -3    0.65    0.18   1
  -2 -14   3    0.18    0.06   1
   2 -14  -3    0.49    0.18   1
  -2 -14   3    0.34    0.14   1
   2 -14  -3    0.41    0.18   1
  -2  14   3    0.26    0.12   1
  -2  14   3    0.14    0.12   1
  -2  14   3    0.18    0.06   1
   2  14  -3    0.44    0.14   1
   2  14  -3    0.28    0.15   1
   2  14  -3    0.32    0.13   1
   1 -14  -3    4.15    0.25   1
   1 -14  -3    4.00    0.33   1
   1 -14  -3    4.31    0.42   1
  -1  14   3    4.23    0.33   1
   1  14  -3    4.86    0.31   1
   0 -14   3    1.10    0.17   1
   0 -14   3    1.06    0.12   1
   0 -14  -3    0.90    0.22   1
   0 -14   3    1.07    0.14   1
   0 -14  -3    1.21    0.12   1
   0 -14  -3    1.38    0.19   1
   0  14  -3    1.14    0.15   1
   0  14   3    1.49    0.19   1
   0  14  -3    0.95    0.13   1
   0  14  -3    0.82    0.15   1
   0  14   3    1.20    0.10   1
   0  14   3    1.14    0.16   1
   0  14  -3    1.58    0.21   1
   1 -14   3   14.35    0.73   1
  -1 -14  -3   13.16    0.73   1
  -1 -14  -3   13.85    0.95   1
   1 -14   3   13.03    0.70   1
  -1  14  -3   13.00    0.70   1
   1  14   3   12.05    0.73   1
   1  14   3   13.57    0.90   1
  -1  14  -3   13.16    0.71   1
   1  14   3   13.14    0.71   1
  -1  14  -3   12.04    0.72   1
   2 -14   3    2.10    0.20   1
   2 -14   3    1.98    0.25   1
  -2 -14  -3    2.29    0.24   1
  -2 -14  -3    3.26    0.42   1
  -2  14  -3    2.38    0.24   1
  -2  14  -3    2.29    0.21   1
  -2  14  -3    2.51    0.27   1
   2  14   3    2.02    0.24   1
   2  14   3    2.36    0.36   1
   2  14   3    2.34    0.24   1
  -3 -14  -3    0.46    0.25   1
   3 -14   3    0.23    0.17   1
   3 -14   3    0.21    0.23   1
   3  14   3    0.62    0.29   1
  -3  14  -3    0.43    0.17   1
   3  14   3    0.43    0.15   1
  -3  14  -3    0.22    0.16   1
   0  14   7    2.66    0.45  -2
  -4 -14  -3    2.66    0.45   1
   0  14  -7    3.20    0.35  -2
   4 -14   3    3.20    0.35   1
   0 -14   7    3.40    0.36  -2
  -4  14  -3    3.40    0.36   1
   0 -14  -7    4.28    0.63  -2
   4  14   3    4.28    0.63   1
   0 -14  -7    3.59    0.33  -2
   4  14   3    3.59    0.33   1
   0 -14   7    3.45    0.38  -2
  -4  14  -3    3.45    0.38   1
  -5 -15   3    0.01    0.19   1
   5 -15  -3    0.02    0.23   1
   5  15  -3    0.21    0.22   1
  -5  15   3   -0.09    0.16   1
  -5  15   3   -0.08    0.20   1
   5  15  -3   -0.28    0.19   1
   4 -15  -3   -0.12    0.19   1
  -4 -15   3    0.11    0.18   1
  -4  15   3    0.10    0.15   1
  -4  15   3   -0.12    0.17   1
   4  15  -3   -0.07    0.17   1
  -4  15   3    0.01    0.09   1
   4  15  -3    0.20    0.19   1
   3  15  -3    0.13    0.17  -2
   3 -15  -3    0.13    0.17   1
  -3  15   3    0.27    0.16  -2
  -3 -15   3    0.27    0.16   1
   3  15  -3    0.14    0.18  -2
   3 -15  -3    0.14    0.18   1
  -3 -15   3    0.18    0.14  -2
  -3  15   3    0.18    0.14   1
   3 -15  -3    0.18    0.16  -2
   3  15  -3    0.18    0.16   1
  -3 -15   3    0.29    0.08  -2
  -3  15   3    0.29    0.08   1
  -3 -15   3    0.29    0.16  -2
  -3  15   3    0.29    0.16   1
   3 -15  -3    0.05    0.14  -2
   3  15  -3    0.05    0.14   1
   3 -15  -3    0.10    0.16  -2
   3  15  -3    0.10    0.16   1
  -2 -15   3   23.21    1.19   1
   2 -15  -3   22.08    1.20   1
  -2 -15   3   21.68    1.11   1
   2 -15  -3   21.68    1.45   1
   2  15  -3   21.74    1.39   1
   2  15  -3   22.58    1.16   1
  -2  15   3   22.75    1.18   1
  -2  15   3   21.88    1.11   1
  -2  15   3   23.12    1.17   1
   2  15  -3   22.39    1.18   1
   1 -15  -3   11.04    0.75   1
  -1 -15   3   14.23    0.69   1
  -1 -15   3   13.58    0.73   1
   1 -15  -3   14.57    0.87   1
  -1 -15   3   13.11    0.75   1
   1 -15  -3   12.95    0.93   1
   1  15  -3   15.67    0.74   1
  -1  15   3   12.08    0.74   1
   1  15  -3   11.76    0.73   1
  -1  15   3   14.63    0.69   1
   0 -15  -3    0.64    0.10   1
   0 -15  -3    0.41    0.16   1
   0 -15   3    0.63    0.12   1
   0 -15  -3    0.57    0.20   1
   0 -15   3    0.71    0.15   1
   0 -15   3    0.60    0.11   1
   0  15  -3    0.96    0.18   1
   0  15  -3    0.68    0.13   1
   0  15  -3    0.87    0.12   1
   0  15   3    0.42    0.15   1
   0  15  -3    0.63    0.14   1
   0  15   3    0.52    0.14   1
  -1 -15  -3    6.64    0.45   1
   1 -15   3    6.90    0.44   1
  -1 -15  -3    7.51    0.61   1
   1 -15   3    6.47    0.41   1
   1  15   3    7.81    0.57   1
   1  15   3    6.65    0.45   1
  -1  15  -3    6.74    0.42   1
   1  15   3    6.70    0.43   1
  -1  15  -3    6.56    0.45   1
  -1  15  -3    6.95    0.42   1
  -2 -15  -3    0.44    0.24   1
   2 -15   3    0.36    0.17   1
  -2 -15  -3    0.50    0.15   1
  -2  15  -3    0.45    0.15   1
  -2  15  -3    0.44    0.17   1
   2  15   3    0.52    0.16   1
  -2  15  -3    0.29    0.12   1
   2  15   3    0.52    0.26   1
  -3 -15  -3    0.03    0.25   1
   3 -15   3    0.39    0.17   1
   3  15   3    0.53    0.30   1
  -3  15  -3    0.51    0.18   1
  -3  15  -3    0.25    0.17   1
   3  15   3    0.14    0.15   1
   0  15  -7    0.58    0.20  -2
   4 -15   3    0.58    0.20   1
   0  15   7    0.19    0.31  -2
  -4 -15  -3    0.19    0.31   1
   0 -15  -7    0.64    0.21  -2
   4  15   3    0.64    0.21   1
   0 -15  -7    0.93    0.41  -2
   4  15   3    0.93    0.41   1
   0 -15   7    0.76    0.22  -2
  -4  15  -3    0.76    0.22   1
   0 -15   7    0.32    0.21  -2
  -4  15  -3    0.32    0.21   1
  -6  16   3    0.24    0.24   1
   5 -16  -3   -0.05    0.25   1
  -5 -16   3   -0.09    0.17   1
   5  16  -3   -0.15    0.21   1
   5  16  -3   -0.10    0.21   1
  -5  16   3   -0.09    0.15   1
  -5  16   3    0.22    0.20   1
   4 -16  -3    3.51    0.39   1
  -4 -16   3    3.06    0.34   1
  -4  16   3    3.05    0.30   1
   4  16  -3    2.65    0.36   1
  -4  16   3    2.56    0.22   1
  -4  16   3    3.37    0.34   1
   4  16  -3    3.10    0.35   1
  -3  16   3    0.14    0.15  -2
  -3 -16   3    0.14    0.15   1
   3  16  -3   -0.02    0.18  -2
   3 -16  -3   -0.02    0.18   1
   3  16  -3    0.09    0.19  -2
   3 -16  -3    0.09    0.19   1
   3 -16  -3    0.08    0.15  -2
   3  16  -3    0.08    0.15   1
  -3 -16   3   -0.10    0.12  -2
  -3  16   3   -0.10    0.12   1
   3 -16  -3    0.01    0.15  -2
   3  16  -3    0.01    0.15   1
  -3 -16   3    0.00    0.15  -2
  -3  16   3    0.00    0.15   1
  -3 -16   3    0.04    0.07  -2
  -3  16   3    0.04    0.07   1
   3 -16  -3   -0.03    0.15  -2
   3  16  -3   -0.03    0.15   1
   2 -16  -3    9.43    0.75   1
   2 -16  -3    9.81    0.63   1
  -2 -16   3    9.11    0.51   1
  -2 -16   3   10.12    0.61   1
   2  16  -3   10.93    0.70   1
  -2  16   3    9.76    0.57   1
  -2  16   3    9.21    0.51   1
   2  16  -3   10.07    0.58   1
   2  16  -3   10.44    0.61   1
  -2  16   3    9.80    0.59   1
  -1 -16   3   44.27    2.23   1
   1 -16  -3   41.26    2.21   1
   1 -16  -3   49.29    2.79   1
  -1 -16   3   49.01    2.29   1
   1 -16  -3   46.02    2.30   1
   1 -16  -3   45.46    2.73   1
  -1  16   3   44.65    2.21   1
   1  16  -3   45.34    2.69   1
  -1  16   3   41.24    2.64   1
   1  16  -3   46.50    2.26   1
   1  16  -3   46.36    2.27   1
  -1  16   3   43.11    2.26   1
   0 -16  -3   10.19    0.56   1
   0 -16   3   10.89    0.59   1
   0 -16  -3   12.08    0.81   1
   0 -16   3   11.86    0.63   1
   0 -16  -3    9.57    0.62   1
   0 -16   3    9.76    0.57   1
   0  16  -3   11.28    0.60   1
   0  16  -3   10.59    0.70   1
   0  16   3   11.16    0.61   1
   0  16   3    9.14    0.60   1
   0  16  -3    9.86    0.60   1
   0  16  -3   10.57    0.57   1
   1 -16   3    2.80    0.28   1
  -1 -16  -3    2.08    0.26   1
   1 -16   3    2.55    0.22   1
  -1 -16  -3    2.46    0.37   1
  -1  16  -3    2.48    0.22   1
   1  16   3    2.21    0.24   1
  -1  16  -3    3.08    0.28   1
   1  16   3    2.20    0.26   1
  -1  16  -3    2.81    0.23   1
   2 -16   3    4.05    0.36   1
  -2 -16  -3    5.01    0.54   1
  -2 -16  -3    4.04    0.34   1
   2  16   3    4.40    0.48   1
  -2  16  -3    4.19    0.32   1
   2  16   3    4.21    0.34   1
  -2  16  -3    4.65    0.33   1
  -2  16  -3    4.77    0.36   1
  -3 -16  -3    2.31    0.42   1
   3 -16   3    2.41    0.30   1
   3  16   3    3.01    0.45   1
  -3  16  -3    2.73    0.29   1
  -3  16  -3    2.91    0.32   1
   3  16   3    2.44    0.27   1
   0  16  -7    0.27    0.20  -2
   4 -16   3    0.27    0.20   1
   0  16   7   -0.16    0.30  -2
  -4 -16  -3   -0.16    0.30   1
   0 -16  -7    0.16    0.19  -2
   4  16   3    0.16    0.19   1
   0 -16   7    0.03    0.19  -2
  -4  16  -3    0.03    0.19   1
   0 -16   7    0.24    0.20  -2
  -4  16  -3    0.24    0.20   1
   0 -16  -7    0.43    0.37  -2
   4  16   3    0.43    0.37   1
   5 -17  -3   -0.12    0.24   1
  -5 -17   3    0.03    0.21   1
   5  17  -3   -0.09    0.20   1
   5  17  -3   -0.29    0.20   1
  -5  17   3    0.03    0.17   1
  -5  17   3    0.02    0.21   1
   4 -17  -3    2.43    0.38   1
  -4 -17   3    2.06    0.30   1
  -4  17   3    2.69    0.34   1
   4  17  -3    1.88    0.32   1
  -4  17   3    1.86    0.28   1
   4  17  -3    2.19    0.33   1
   3  17  -3    7.81    0.57  -2
   3 -17  -3    7.81    0.57   1
   3  17  -3    7.21    0.63  -2
   3 -17  -3    7.21    0.63   1
  -3  17   3    7.30    0.51  -2
  -3 -17   3    7.30    0.51   1
  -3 -17   3    7.62    0.52  -2
  -3  17   3    7.62    0.52   1
  -3 -17   3    7.16    0.41  -2
  -3  17   3    7.16    0.41   1
   3 -17  -3    7.78    0.58  -2
   3  17  -3    7.78    0.58   1
  -3 -17   3    7.02    0.48  -2
  -3  17   3    7.02    0.48   1
   3 -17  -3    7.28    0.50  -2
   3  17  -3    7.28    0.50   1
   3 -17  -3    7.54    0.52  -2
   3  17  -3    7.54    0.52   1
   2 -17  -3    0.58    0.24   1
  -2 -17   3    0.87    0.10   1
  -2 -17   3    0.68    0.19   1
   2 -17  -3    0.59    0.22   1
   2  17  -3    0.77    0.20   1
   2  17  -3    0.72    0.18   1
  -2  17   3    0.67    0.18   1
  -2  17   3    0.61    0.09   1
   2  17  -3    0.82    0.18   1
   1 -17  -3   15.72    0.91   1
  -1 -17   3   17.15    0.90   1
  -1 -17   3   15.79    0.82   1
   1 -17  -3   16.52    1.12   1
   1 -17  -3   15.59    1.01   1
   1  17  -3   17.37    0.88   1
  -1  17   3   14.18    0.87   1
  -1  17   3   13.82    0.81   1
   1  17  -3   16.22    0.87   1
  -1  17   3   17.54    0.99   1
   0 -17  -3    1.32    0.22   1
   0 -17   3    0.89    0.14   1
   0 -17  -3    1.40    0.29   1
   0 -17   3    1.55    0.22   1
   0 -17   3    1.39    0.18   1
   0  17   3    1.67    0.21   1
   0  17  -3    1.26    0.20   1
   0  17  -3    1.23    0.16   1
   0  17  -3    1.36    0.20   1
   0  17  -3    1.34    0.18   1
  -1 -17  -3    7.86    0.51   1
   1 -17   3    8.72    0.51   1
  -1 -17  -3    8.78    0.71   1
   1 -17   3    7.75    0.47   1
  -1  17  -3    7.90    0.50   1
  -1  17  -3    7.98    0.48   1
   1  17   3    7.78    0.49   1
   1  17   3    6.68    0.49   1
  -1  17  -3    7.63    0.48   1
  -2 -17  -3    2.02    0.26   1
  -2 -17  -3    2.03    0.37   1
   2 -17   3    1.73    0.27   1
  -2  17  -3    2.69    0.29   1
  -2  17  -3    2.52    0.25   1
   2  17   3    2.49    0.39   1
   2  17   3    1.92    0.24   1
  -2  17  -3    1.79    0.22   1
   3 -17   3   -0.02    0.17   1
  -3 -17  -3   -0.34    0.26   1
   3  17   3    0.06    0.27   1
  -3  17  -3    0.30    0.19   1
  -3  17  -3    0.11    0.15   1
   3  17   3    0.06    0.16   1
   0  17   7    1.44    0.41  -2
  -4 -17  -3    1.44    0.41   1
   0  17  -7    1.94    0.31  -2
   4 -17   3    1.94    0.31   1
   0 -17   7    1.78    0.30  -2
  -4  17  -3    1.78    0.30   1
   0 -17  -7    2.32    0.50  -2
   4  17   3    2.32    0.50   1
   0 -17  -7    2.08    0.30  -2
   4  17   3    2.08    0.30   1
   0 -17   7    2.12    0.33  -2
  -4  17  -3    2.12    0.33   1
  -5 -18   3    0.01    0.20   1
   5  18  -3    0.22    0.24   1
  -5  18   3   -0.25    0.19   1
  -5  18   3   -0.17    0.17   1
  -4 -18   3    1.87    0.29   1
   4 -18  -3    2.01    0.35   1
  -4  18   3    1.88    0.28   1
   4  18  -3    1.98    0.31   1
   4  18  -3    2.08    0.32   1
  -4  18   3    2.26    0.31   1
  -3  18   3    0.27    0.17  -2
  -3 -18   3    0.27    0.17   1
   3  18  -3    0.50    0.23  -2
   3 -18  -3    0.50    0.23   1
  -3 -18   3    0.06    0.18  -2
  -3  18   3    0.06    0.18   1
   3 -18  -3    0.63    0.20  -2
   3  18  -3    0.63    0.20   1
   3 -18  -3    0.62    0.18  -2
   3  18  -3    0.62    0.18   1
   3 -18  -3    0.82    0.21  -2
   3  18  -3    0.82    0.21   1
  -3 -18   3    0.36    0.16  -2
  -3  18   3    0.36    0.16   1
  -3 -18   3    0.28    0.10  -2
  -3  18   3    0.28    0.10   1
  -2 -18   3    5.94    0.43   1
   2 -18  -3    5.67    0.57   1
   2 -18  -3    5.63    0.45   1
   2  18  -3    5.67    0.40   1
  -2  18   3    5.54    0.33   1
   2  18  -3    5.88    0.42   1
   2  18  -3    5.63    0.47   1
  -2  18   3    5.68    0.41   1
   1 -18  -3    0.20    0.22   1
   1 -18  -3    0.32    0.18   1
  -1 -18   3    0.25    0.09   1
  -1 -18   3    0.51    0.18   1
   1 -18  -3    0.17    0.07   1
   1  18  -3    0.48    0.16   1
  -1  18   3    0.17    0.08   1
   1  18  -3    0.36    0.16   1
   1  18  -3    0.63    0.18   1
  -1  18   3    0.28    0.15   1
  -1  18   3    0.45    0.12   1
   0 -18   3   -0.12    0.14   1
   0 -18  -3    0.01    0.22   1
   0 -18  -3    0.12    0.15   1
   0  18  -3    0.07    0.13   1
   0  18  -3   -0.14    0.11   1
   0  18  -3   -0.01    0.10   1
   0  18  -3   -0.20    0.12   1
   0  18   3   -0.06    0.12   1
  -1 -18  -3    0.77    0.19   1
   1 -18   3    0.53    0.14   1
   1 -18   3    0.80    0.19   1
  -1 -18  -3    0.71    0.29   1
  -1  18  -3    0.61    0.15   1
  -1  18  -3    0.49    0.14   1
   1  18   3    1.01    0.19   1
  -1  18  -3    0.54    0.17   1
  -2 -18  -3    0.19    0.15   1
   2 -18   3    0.11    0.17   1
  -2 -18  -3    0.18    0.27   1
  -2  18  -3    0.33    0.17   1
   2  18   3    0.03    0.15   1
  -2  18  -3    0.37    0.16   1
   2  18   3    0.36    0.26   1
  -3 -18  -3    0.60    0.34   1
   3 -18   3    1.32    0.26   1
  -3  18  -3    1.22    0.24   1
   3  18   3    1.50    0.25   1
  -3  18  -3    1.18    0.24   1
   3  18   3    1.16    0.35   1
   0  18  -7    0.01    0.21  -2
   4 -18   3    0.01    0.21   1
   0 -18  -7    0.32    0.20  -2
   4  18   3    0.32    0.20   1
   0 -18   7    0.01    0.18  -2
  -4  18  -3    0.01    0.18   1
   0 -18   7   -0.01    0.18  -2
  -4  18  -3   -0.01    0.18   1
   0 -18  -7    0.78    0.42  -2
   4  18   3    0.78    0.42   1
  -5 -19   3    0.78    0.26   1
  -5  19   3    0.53    0.21   1
   5  19  -3    0.41    0.27   1
  -5  19   3    0.40    0.24   1
  -4 -19   3    0.29    0.19   1
   4 -19  -3    0.31    0.26   1
   4  19  -3    0.39    0.22   1
  -4  19   3    0.31    0.21   1
  -4  19   3    0.20    0.17   1
   4  19  -3    0.16    0.20   1
   3  19  -3    0.27    0.23  -2
   3 -19  -3    0.27    0.23   1
   3  19  -3    0.07    0.22  -2
   3 -19  -3    0.07    0.22   1
  -3  19   3    0.52    0.20  -2
  -3 -19   3    0.52    0.20   1
  -3 -19   3    0.28    0.19  -2
  -3  19   3    0.28    0.19   1
   3 -19  -3    0.09    0.19  -2
   3  19  -3    0.09    0.19   1
  -3 -19   3    0.46    0.18  -2
  -3  19   3    0.46    0.18   1
   3 -19  -3    0.45    0.18  -2
   3  19  -3    0.45    0.18   1
   3 -19  -3    0.53    0.21  -2
   3  19  -3    0.53    0.21   1
  -3 -19   3    0.36    0.10  -2
  -3  19   3    0.36    0.10   1
   2 -19  -3    0.85    0.23   1
  -2 -19   3    0.76    0.19   1
   2 -19  -3    0.73    0.27   1
   2  19  -3    1.11    0.22   1
   2  19  -3    0.88    0.18   1
  -2  19   3    0.79    0.11   1
   2  19  -3    1.31    0.24   1
  -2  19   3    0.75    0.20   1
  -1 -19   3    2.76    0.21   1
   1 -19  -3    2.84    0.34   1
   1 -19  -3    2.41    0.20   1
  -1 -19   3    3.00    0.31   1
   1 -19  -3    2.79    0.41   1
  -1  19   3    2.71    0.28   1
  -1  19   3    3.01    0.27   1
   1  19  -3    3.10    0.28   1
  -1  19   3    2.53    0.21   1
   1  19  -3    3.38    0.35   1
   1  19  -3    3.26    0.30   1
   0 -19  -3    1.14    0.32   1
   0 -19   3    1.48    0.24   1
   0 -19  -3    1.27    0.24   1
   0  19  -3    1.10    0.21   1
   0  19  -3    1.17    0.16   1
   0  19   3    1.28    0.21   1
   0  19  -3    1.44    0.20   1
  -1 -19  -3    0.17    0.16   1
  -1 -19  -3    0.10    0.25   1
   1 -19   3    0.35    0.17   1
  -1  19  -3    0.15    0.15   1
  -1  19  -3    0.34    0.14   1
   1  19   3    0.14    0.15   1
  -1  19  -3    0.14    0.13   1
   2 -19   3    1.20    0.24   1
  -2 -19  -3    0.87    0.33   1
  -2 -19  -3    0.96    0.21   1
   2  19   3    0.94    0.21   1
  -2  19  -3    1.52    0.23   1
   2  19   3    1.03    0.30   1
  -2  19  -3    1.36    0.24   1
   3 -19   3    0.67    0.23   1
  -3 -19  -3    0.27    0.35   1
  -3  19  -3    0.72    0.22   1
   3  19   3    0.77    0.21   1
   3  19   3    0.72    0.31   1
  -3  19  -3    0.46    0.21   1
   0  19  -7    0.10    0.22  -2
   4 -19   3    0.10    0.22   1
   0  19   7   -0.38    0.35  -2
  -4 -19  -3   -0.38    0.35   1
   0 -19  -7    0.52    0.23  -2
   4  19   3    0.52    0.23   1
   0 -19   7    0.16    0.22  -2
  -4  19  -3    0.16    0.22   1
   0 -19  -7    0.46    0.39  -2
   4  19   3    0.46    0.39   1
  -5 -20   3    0.27    0.22   1
   4 -20  -3    0.24    0.26   1
  -4 -20   3    0.05    0.19   1
  -4  20   3    0.20    0.20   1
   4  20  -3    0.26    0.20   1
  -4  20   3    0.03    0.20   1
   4  20  -3    0.04    0.21   1
   3  20  -3   -0.28    0.22  -2
   3 -20  -3   -0.28    0.22   1
  -3  20   3    0.08    0.17  -2
  -3 -20   3    0.08    0.17   1
   3  20  -3   -0.30    0.20  -2
   3 -20  -3   -0.30    0.20   1
  -3 -20   3   -0.06    0.18  -2
  -3  20   3   -0.06    0.18   1
  -3 -20   3    0.06    0.16  -2
  -3  20   3    0.06    0.16   1
   3 -20  -3   -0.18    0.17  -2
   3  20  -3   -0.18    0.17   1
   3 -20  -3    0.04    0.17  -2
   3  20  -3    0.04    0.17   1
   3 -20  -3   -0.11    0.17  -2
   3  20  -3   -0.11    0.17   1
   2 -20  -3    0.20    0.24   1
  -2 -20   3    0.41    0.19   1
   2 -20  -3    0.48    0.24   1
   2  20  -3    0.55    0.19   1
   2  20  -3    0.56    0.20   1
  -2  20   3    0.32    0.18   1
   2  20  -3    0.29    0.17   1
  -2  20   3    0.36    0.10   1
   1 -20  -3    0.92    0.24   1
   1 -20  -3    0.99    0.30   1
  -1 -20   3    1.01    0.22   1
   1  20  -3    1.27    0.23   1
  -1  20   3    1.10    0.15   1
   1  20  -3    1.42    0.23   1
  -1  20   3    1.03    0.22   1
   1  20  -3    1.00    0.20   1
   0 -20  -3    0.43    0.19   1
   0 -20  -3    0.09    0.25   1
   0 -20   3    0.29    0.17   1
   0  20   3    0.25    0.15   1
   0  20  -3    0.15    0.11   1
   0  20  -3    0.26    0.16   1
   0  20  -3    0.32    0.14   1
  -1 -20  -3    3.48    0.54   1
   1 -20   3    4.02    0.35   1
  -1 -20  -3    3.65    0.35   1
  -1  20  -3    3.52    0.31   1
  -1  20  -3    3.63    0.30   1
   1  20   3    3.71    0.33   1
  -1  20  -3    3.84    0.35   1
   2 -20   3    0.47    0.20   1
  -2 -20  -3    0.04    0.29   1
   2  20   3    0.30    0.17   1
  -2  20  -3    0.89    0.22   1
   2  20   3    0.09    0.25   1
  -2  20  -3    0.40    0.17   1
  -3 -20  -3    0.69    0.40   1
   3 -20   3    1.58    0.29   1
  -3  20  -3    1.95    0.31   1
   3  20   3    1.46    0.27   1
  -3  20  -3    1.61    0.28   1
   3  20   3    1.80    0.39   1
   0  20   7   -0.71    0.32  -2
  -4 -20  -3   -0.71    0.32   1
   0 -20   7    0.26    0.22  -2
  -4  20  -3    0.26    0.22   1
  -5  21   3    0.09    0.24   1
   4 -21  -3    0.48    0.27   1
  -4 -21   3    0.43    0.22   1
  -4  21   3    0.48    0.24   1
   4  21  -3    0.63    0.25   1
  -4  21   3    0.44    0.20   1
   3  21  -3   -0.11    0.22  -2
   3 -21  -3   -0.11    0.22   1
  -3  21   3    0.12    0.19  -2
  -3 -21   3    0.12    0.19   1
  -3 -21   3    0.09    0.18  -2
  -3  21   3    0.09    0.18   1
   3 -21  -3    0.15    0.20  -2
   3  21  -3    0.15    0.20   1
   3 -21  -3    0.09    0.17  -2
   3  21  -3    0.09    0.17   1
  -3 -21   3    0.08    0.17  -2
  -3  21   3    0.08    0.17   1
   3 -21  -3    0.03    0.18  -2
   3  21  -3    0.03    0.18   1
  -2 -21   3    0.53    0.20   1
   2 -21  -3    0.47    0.27   1
   2  21  -3    0.59    0.20   1
  -2  21   3    0.59    0.12   1
  -2  21   3    0.46    0.21   1
   2  21  -3    0.70    0.23   1
   2  21  -3    0.64    0.19   1
   1 -21  -3    0.17    0.25   1
  -1 -21   3    0.94    0.20   1
   1 -21  -3    0.13    0.19   1
   1  21  -3    0.70    0.17   1
  -1  21   3    0.44    0.19   1
  -1  21   3    0.22    0.10   1
   0 -21   3    0.34    0.19   1
   0 -21  -3    0.00    0.27   1
   0 -21  -3    0.03    0.17   1
   0  21   3    0.03    0.17   1
   0  21  -3    0.17    0.15   1
   0  21  -3    0.14    0.12   1
   0  21  -3    0.05    0.15   1
  -1 -21  -3    0.11    0.30   1
   1 -21   3    0.28    0.19   1
  -1 -21  -3    0.66    0.20   1
  -1  21  -3    0.35    0.16   1
  -1  21  -3    0.14    0.17   1
   1  21   3    0.36    0.18   1
  -1  21  -3    0.27    0.14   1
   2 -21   3    1.53    0.28   1
  -2 -21  -3    1.28    0.41   1
   2  21   3    1.56    0.26   1
  -2  21  -3    1.68    0.25   1
   2  21   3    1.82    0.37   1
  -2  21  -3    1.56    0.27   1
  -3 -21  -3    0.48    0.39   1
   3 -21   3    0.79    0.25   1
   3  21   3    1.25    0.37   1
   3  21   3    0.89    0.24   1
  -3  21  -3    1.47    0.29   1
  -3  21  -3    0.70    0.24   1
   0  21   7   -0.26    0.38  -2
  -4 -21  -3   -0.26    0.38   1
   0 -21  -7    0.70    0.37  -2
   4  21   3    0.70    0.37   1
  -4 -22   3    0.66    0.25   1
   4  22  -3    0.34    0.24   1
  -4  22   3    0.31    0.21   1
  -4  22   3    0.40    0.26   1
   3  22  -3    0.13    0.23  -2
   3 -22  -3    0.13    0.23   1
  -3  22   3    0.29    0.22  -2
  -3 -22   3    0.29    0.22   1
  -3 -22   3    0.23    0.19  -2
  -3  22   3    0.23    0.19   1
   3 -22  -3    0.19    0.18  -2
   3  22  -3    0.19    0.18   1
  -3 -22   3    0.10    0.21  -2
  -3  22   3    0.10    0.21   1
   3 -22  -3    0.14    0.20  -2
   3  22  -3    0.14    0.20   1
   3 -22  -3    0.20    0.20  -2
   3  22  -3    0.20    0.20   1
  -2 -22   3    0.30    0.20   1
   2 -22  -3   -0.20    0.25   1
   2 -22  -3   -0.06    0.23   1
   2  22  -3   -0.11    0.16   1
   2  22  -3   -0.17    0.16   1
   2  22  -3   -0.06    0.18   1
  -2  22   3    0.05    0.09   1
  -2  22   3   -0.01    0.19   1
   1 -22  -3    4.45    0.66   1
  -1 -22   3    6.84    0.50   1
  -1  22   3    5.70    0.39   1
   1  22  -3    6.35    0.45   1
  -1  22   3    6.41    0.48   1
   1  22  -3    6.88    0.46   1
   1  22  -3    7.64    0.55   1
   0 -22  -3    2.10    0.42   1
   0 -22  -3    1.73    0.29   1
   0 -22   3    2.24    0.30   1
   0  22   3    2.30    0.30   1
   0  22  -3    2.28    0.29   1
   0  22  -3    2.00    0.26   1
  -1 -22  -3    0.17    0.32   1
   1 -22   3    0.26    0.20   1
  -1 -22  -3    0.37    0.19   1
  -1  22  -3    0.05    0.13   1
  -1  22  -3    0.27    0.17   1
   1  22   3    0.27    0.18   1
  -1  22  -3    0.03    0.14   1
   2 -22   3    2.71    0.33   1
  -2 -22  -3    1.85    0.48   1
   2  22   3    2.49    0.30   1
  -2  22  -3    2.46    0.32   1
   2  22   3    2.17    0.39   1
  -2  22  -3    2.61    0.34   1
  -3 -22  -3   -0.58    0.34   1
   3 -22   3    0.25    0.22   1
  -3  22  -3    0.04    0.21   1
   3  22   3    0.04    0.19   1
  -3  22  -3    0.01    0.19   1
   3  22   3   -0.11    0.28   1
  -4 -23   3   -0.12    0.18   1
  -4  23   3   -0.22    0.17   1
   4  23  -3   -0.01    0.22   1
  -4  23   3   -0.32    0.21   1
   3  23  -3    0.73    0.31  -2
   3 -23  -3    0.73    0.31   1
  -3  23   3    0.46    0.24  -2
  -3 -23   3    0.46    0.24   1
   3 -23  -3    0.54    0.22  -2
   3  23  -3    0.54    0.22   1
   3 -23  -3    0.74    0.26  -2
   3  23  -3    0.74    0.26   1
  -3 -23   3    0.68    0.22  -2
  -3  23   3    0.68    0.22   1
   3 -23  -3    0.93    0.24  -2
   3  23  -3    0.93    0.24   1
  -3 -23   3    0.64    0.26  -2
  -3  23   3    0.64    0.26   1
  -2 -23   3    4.20    0.40   1
   2 -23  -3    3.25    0.40   1
   2  23  -3    3.82    0.37   1
  -2  23   3    3.25    0.26   1
   2  23  -3    3.37    0.39   1
   2  23  -3    3.87    0.36   1
  -2  23   3    3.52    0.39   1
  -1 -23   3    1.24    0.25   1
   1 -23  -3    0.98    0.26   1
   1  23  -3    1.45    0.23   1
  -1  23   3    0.96    0.24   1
   1  23  -3    1.28    0.25   1
  -1  23   3    0.76    0.15   1
   1  23  -3    1.11    0.24   1
   0 -23  -3    0.39    0.34   1
   0 -23   3    0.52    0.21   1
   0 -23  -3    0.51    0.23   1
   0  23   3    0.42    0.20   1
   0  23  -3    0.61    0.19   1
   0  23  -3    0.34    0.17   1
  -1 -23  -3    1.83    0.29   1
  -1 -23  -3    2.27    0.50   1
   1 -23   3    2.37    0.33   1
  -1  23  -3    2.13    0.26   1
  -1  23  -3    2.37    0.32   1
   1  23   3    2.15    0.30   1
  -2 -23  -3    0.61    0.41   1
   2 -23   3    1.50    0.29   1
  -2  23  -3    2.11    0.31   1
  -2  23  -3    1.40    0.24   1
   2  23   3    1.58    0.27   1
   3 -23   3    0.11    0.23   1
  -3 -23  -3   -0.71    0.35   1
   3  23   3    0.21    0.21   1
  -3  23  -3    0.02    0.19   1
  -3  23  -3    0.24    0.25   1
  -4 -24   3    0.27    0.22   1
   4  24  -3    0.31    0.25   1
  -4  24   3    0.25    0.26   1
   3  24  -3    0.00    0.31  -2
   3 -24  -3    0.00    0.31   1
  -3  24   3    0.63    0.25  -2
  -3 -24   3    0.63    0.25   1
   3 -24  -3    0.79    0.24  -2
   3  24  -3    0.79    0.24   1
  -3 -24   3    0.60    0.25  -2
  -3  24   3    0.60    0.25   1
   3 -24  -3    0.80    0.26  -2
   3  24  -3    0.80    0.26   1
  -2 -24   3    0.62    0.23   1
   2  24  -3    0.54    0.22   1
   2  24  -3    0.45    0.20   1
  -2  24   3    0.42    0.23   1
   2  24  -3    0.68    0.22   1
  -1 -24   3    0.46    0.23   1
   1 -24  -3    0.29    0.33   1
   1 -24  -3    0.28    0.21   1
   1  24  -3    0.52    0.23   1
  -1  24   3    0.44    0.22   1
   1  24  -3    0.33    0.19   1
  -1  24   3    0.26    0.12   1
   1  24  -3    0.37    0.18   1
   0 -24  -3    2.57    0.36   1
   0 -24   3    2.87    0.36   1
   0  24  -3    2.76    0.32   1
   0  24  -3    2.60    0.31   1
   0  24   3    2.79    0.34   1
   1 -24   3    0.46    0.22   1
  -1 -24  -3   -0.14    0.35   1
  -1 -24  -3    0.37    0.21   1
  -1  24  -3    0.38    0.21   1
  -1  24  -3    0.18    0.15   1
   1  24   3    0.21    0.18   1
   2 -24   3    0.98    0.26   1
  -2 -24  -3   -0.41    0.37   1
   2  24   3    0.49    0.21   1
  -2  24  -3    1.06    0.27   1
  -2  24  -3    0.60    0.20   1
  -3 -24  -3    0.64    0.47   1
  -3  24  -3    1.10    0.28   1
  -3  25   3    2.07    0.36  -2
  -3 -25   3    2.07    0.36   1
   3 -25  -3    2.35    0.34  -2
   3  25  -3    2.35    0.34   1
  -3 -25   3    3.15    0.40  -2
  -3  25   3    3.15    0.40   1
   3 -25  -3    2.38    0.34  -2
   3  25  -3    2.38    0.34   1
  -2 -25   3    1.20    0.27   1
   2  25  -3    1.32    0.28   1
   2  25  -3    1.57    0.29   1
   2  25  -3    1.46    0.29   1
  -2  25   3    1.81    0.33   1
   1 -25  -3    1.16    0.31   1
  -1 -25   3    1.39    0.30   1
   1  25  -3    1.66    0.30   1
  -1  25   3    1.12    0.19   1
   1  25  -3    1.09    0.24   1
  -1  25   3    1.11    0.25   1
   1  25  -3    1.42    0.25   1
   0 -25  -3    0.83    0.25   1
   0 -25   3    0.86    0.25   1
   0 -25  -3   -0.06    0.35   1
   0  25  -3    0.56    0.19   1
   0  25   3    0.71    0.23   1
   0  25  -3    0.56    0.21   1
   1 -25   3    0.24    0.22   1
  -1 -25  -3   -0.38    0.34   1
  -1 -25  -3    0.02    0.20   1
   1  25   3   -0.08    0.18   1
  -1  25  -3    0.32    0.17   1
  -1  25  -3    0.14    0.19   1
   2 -25   3    0.16    0.23   1
  -2 -25  -3   -0.47    0.37   1
  -2  25  -3    0.06    0.21   1
  -2  25  -3    0.15    0.18   1
   2  25   3   -0.04    0.18   1
  -3  25  -3    0.09    0.20   1
  -3  26   3    0.80    0.27  -2
  -3 -26   3    0.80    0.27   1
  -3 -26   3    0.86    0.28  -2
  -3  26   3    0.86    0.28   1
   3 -26  -3    1.44    0.29  -2
   3  26  -3    1.44    0.29   1
   3 -26  -3    1.12    0.26  -2
   3  26  -3    1.12    0.26   1
  -2 -26   3    1.01    0.27   1
   2 -26  -3    0.86    0.29   1
  -2  26   3    0.73    0.27   1
   2  26  -3    1.16    0.26   1
   2  26  -3    0.87    0.24   1
  -1 -26   3    0.61    0.26   1
   1  26  -3    0.58    0.24   1
   1  26  -3    0.42    0.19   1
  -1  26   3    0.52    0.24   1
   1  26  -3    0.78    0.24   1
   0 -26  -3    1.78    0.32   1
   0 -26   3    2.10    0.33   1
   0  26   3    2.09    0.33   1
   0  26  -3    1.90    0.36   1
   0  26  -3    2.36    0.34   1
   0  26  -3    2.23    0.31   1
   1 -26   3    0.19    0.23   1
  -1  26  -3    0.13    0.17   1
  -1  26  -3   -0.03    0.18   1
   1  26   3    0.05    0.19   1
   2 -26   3    0.13    0.24   1
  -2  26  -3   -0.05    0.20   1
  -2  26  -3   -0.07    0.16   1
   2  26   3   -0.02    0.20   1
   3 -27  -3    0.48    0.26  -2
   3  27  -3    0.48    0.26   1
   2 -27  -3    0.09    0.24   1
  -2 -27   3    0.07    0.22   1
   2  27  -3    0.02    0.21   1
  -2  27   3   -0.18    0.20   1
   2  27  -3   -0.04    0.19   1
  -1 -27   3    0.47    0.25   1
   1 -27  -3    0.36    0.24   1
  -1  27   3    0.65    0.25   1
   1  27  -3    0.16    0.19   1
   1  27  -3    0.32    0.21   1
   1  27  -3    0.34    0.23   1
   0 -27   3    0.35    0.24   1
   0 -27  -3    0.31    0.23   1
   0  27   3    0.25    0.22   1
   0  27  -3    0.30    0.25   1
   0  27  -3    0.03    0.19   1
   1 -27   3    0.02    0.24   1
  -1  27  -3    0.10    0.20   1
   1  27   3   -0.03    0.19   1
  -1  27  -3    0.04    0.18   1
  -2  27  -3    0.31    0.20   1
   3 -28  -3    0.01    0.24  -2
   3  28  -3    0.01    0.24   1
   2 -28  -3   -0.10    0.25   1
  -2 -28   3    0.21    0.24   1
  -2  28   3   -0.09    0.23   1
   2  28  -3   -0.21    0.19   1
  -1 -28   3    0.18    0.23   1
   1 -28  -3   -0.01    0.24   1
   1  28  -3    0.04    0.20   1
   1  28  -3    0.33    0.21   1
   1  28  -3    0.25    0.22   1
  -1  28   3    0.25    0.24   1
   0 -28   3    0.81    0.27   1
   0 -28  -3   -0.21    0.41   1
   0 -28  -3    0.44    0.26   1
   0  28  -3    0.89    0.31   1
   0  28   3    1.04    0.28   1
   0  28  -3    1.03    0.27   1
  -1  28  -3    0.19    0.23   1
  -2  28  -3   -0.15    0.18   1
   2  29  -3    0.43    0.23   1
   1 -29  -3    0.14    0.24   1
   1  29  -3   -0.04    0.20   1
   0  29  -3    0.01    0.26   1
   2  30  -3   -0.06    0.22   1
   6   0  -4    1.04    0.32   1
  -6   0   4    0.31    0.21   1
  -6   0   4    0.41    0.17   1
   6   0  -4    0.04    0.31   1
  -5   0   4   -0.07    0.11   1
   5   0  -4   -0.10    0.26   1
   5   0  -4    0.10    0.21   1
  -5   0   4   -0.11    0.15   1
  -4   0   4    5.90    0.38   1
   4   0  -4    7.05    0.46   1
  -4   0   4    6.29    0.43   1
   4   0  -4    7.10    0.58   1
   3   0  -4    1.03    0.21   1
   3   0  -4    1.26    0.12   1
  -3   0   4    0.82    0.11   1
  -3   0   4    1.11    0.16   1
  -3   0   4    0.64    0.09   1
   3   0  -4    1.23    0.18   1
  -2   0   4    3.34    0.19   1
   2   0  -4    3.13    0.25   1
  -2   0   4    3.32    0.24   1
   2   0  -4    3.34    0.19   1
  -2   0   4    3.08    0.23   1
   2   0  -4    3.24    0.31   1
   2   0  -4    3.89    0.20   1
   1   0  -4   53.45    2.57   1
   1   0  -4   53.97    2.57   1
  -1   0   4   52.03    3.08   1
   1   0  -4   50.74    3.08   1
   1   0  -4   52.94    2.55   1
  -1   0   4   52.23    2.57   1
  -1   0   4   52.04    2.57   1
   0   0   4   58.37    2.74   1
   0   0  -4   51.89    3.30   1
   0   0  -4   58.19    2.74   1
   0   0  -4   56.54    2.76   1
   0   0  -4   54.70    2.74   1
   0   0   4   58.84    2.74   1
  -2   0  -4    6.17    0.50   1
  -2   0  -4    6.70    0.43   1
   2   0   4    6.58    0.57   1
   1   0   6    0.52    0.20  -2
  -3   0  -4    0.52    0.20   1
  -1   0  -6    0.41    0.09  -2
   3   0   4    0.41    0.09   1
   1   0   6    0.23    0.13  -2
  -3   0  -4    0.23    0.13   1
  -1   0  -6    0.44    0.10  -2
   3   0   4    0.44    0.10   1
  -1   0  -6    0.47    0.28  -2
   3   0   4    0.47    0.28   1
  -4   0  -4    0.65    0.25   1
   4   0   4    0.91    0.40   1
   6  -1  -4    1.23    0.29   1
  -6  -1   4    0.84    0.24   1
   6  -1  -4    0.52    0.36   1
   6   1  -4    0.46    0.34   1
  -6   1   4    1.19    0.26   1
  -6   1   4    0.92    0.21   1
  -5  -1   4   -0.30    0.14   1
   5  -1  -4    0.05    0.19   1
  -5  -1   4   -0.11    0.10   1
   5  -1  -4    0.20    0.29   1
   5   1  -4   -0.17    0.25   1
  -5   1   4   -0.07    0.11   1
  -5   1   4    0.02    0.16   1
   5   1  -4    0.04    0.19   1
  -4  -1   4    3.53    0.30   1
  -4  -1   4    3.04    0.23   1
   4  -1  -4    3.39    0.43   1
   4  -1  -4    3.60    0.31   1
   4   1  -4    3.00    0.23   1
  -4   1   4    3.05    0.23   1
   4   1  -4    3.67    0.40   1
  -4   1   4    2.62    0.20   1
   4   1  -4    4.09    0.32   1
  -4   1   4    3.30    0.29   1
   3  -1  -4    7.70    0.59   1
   3  -1  -4    7.51    0.48   1
  -3  -1   4    7.88    0.42   1
  -3  -1   4    7.45    0.46   1
  -3  -1   4    8.32    0.42   1
   3  -1  -4    7.66    0.43   1
  -3   1   4    7.68    0.41   1
   3   1  -4    7.98    0.43   1
  -3   1   4    8.42    0.43   1
   3   1  -4    7.60    0.48   1
   3   1  -4    7.29    0.57   1
  -3   1   4    7.83    0.47   1
  -2  -1   4   12.34    0.66   1
   2  -1  -4   12.31    0.81   1
  -2  -1   4   12.55    0.63   1
   2  -1  -4   13.54    0.65   1
  -2  -1   4   12.28    0.67   1
   2  -1  -4   12.63    0.68   1
  -2   1   4   12.68    0.62   1
   2   1  -4   12.71    0.64   1
   2   1  -4   12.69    0.63   1
  -2   1   4   12.70    0.67   1
  -2   1   4   12.48    0.67   1
   2   1  -4   12.16    0.67   1
   2   1  -4   11.60    0.81   1
   1  -1  -4    0.66    0.10   1
  -1  -1   4    0.59    0.12   1
  -1  -1   4    0.31    0.08   1
  -1  -1   4    0.43    0.08   1
   1  -1  -4    0.71    0.13   1
   1   1  -4    0.70    0.14   1
  -1   1   4    0.95    0.14   1
  -1   1   4    0.39    0.08   1
   1   1  -4    0.56    0.09   1
   0  -1  -4    4.51    0.23   1
   0  -1  -4    3.98    0.22   1
   0  -1   4    3.72    0.22   1
   0  -1  -4    4.66    0.32   1
   0  -1   4    3.63    0.22   1
   0   1  -4    4.16    0.22   1
   0   1   4    4.01    0.22   1
   0   1   4    4.22    0.22   1
   0   1  -4    4.81    0.33   1
   0   1  -4    4.50    0.26   1
   0   1  -4    3.43    0.22   1
   2  -1   4    2.52    0.35   1
  -2  -1  -4    1.82    0.28   1
  -2   1  -4    1.69    0.27   1
   2   1   4    3.08    0.40   1
  -2   1  -4    2.20    0.25   1
  -1   1  -6    1.02    0.13  -2
   3  -1   4    1.02    0.13   1
   1   1   6    1.26    0.20  -2
  -3  -1  -4    1.26    0.20   1
  -1   1  -6    2.24    0.40  -2
   3  -1   4    2.24    0.40   1
   1   1   6    1.44    0.24  -2
  -3  -1  -4    1.44    0.24   1
  -1   1  -6    1.06    0.14  -2
   3  -1   4    1.06    0.14   1
   1  -1   6    2.26    0.29  -2
  -3   1  -4    2.26    0.29   1
  -1  -1  -6    1.19    0.14  -2
   3   1   4    1.19    0.14   1
  -1  -1  -6    2.13    0.39  -2
   3   1   4    2.13    0.39   1
   1  -1   6    1.38    0.20  -2
  -3   1  -4    1.38    0.20   1
   4  -1   4    1.55    0.42   1
  -4  -1  -4    0.83    0.28   1
   4   1   4    1.32    0.41   1
   4   1   4    0.87    0.16   1
  -4   1  -4    1.29    0.27   1
   6  -2  -4    0.85    0.27   1
   6  -2  -4    0.42    0.35   1
  -6   2   4    0.51    0.21   1
  -6   2   4    0.32    0.17   1
   6   2  -4    0.42    0.33   1
  -5  -2   4    1.21    0.18   1
  -5  -2   4    1.21    0.24   1
   5  -2  -4    0.97    0.35   1
   5  -2  -4    1.25    0.29   1
   5   2  -4    1.14    0.28   1
  -5   2   4    1.30    0.20   1
   5   2  -4    1.40    0.37   1
  -5   2   4    1.25    0.24   1
  -4  -2   4    0.23    0.09   1
   4  -2  -4    0.66    0.23   1
  -4  -2   4    0.43    0.15   1
   4   2  -4    0.82    0.18   1
   4   2  -4    0.31    0.21   1
  -4   2   4    0.13    0.07   1
  -4   2   4    0.30    0.11   1
  -4   2   4    0.74    0.17   1
  -3  -2   4    3.19    0.19   1
   3  -2  -4    2.73    0.34   1
   3  -2  -4    2.43    0.26   1
  -3  -2   4    2.92    0.19   1
  -3  -2   4    3.42    0.25   1
   3  -2  -4    2.76    0.21   1
  -3   2   4    2.49    0.24   1
   3   2  -4    3.18    0.19   1
   3   2  -4    3.75    0.27   1
   3   2  -4    3.22    0.33   1
  -3   2   4    2.95    0.20   1
  -3   2   4    2.81    0.18   1
  -2  -2   4    7.83    0.46   1
  -2  -2   4    8.04    0.46   1
   2  -2  -4    7.78    0.44   1
   2  -2  -4    8.73    0.48   1
  -2  -2   4    8.31    0.43   1
   2  -2  -4    8.37    0.58   1
  -2   2   4    8.29    0.42   1
   2   2  -4    7.30    0.43   1
  -2   2   4    9.11    0.47   1
   2   2  -4    9.46    0.60   1
   2   2  -4    7.08    0.46   1
   2   2  -4    8.73    0.44   1
  -2   2   4    9.87    0.48   1
   1  -2  -4    1.38    0.12   1
   1  -2  -4    1.79    0.16   1
  -1  -2   4    1.60    0.14   1
   1  -2  -4    1.52    0.10   1
   1  -2  -4    1.47    0.19   1
  -1  -2   4    1.65    0.14   1
  -1   2   4    1.62    0.17   1
   1   2  -4    1.41    0.14   1
   1   2  -4    1.72    0.14   1
  -1   2   4    1.46    0.14   1
   1   2  -4    2.26    0.21   1
  -1   2   4    1.35    0.14   1
   0  -2  -4    4.83    0.38   1
   0  -2   4    5.84    0.29   1
   0  -2   4    5.65    0.29   1
   0  -2  -4    5.64    0.30   1
   0  -2  -4    4.94    0.28   1
   0   2  -4    6.21    0.41   1
   0   2   4    4.98    0.29   1
   0   2  -4    6.07    0.29   1
   0   2  -4    6.58    0.33   1
   0   2  -4    4.81    0.29   1
   0   2   4    5.09    0.29   1
  -1  -2  -4    5.35    0.42   1
  -2  -2  -4    1.82    0.28   1
   2  -2   4    2.61    0.38   1
   2   2   4    2.21    0.35   1
  -2   2  -4    2.07    0.24   1
  -2   2  -4    1.68    0.25   1
   1   2   6    5.26    0.39  -2
  -3  -2  -4    5.26    0.39   1
  -1   2  -6    5.52    0.52  -2
   3  -2   4    5.52    0.52   1
  -1   2  -6    4.17    0.27  -2
   3  -2   4    4.17    0.27   1
   1   2   6    4.06    0.39  -2
  -3  -2  -4    4.06    0.39   1
  -1  -2  -6    4.23    0.28  -2
   3   2   4    4.23    0.28   1
   1  -2   6    5.29    0.39  -2
  -3   2  -4    5.29    0.39   1
   1  -2   6    4.09    0.37  -2
  -3   2  -4    4.09    0.37   1
  -1  -2  -6    4.64    0.51  -2
   3   2   4    4.64    0.51   1
  -4  -2  -4    0.45    0.25   1
   4  -2   4    0.56    0.34   1
  -4   2  -4    1.10    0.28   1
   4   2   4    0.36    0.14   1
   4   2   4    0.66    0.37   1
   6   3  -4   -0.03    0.29   1
  -6   3   4    0.23    0.16   1
  -5  -3   4    0.56    0.19   1
   5  -3  -4    0.37    0.21   1
   5  -3  -4    0.36    0.30   1
  -5  -3   4    0.50    0.14   1
   5   3  -4    0.47    0.22   1
   5   3  -4    0.54    0.28   1
  -5   3   4    0.65    0.20   1
  -5   3   4    0.32    0.14   1
   4  -3  -4    8.51    0.52   1
  -4  -3   4    7.27    0.48   1
   4  -3  -4    8.30    0.64   1
  -4  -3   4    7.14    0.42   1
  -4   3   4    6.59    0.40   1
   4   3  -4    7.46    0.50   1
   4   3  -4    7.70    0.62   1
  -4   3   4    7.24    0.47   1
  -4   3   4    7.00    0.44   1
  -3  -3   4    1.77    0.21   1
  -3  -3   4    1.98    0.13   1
   3  -3  -4    1.75    0.16   1
   3  -3  -4    1.96    0.24   1
  -3  -3   4    1.81    0.15   1
   3  -3  -4    1.75    0.27   1
  -3   3   4    1.68    0.12   1
   3   3  -4    1.76    0.27   1
  -3   3   4    1.93    0.21   1
  -3   3   4    2.02    0.16   1
   3   3  -4    1.78    0.21   1
   2  -3  -4   19.70    1.14   1
  -2  -3   4   20.04    0.95   1
  -2   3   4   16.41    0.94   1
   2   3  -4   17.55    1.14   1
   2   3  -4   16.64    0.91   1
   2   3  -4   19.44    0.95   1
  -1  -3   4    1.61    0.12   1
  -1  -3   4    1.17    0.13   1
   1  -3  -4    1.17    0.12   1
   1  -3  -4    1.50    0.15   1
   1  -3  -4    1.33    0.12   1
   1  -3  -4    1.34    0.19   1
   1  -3  -4    1.43    0.09   1
  -1   3   4    1.55    0.17   1
   1   3  -4    1.28    0.14   1
   1   3  -4    1.65    0.12   1
   1   3  -4    1.60    0.19   1
   1   3  -4    1.26    0.14   1
  -1   3   4    1.41    0.13   1
  -1   3   4    1.25    0.13   1
   0  -3   4    0.94    0.09   1
   0  -3  -4    0.99    0.08   1
   0  -3   4    0.74    0.09   1
   0   3  -4    0.70    0.09   1
   0   3   4    0.91    0.09   1
   0   3  -4    0.84    0.09   1
  -1  -3  -4    1.56    0.23   1
  -1   3  -4    1.49    0.17   1
  -2  -3  -4    1.12    0.21   1
   2  -3   4    1.14    0.30   1
  -2   3  -4    0.90    0.19   1
   2   3   4    1.31    0.31   1
  -1   3  -6    8.96    0.69  -2
   3  -3   4    8.96    0.69   1
   1   3   6    7.94    0.52  -2
  -3  -3  -4    7.94    0.52   1
  -1   3  -6    7.10    0.42  -2
   3  -3   4    7.10    0.42   1
   1   3   6    7.45    0.58  -2
  -3  -3  -4    7.45    0.58   1
  -1  -3  -6    8.01    0.66  -2
   3   3   4    8.01    0.66   1
   1  -3   6    8.91    0.53  -2
  -3   3  -4    8.91    0.53   1
   1  -3   6    7.11    0.55  -2
  -3   3  -4    7.11    0.55   1
  -1  -3  -6    7.49    0.43  -2
   3   3   4    7.49    0.43   1
   4  -3   4    0.80    0.38   1
   4  -3   4    0.55    0.15   1
  -4  -3  -4    0.78    0.26   1
  -4   3  -4    0.94    0.26   1
   4   3   4    1.11    0.40   1
  -6   4   4    2.27    0.28   1
   6   4  -4    2.64    0.49   1
  -6   4   4    2.99    0.35   1
   5  -4  -4    0.15    0.28   1
   5  -4  -4    0.16    0.20   1
  -5  -4   4   -0.05    0.10   1
  -5  -4   4    0.14    0.16   1
  -5   4   4    0.07    0.17   1
   5   4  -4    0.14    0.21   1
   5   4  -4    0.05    0.23   1
  -5   4   4   -0.06    0.11   1
  -4  -4   4    3.67    0.30   1
  -4  -4   4    2.73    0.21   1
   4   4  -4    4.22    0.42   1
  -4   4   4    3.01    0.25   1
  -4   4   4    2.85    0.20   1
  -3  -4   4    1.11    0.18   1
  -3  -4   4    0.96    0.12   1
   3  -4  -4    0.92    0.13   1
  -3  -4   4    1.05    0.09   1
   3  -4  -4    0.80    0.18   1
   3  -4  -4    1.11    0.24   1
  -3   4   4    1.10    0.17   1
  -3   4   4    1.02    0.14   1
   3   4  -4    1.54    0.21   1
   3   4  -4    1.45    0.24   1
  -3   4   4    0.84    0.08   1
   2  -4  -4    7.00    0.45   1
  -2  -4   4    7.59    0.44   1
   2  -4  -4    8.11    0.43   1
  -2  -4   4    8.16    0.44   1
   2  -4  -4    7.48    0.55   1
  -2  -4   4    7.50    0.42   1
   2   4  -4    7.39    0.44   1
   2   4  -4    8.12    0.42   1
   2   4  -4    7.85    0.55   1
  -2   4   4    8.07    0.45   1
  -2   4   4    7.72    0.44   1
   1  -4  -4    0.87    0.11   1
  -1  -4   4    0.87    0.12   1
   1  -4  -4    0.78    0.10   1
  -1  -4   4    1.19    0.12   1
   1  -4  -4    0.99    0.13   1
   1  -4  -4    1.05    0.17   1
  -1  -4   4    1.16    0.11   1
  -1   4   4    0.76    0.11   1
  -1   4   4    1.05    0.14   1
   1   4  -4    1.10    0.13   1
   1   4  -4    1.24    0.18   1
   1   4  -4    0.99    0.12   1
  -1   4   4    0.92    0.12   1
   1   4  -4    1.19    0.11   1
   0  -4  -4   11.13    0.67   1
   0  -4   4    8.91    0.53   1
   0  -4   4   10.45    0.54   1
   0  -4  -4   11.78    0.55   1
   0  -4  -4   11.25    0.72   1
   0  -4  -4   11.16    0.54   1
   0   4  -4   10.30    0.53   1
   0   4  -4    9.68    0.69   1
   0   4  -4    9.94    0.56   1
   0   4   4   11.95    0.54   1
   0   4  -4   10.36    0.54   1
   0   4  -4   10.20    0.56   1
  -1  -4  -4    0.43    0.15   1
  -1  -4  -4    0.46    0.12   1
  -1   4  -4    0.71    0.13   1
   1   4   4    0.83    0.08   1
   1   4   4    0.92    0.07   1
  -1   4  -4    0.51    0.13   1
   2  -4   4    6.36    0.52   1
  -2  -4  -4    5.90    0.47   1
   2   4   4    4.81    0.30   1
   2   4   4    4.72    0.30   1
   2   4   4    5.48    0.53   1
  -2   4  -4    6.54    0.39   1
  -1   4  -6    7.25    0.62  -2
   3  -4   4    7.25    0.62   1
  -1   4  -6    5.43    0.36  -2
   3  -4   4    5.43    0.36   1
   1   4   6    7.15    0.54  -2
  -3  -4  -4    7.15    0.54   1
  -1  -4  -6    6.42    0.38  -2
   3   4   4    6.42    0.38   1
   1  -4   6    6.73    0.47  -2
  -3   4  -4    6.73    0.47   1
   1  -4   6    6.30    0.48  -2
  -3   4  -4    6.30    0.48   1
  -1  -4  -6    7.67    0.62  -2
   3   4   4    7.67    0.62   1
   4  -4   4    1.21    0.39   1
  -4  -4  -4    0.90    0.26   1
   4   4   4    0.76    0.16   1
  -4   4  -4    0.89    0.25   1
   4   4   4    1.13    0.41   1
   5  -4   4    0.62    0.43   1
   6  -5  -4    2.25    0.36   1
   6   5  -4    1.69    0.43   1
  -6   5   4    1.90    0.28   1
  -6   5   4    2.36    0.33   1
   5  -5  -4    1.74    0.37   1
  -5  -5   4    1.12    0.17   1
  -5  -5   4    1.17    0.24   1
   5   5  -4    0.68    0.27   1
   5   5  -4    1.24    0.29   1
  -5   5   4    2.13    0.27   1
  -5   5   4    1.31    0.21   1
  -4  -5   4    7.23    0.49   1
   4  -5  -4    7.75    0.65   1
   4  -5  -4    7.92    0.51   1
  -4  -5   4    6.95    0.41   1
   4   5  -4    7.40    0.49   1
  -4   5   4    6.68    0.44   1
   4   5  -4    7.68    0.62   1
  -4   5   4    7.43    0.48   1
  -3  -5   4    0.49    0.07   1
  -3  -5   4    0.56    0.13   1
   3   5  -4    0.75    0.19   1
   3   5  -4    0.71    0.16   1
  -3   5   4    0.64    0.12   1
  -3   5   4    0.60    0.06   1
  -2  -5   4    0.45    0.08   1
   2  -5  -4    0.21    0.11   1
  -2  -5   4    0.28    0.09   1
  -2  -5   4    0.16    0.10   1
   2  -5  -4    0.33    0.09   1
   2  -5  -4    0.32    0.14   1
  -2   5   4    0.22    0.10   1
   2   5  -4    0.26    0.11   1
   2   5  -4    0.38    0.13   1
  -2   5   4    0.22    0.10   1
   1  -5  -4    3.16    0.22   1
  -1  -5   4    3.44    0.21   1
   1  -5  -4    2.85    0.20   1
  -1  -5   4    3.17    0.20   1
   1  -5  -4    2.59    0.19   1
  -1  -5   4    3.01    0.20   1
   1  -5  -4    3.00    0.26   1
   1   5  -4    3.02    0.21   1
   1   5  -4    3.49    0.28   1
   1   5  -4    3.02    0.21   1
  -1   5   4    3.03    0.21   1
  -1   5   4    2.86    0.21   1
   1   5  -4    3.31    0.20   1
   1   5  -4    2.44    0.16   1
  -1   5   4    2.81    0.24   1
   0  -5  -4    5.31    0.30   1
   0  -5  -4    5.62    0.32   1
   0  -5  -4    5.66    0.45   1
   0  -5  -4    5.57    0.39   1
   0  -5   4    5.91    0.31   1
   0   5  -4    5.88    0.30   1
   0   5  -4    5.83    0.42   1
   0   5  -4    6.41    0.34   1
   0   5  -4    5.61    0.31   1
   0   5  -4    5.10    0.32   1
   0   5   4    5.81    0.31   1
  -1  -5  -4   16.07    1.05   1
  -1  -5  -4   15.90    0.80   1
  -1  -5  -4   15.42    0.79   1
  -1  -5  -4   15.22    0.98   1
   1   5   4   16.36    0.80   1
   1   5   4   16.72    0.80   1
  -1   5  -4   16.52    0.85   1
  -1   5  -4   16.29    0.85   1
  -2  -5  -4    7.59    0.54   1
   2   5   4    7.01    0.61   1
   2   5   4    5.93    0.36   1
   2   5   4    6.58    0.36   1
   1   5   6    4.47    0.44  -2
  -3  -5  -4    4.47    0.44   1
  -1   5  -6    4.35    0.28  -2
   3  -5   4    4.35    0.28   1
  -1   5  -6    5.07    0.52  -2
   3  -5   4    5.07    0.52   1
  -1  -5  -6    5.29    0.51  -2
   3   5   4    5.29    0.51   1
   1  -5   6    4.43    0.38  -2
  -3   5  -4    4.43    0.38   1
   1  -5   6    4.27    0.37  -2
  -3   5  -4    4.27    0.37   1
  -1  -5  -6    4.93    0.31  -2
   3   5   4    4.93    0.31   1
   4  -5   4    3.39    0.52   1
  -4  -5  -4    2.84    0.36   1
   4  -5   4    2.51    0.25   1
   4   5   4    3.25    0.54   1
   4   5   4    2.36    0.25   1
  -4   5  -4    2.81    0.35   1
   6  -6  -4    1.55    0.32   1
  -6   6   4    1.57    0.25   1
   6   6  -4    1.06    0.39   1
  -5  -6   4    6.18    0.47   1
   5  -6  -4    5.14    0.61   1
   5  -6  -4    5.38    0.47   1
   5   6  -4    6.30    0.51   1
  -5   6   4    5.74    0.40   1
  -5   6   4    6.21    0.45   1
   5   6  -4    4.60    0.55   1
  -4  -6   4    0.59    0.18   1
   4  -6  -4    0.79    0.27   1
  -4  -6   4    0.41    0.10   1
   4  -6  -4    0.85    0.21   1
   4   6  -4    1.18    0.21   1
  -4   6   4    0.65    0.15   1
  -4   6   4    1.02    0.19   1
   4   6  -4    1.35    0.29   1
  -3  -6   4   21.38    1.11   1
   3  -6  -4   21.25    1.12   1
  -3  -6   4   20.36    1.04   1
   3  -6  -4   22.27    1.34   1
   3  -6  -4   20.18    1.34   1
   3   6  -4   20.43    1.11   1
  -3   6   4   23.36    1.11   1
  -3   6   4   19.74    1.02   1
   3   6  -4   19.23    1.32   1
  -3   6   4   22.27    1.09   1
  -2  -6   4    9.02    0.48   1
  -2  -6   4    9.09    0.49   1
   2  -6  -4    8.79    0.50   1
  -2  -6   4    8.51    0.46   1
   2  -6  -4    8.26    0.47   1
   2  -6  -4    8.08    0.59   1
   2  -6  -4    8.77    0.61   1
  -2   6   4    8.23    0.48   1
  -2   6   4    7.63    0.48   1
   2   6  -4    7.98    0.59   1
   2   6  -4    8.50    0.46   1
   2   6  -4    8.38    0.48   1
  -1  -6   4   23.39    1.15   1
   1  -6  -4   23.65    1.42   1
  -1  -6   4   23.73    1.14   1
   1  -6  -4   22.82    1.37   1
   1  -6  -4   20.98    1.15   1
   1  -6  -4   22.97    1.15   1
  -1  -6   4   22.98    1.14   1
  -1   6   4   22.59    1.36   1
   1   6  -4   23.00    1.16   1
   1   6  -4   21.79    1.39   1
  -1   6   4   23.35    1.15   1
  -1   6   4   23.41    1.14   1
   1   6  -4   21.08    1.11   1
   1   6  -4   22.29    1.14   1
   1   6  -4   22.52    1.14   1
   0  -6  -4   23.71    1.24   1
   0  -6  -4   24.71    1.50   1
   0  -6  -4   25.34    1.57   1
   0  -6   4   26.60    1.25   1
   0  -6  -4   25.42    1.26   1
   0   6   4   26.40    1.25   1
   0   6  -4   23.36    1.53   1
   0   6  -4   24.91    1.26   1
   0   6  -4   25.66    1.24   1
   0   6   4   25.58    1.26   1
   0   6  -4   24.53    1.25   1
   0   6  -4   25.81    1.27   1
  -1  -6  -4    9.47    0.49   1
   1  -6   4   10.33    0.48   1
  -1  -6  -4    8.79    0.60   1
   1  -6   4   10.11    0.48   1
  -1  -6  -4    9.04    0.48   1
  -1  -6  -4    8.98    0.68   1
  -1   6  -4    9.49    0.54   1
   1   6   4    8.78    0.49   1
   1   6   4    9.84    0.49   1
  -1   6  -4    9.75    0.54   1
   2  -6   4   26.09    1.26   1
  -2  -6  -4   25.22    1.62   1
   2  -6   4   24.92    1.65   1
  -2  -6  -4   25.75    1.27   1
   2  -6   4   24.64    1.26   1
   2   6   4   25.29    1.67   1
  -2   6  -4   26.43    1.34   1
  -2   6  -4   26.35    1.34   1
   2   6   4   24.52    1.28   1
   2   6   4   27.04    1.28   1
  -1   6  -6    1.18    0.15  -2
   3  -6   4    1.18    0.15   1
   1   6   6    1.05    0.22  -2
  -3  -6  -4    1.05    0.22   1
  -1   6  -6    1.33    0.32  -2
   3  -6   4    1.33    0.32   1
  -1  -6  -6    1.78    0.35  -2
   3   6   4    1.78    0.35   1
   1  -6   6    1.57    0.20  -2
  -3   6  -4    1.57    0.20   1
   1  -6   6    1.54    0.25  -2
  -3   6  -4    1.54    0.25   1
  -1  -6  -6    0.84    0.14  -2
   3   6   4    0.84    0.14   1
   4  -6   4    2.18    0.23   1
   4  -6   4    2.75    0.51   1
  -4  -6  -4    1.69    0.30   1
   4   6   4    2.05    0.48   1
   4   6   4    1.78    0.23   1
  -4   6  -4    2.12    0.33   1
  -6  -7   4    0.02    0.20   1
  -6   7   4    0.10    0.15   1
   6   7  -4    0.11    0.27   1
  -6   7   4    0.34    0.22   1
   6   7  -4    0.13    0.32   1
   5  -7  -4    0.58    0.33   1
  -5  -7   4    1.06    0.22   1
   5  -7  -4    0.86    0.26   1
  -5   7   4    1.02    0.23   1
   5   7  -4    1.21    0.30   1
  -5   7   4    0.75    0.18   1
  -4  -7   4    4.58    0.29   1
   4  -7  -4    5.25    0.41   1
   4  -7  -4    5.73    0.46   1
   4  -7  -4    5.47    0.54   1
  -4   7   4    5.06    0.39   1
   4   7  -4    4.60    0.40   1
  -4   7   4    4.39    0.34   1
   4   7  -4    5.16    0.49   1
  -3  -7   4   16.49    0.85   1
   3  -7  -4   16.09    1.13   1
  -3  -7   4   17.60    0.94   1
   3  -7  -4   17.01    0.95   1
   3  -7  -4   18.49    1.14   1
   3   7  -4   17.94    0.90   1
   3   7  -4   18.14    0.94   1
  -3   7   4   17.53    0.92   1
   3   7  -4   17.02    1.12   1
  -3   7   4   16.94    0.93   1
  -2  -7   4    8.73    0.50   1
   2  -7  -4    9.11    0.54   1
   2  -7  -4    8.81    0.65   1
   2  -7  -4    8.56    0.63   1
  -2  -7   4    9.51    0.52   1
  -2  -7   4    9.39    0.51   1
   2   7  -4    8.99    0.63   1
  -2   7   4    8.84    0.52   1
   2   7  -4    9.55    0.50   1
  -2   7   4    9.55    0.52   1
   2   7  -4    9.79    0.53   1
  -1  -7   4    0.20    0.07   1
   1  -7  -4    0.21    0.12   1
   1  -7  -4    0.30    0.09   1
  -1  -7   4    0.14    0.08   1
   1  -7  -4    0.52    0.12   1
  -1  -7   4    0.13    0.09   1
   1  -7  -4    0.30    0.11   1
   1   7  -4    0.26    0.09   1
  -1   7   4    0.20    0.10   1
  -1   7   4    0.31    0.09   1
  -1   7   4    0.28    0.09   1
   1   7  -4    0.45    0.09   1
   0  -7   4    9.41    0.48   1
   0  -7   4    8.79    0.48   1
   0  -7  -4    8.59    0.48   1
   0  -7  -4   10.12    0.66   1
   0  -7  -4    9.48    0.50   1
   0  -7  -4    9.52    0.58   1
   0   7  -4    9.22    0.51   1
   0   7  -4    9.11    0.48   1
   0   7  -4    8.59    0.62   1
   0   7   4    9.22    0.50   1
   0   7  -4    8.69    0.48   1
   0   7   4    9.53    0.49   1
   0   7  -4    8.63    0.49   1
   1  -7   4    0.91    0.10   1
   1  -7   4    0.90    0.09   1
  -1  -7  -4    0.74    0.19   1
  -1  -7  -4    0.82    0.13   1
  -1  -7  -4    0.66    0.09   1
  -1  -7  -4    0.57    0.09   1
  -1   7  -4    1.18    0.17   1
  -1   7  -4    0.83    0.08   1
  -1   7  -4    0.89    0.09   1
  -1   7  -4    0.85    0.14   1
   1   7   4    0.77    0.10   1
  -2  -7  -4    6.95    0.38   1
  -2  -7  -4    7.28    0.58   1
   2  -7   4    6.68    0.38   1
  -2   7  -4    7.74    0.47   1
  -2   7  -4    6.39    0.36   1
   2   7   4    6.83    0.62   1
  -2   7  -4    6.89    0.37   1
   2   7   4    7.31    0.39   1
  -2   7  -4    7.36    0.46   1
  -1   7  -6    0.54    0.11  -2
   3  -7   4    0.54    0.11   1
  -1   7  -6    0.67    0.28  -2
   3  -7   4    0.67    0.28   1
   1   7   6    0.49    0.18  -2
  -3  -7  -4    0.49    0.18   1
  -1  -7  -6    1.27    0.33  -2
   3   7   4    1.27    0.33   1
   1  -7   6    0.65    0.20  -2
  -3   7  -4    0.65    0.20   1
  -1  -7  -6    0.60    0.13  -2
   3   7   4    0.60    0.13   1
  -4  -7  -4    0.32    0.25   1
   4  -7   4    0.56    0.15   1
   4  -7   4    0.24    0.31   1
  -4   7  -4    0.26    0.20   1
   4   7   4    0.48    0.36   1
  -6  -8   4   -0.07    0.19   1
   6  -8  -4    0.25    0.27   1
   6   8  -4   -0.37    0.29   1
  -6   8   4    0.16    0.20   1
   6   8  -4   -0.10    0.25   1
  -6   8   4   -0.02    0.16   1
   5  -8  -4    1.06    0.27   1
  -5  -8   4    0.95    0.23   1
   5   8  -4    0.89    0.24   1
  -5   8   4    1.21    0.22   1
   5   8  -4    0.87    0.30   1
  -5   8   4    0.88    0.22   1
   4  -8  -4    3.73    0.36   1
  -4  -8   4    3.30    0.22   1
  -4  -8   4    4.03    0.33   1
   4  -8  -4    3.65    0.49   1
   4   8  -4    4.42    0.44   1
  -4   8   4    3.37    0.28   1
  -4   8   4    3.69    0.34   1
   4   8  -4    4.07    0.38   1
  -3  -8   4    1.31    0.20   1
   3  -8  -4    0.97    0.23   1
   3  -8  -4    1.35    0.26   1
   3  -8  -4    1.34    0.22   1
  -3   8   4    2.07    0.24   1
  -3   8   4    1.34    0.17   1
   2  -8  -4    6.67    0.53   1
   2  -8  -4    7.46    0.56   1
  -2  -8   4    7.47    0.43   1
  -2  -8   4    7.15    0.43   1
   2  -8  -4    7.07    0.45   1
  -2   8   4    7.71    0.43   1
   2   8  -4    6.96    0.41   1
   2   8  -4    7.35    0.43   1
   2   8  -4    7.16    0.53   1
  -2   8   4    6.88    0.43   1
  -1  -8   4   19.38    0.92   1
  -1  -8   4   17.95    0.91   1
   1  -8  -4   17.32    1.14   1
   1  -8  -4   16.69    1.08   1
   1  -8  -4   17.42    0.92   1
   1   8  -4   17.48    1.11   1
   1   8  -4   18.70    0.91   1
  -1   8   4   17.02    0.92   1
  -1   8   4   16.98    1.07   1
   1   8  -4   18.35    0.91   1
  -1   8   4   17.27    0.91   1
   0  -8   4   15.65    0.75   1
   0  -8  -4   14.05    0.97   1
   0  -8  -4   14.53    0.76   1
   0  -8   4   15.59    0.75   1
   0  -8  -4   13.29    0.73   1
   0  -8  -4   13.54    0.89   1
   0   8  -4   16.07    0.78   1
   0   8   4   14.16    0.75   1
   0   8  -4   14.22    0.75   1
   0   8  -4   15.83    0.75   1
   0   8  -4   14.87    0.75   1
   0   8   4   13.24    0.76   1
   1  -8   4    2.89    0.20   1
  -1  -8  -4    2.75    0.20   1
  -1  -8  -4    3.05    0.23   1
  -1  -8  -4    3.50    0.36   1
   1   8   4    2.89    0.21   1
   1   8   4    3.15    0.20   1
  -1   8  -4    2.77    0.19   1
  -1   8  -4    2.77    0.18   1
  -1   8  -4    2.91    0.26   1
  -1   8  -4    2.72    0.22   1
  -2  -8  -4    7.61    0.61   1
   2  -8   4    7.66    0.41   1
  -2  -8  -4    6.77    0.41   1
   2  -8   4    7.88    0.40   1
   2   8   4    6.62    0.63   1
  -2   8  -4    7.94    0.47   1
   2   8   4    7.20    0.42   1
  -2   8  -4    7.43    0.39   1
  -2   8  -4    7.39    0.48   1
  -1   8  -6    1.40    0.16  -2
   3  -8   4    1.40    0.16   1
  -1   8  -6    1.99    0.37  -2
   3  -8   4    1.99    0.37   1
   1   8   6    1.19    0.25  -2
  -3  -8  -4    1.19    0.25   1
  -1  -8  -6    1.78    0.37  -2
   3   8   4    1.78    0.37   1
   1  -8   6    1.37    0.24  -2
  -3   8  -4    1.37    0.24   1
   1  -8   6    1.44    0.24  -2
  -3   8  -4    1.44    0.24   1
  -1  -8  -6    1.21    0.16  -2
   3   8   4    1.21    0.16   1
  -4  -8  -4   -0.13    0.21   1
   4  -8   4    0.01    0.13   1
   4  -8   4    0.01    0.31   1
  -4   8  -4    0.01    0.20   1
   4   8   4    0.08    0.33   1
  -6  -9   4    0.29    0.23   1
   6  -9  -4    0.82    0.29   1
  -6   9   4    0.20    0.18   1
   6   9  -4   -0.11    0.30   1
   5  -9  -4    1.09    0.28   1
  -5  -9   4    0.97    0.23   1
   5   9  -4    0.70    0.26   1
  -5   9   4    1.10    0.25   1
  -5   9   4    0.83    0.20   1
   5   9  -4    0.84    0.29   1
  -4  -9   4    0.93    0.11   1
   4  -9  -4    1.27    0.34   1
  -4  -9   4    1.21    0.22   1
   4  -9  -4    1.51    0.27   1
  -4   9   4    1.03    0.11   1
  -4   9   4    1.17    0.19   1
  -4   9   4    1.29    0.22   1
   4   9  -4    1.49    0.29   1
   4   9  -4    1.62    0.25   1
  -3  -9   4    6.38    0.42   1
   3  -9  -4    5.80    0.54   1
   3  -9  -4    6.03    0.44   1
   3  -9  -4    6.09    0.54   1
  -3   9   4    5.87    0.41   1
   3   9  -4    5.82    0.44   1
  -3   9   4    6.48    0.39   1
   3   9  -4    6.28    0.39   1
   3   9  -4    5.50    0.50   1
   2  -9  -4    1.72    0.27   1
  -2  -9   4    2.37    0.21   1
   2  -9  -4    1.57    0.22   1
   2  -9  -4    2.30    0.29   1
  -2  -9   4    2.39    0.21   1
   2   9  -4    2.68    0.22   1
   2   9  -4    2.40    0.20   1
   2   9  -4    3.12    0.28   1
  -2   9   4    2.98    0.23   1
  -2   9   4    1.60    0.21   1
  -1  -9   4   12.79    0.67   1
   1  -9  -4   12.04    0.68   1
   1  -9  -4   12.71    0.86   1
   1  -9  -4   11.71    0.79   1
  -1  -9   4   12.63    0.66   1
   1   9  -4   13.20    0.67   1
   1   9  -4   13.51    0.67   1
  -1   9   4   12.36    0.68   1
  -1   9   4   11.44    0.77   1
  -1   9   4   12.24    0.67   1
   1   9  -4   12.87    0.82   1
   0  -9  -4    6.47    0.39   1
   0  -9  -4    6.66    0.52   1
   0  -9  -4    6.65    0.43   1
   0  -9  -4    6.18    0.34   1
   0  -9   4    6.71    0.37   1
   0  -9   4    6.05    0.36   1
   0   9  -4    6.04    0.36   1
   0   9   4    5.98    0.38   1
   0   9  -4    6.96    0.40   1
   0   9   4    6.64    0.37   1
   0   9  -4    6.18    0.36   1
  -1  -9  -4    1.30    0.15   1
  -1  -9  -4    1.10    0.14   1
  -1  -9  -4    1.14    0.23   1
   1  -9   4    1.21    0.14   1
  -1   9  -4    1.16    0.12   1
   1   9   4    0.88    0.14   1
  -1   9  -4    1.47    0.17   1
  -1   9  -4    1.77    0.21   1
   1   9   4    1.16    0.14   1
   2  -9   4    2.85    0.21   1
  -2  -9  -4    3.11    0.38   1
  -2  -9  -4    2.41    0.20   1
  -2  -9  -4    2.34    0.23   1
  -2   9  -4    3.43    0.29   1
   2   9   4    2.67    0.40   1
   2   9   4    2.10    0.22   1
  -2   9  -4    3.20    0.19   1
   2   9   4    2.40    0.21   1
  -1   9  -6    0.67    0.13  -2
   3  -9   4    0.67    0.13   1
   1   9   6    0.54    0.21  -2
  -3  -9  -4    0.54    0.21   1
  -1   9  -6    0.98    0.30  -2
   3  -9   4    0.98    0.30   1
  -1  -9  -6    0.53    0.13  -2
   3   9   4    0.53    0.13   1
  -1  -9  -6    0.65    0.29  -2
   3   9   4    0.65    0.29   1
   1  -9   6    0.84    0.21  -2
  -3   9  -4    0.84    0.21   1
   1  -9   6    0.72    0.20  -2
  -3   9  -4    0.72    0.20   1
   4  -9   4    0.38    0.32   1
   4  -9   4    0.24    0.14   1
   4   9   4    0.68    0.38   1
  -4   9  -4    0.39    0.20   1
  -4   9  -4    0.21    0.20   1
   4   9   4    0.51    0.17   1
  -6  10   4    0.10    0.16   1
   6  10  -4   -0.32    0.29   1
   5 -10  -4    0.08    0.23   1
  -5 -10   4    0.13    0.19   1
   5  10  -4    0.34    0.24   1
  -5  10   4    0.44    0.17   1
  -5  10   4    0.55    0.21   1
   5  10  -4    0.20    0.23   1
   4 -10  -4    0.81    0.30   1
   4 -10  -4    1.02    0.25   1
  -4 -10   4    0.70    0.20   1
  -4  10   4    0.86    0.21   1
   4  10  -4    1.10    0.28   1
  -4  10   4    0.83    0.10   1
   4  10  -4    0.80    0.22   1
  -4  10   4    0.93    0.18   1
   3 -10  -4    1.97    0.28   1
   3 -10  -4    2.53    0.37   1
   3 -10  -4    1.78    0.31   1
  -3 -10   4    1.76    0.24   1
  -3  10   4    2.24    0.21   1
   3  10  -4    2.21    0.23   1
   3  10  -4    2.10    0.32   1
   3  10  -4    1.94    0.25   1
  -3  10   4    2.11    0.25   1
   2 -10  -4   -0.06    0.14   1
   2 -10  -4   -0.06    0.13   1
   2 -10  -4    0.13    0.15   1
   2  10  -4    0.18    0.11   1
  -2  10   4    0.18    0.12   1
  -2  10   4    0.10    0.11   1
   2  10  -4    0.18    0.10   1
  -1 -10   4    2.93    0.22   1
   1 -10  -4    3.06    0.27   1
  -1 -10   4    2.88    0.24   1
   1 -10  -4    2.71    0.35   1
   1 -10  -4    3.19    0.26   1
   1  10  -4    2.94    0.30   1
   1  10  -4    2.95    0.23   1
  -1  10   4    2.88    0.24   1
  -1  10   4    3.03    0.23   1
  -1  10   4    3.01    0.24   1
   1  10  -4    3.00    0.23   1
   0 -10   4   21.50    1.08   1
   0 -10  -4   22.00    1.37   1
   0 -10  -4   21.23    1.26   1
   0 -10   4   20.54    1.07   1
   0 -10  -4   21.51    1.10   1
   0 -10  -4   21.88    1.05   1
   0  10   4   20.45    1.09   1
   0  10   4   22.70    1.09   1
   0  10  -4   20.64    1.07   1
   0  10  -4   20.66    1.07   1
   0  10  -4   20.23    1.10   1
  -1 -10  -4    1.46    0.18   1
  -1 -10  -4    1.73    0.16   1
   1 -10   4    2.10    0.18   1
  -1 -10  -4    2.55    0.34   1
   1 -10   4    1.93    0.15   1
   1  10   4    1.85    0.18   1
  -1  10  -4    1.69    0.15   1
   1  10   4    1.37    0.19   1
  -1  10  -4    1.97    0.18   1
  -1  10  -4    2.34    0.23   1
  -2 -10  -4    0.44    0.11   1
   2 -10   4    0.58    0.12   1
  -2 -10  -4    0.73    0.22   1
  -2 -10  -4    0.48    0.10   1
   2  10   4    0.36    0.13   1
   2  10   4    0.46    0.14   1
   2  10   4    0.83    0.29   1
  -2  10  -4    0.79    0.18   1
  -2  10  -4    0.59    0.15   1
  -1  10  -6    0.40    0.13  -2
   3 -10   4    0.40    0.13   1
   1  10   6    0.46    0.21  -2
  -3 -10  -4    0.46    0.21   1
  -1  10  -6    0.39    0.25  -2
   3 -10   4    0.39    0.25   1
  -1 -10  -6    0.68    0.29  -2
   3  10   4    0.68    0.29   1
   1 -10   6    0.63    0.19  -2
  -3  10  -4    0.63    0.19   1
   1 -10   6    0.46    0.17  -2
  -3  10  -4    0.46    0.17   1
   4 -10   4    0.76    0.36   1
   4 -10   4    0.64    0.17   1
   4  10   4    1.09    0.41   1
  -4  10  -4    0.65    0.25   1
  -4  10  -4    0.75    0.25   1
   5 -10   4    0.08    0.36   1
  -6 -11   4   -0.03    0.20   1
  -6  11   4    0.24    0.22   1
   6  11  -4   -0.26    0.29   1
  -6  11   4    0.07    0.17   1
   5 -11  -4    0.48    0.24   1
  -5 -11   4    0.06    0.18   1
  -5  11   4    0.49    0.20   1
   5  11  -4    0.05    0.23   1
  -5  11   4    0.08    0.16   1
   4 -11  -4   -0.02    0.19   1
   4 -11  -4   -0.18    0.24   1
  -4 -11   4   -0.07    0.15   1
   4  11  -4    0.07    0.18   1
  -4  11   4   -0.08    0.16   1
   4  11  -4    0.24    0.20   1
  -4  11   4   -0.10    0.12   1
   3 -11  -4    3.21    0.42   1
   3 -11  -4    3.79    0.36   1
  -3 -11   4    3.19    0.31   1
   3 -11  -4    4.10    0.46   1
   3  11  -4    3.05    0.38   1
   3  11  -4    3.55    0.32   1
  -3  11   4    3.74    0.33   1
  -3  11   4    3.85    0.28   1
   3  11  -4    3.38    0.29   1
   2 -11  -4    1.08    0.24   1
   2 -11  -4    1.16    0.22   1
  -2 -11   4    1.74    0.18   1
   2 -11  -4    1.07    0.20   1
  -2 -11   4    1.65    0.21   1
   2  11  -4    1.64    0.19   1
  -2  11   4    0.95    0.17   1
   2  11  -4    1.63    0.25   1
   2  11  -4    1.37    0.19   1
   1 -11  -4    7.60    0.38   1
   1 -11  -4    7.61    0.53   1
   1 -11  -4    7.99    0.48   1
  -1 -11   4    7.81    0.44   1
   1 -11  -4    7.91    0.60   1
  -1 -11   4    7.61    0.45   1
  -1  11   4    7.92    0.45   1
   1  11  -4    7.74    0.45   1
   1  11  -4    6.86    0.54   1
  -1  11   4    7.59    0.45   1
  -1  11   4    7.14    0.50   1
   1  11  -4    7.22    0.44   1
   0 -11  -4    1.16    0.10   1
   0 -11  -4    1.01    0.16   1
   0 -11   4    0.91    0.13   1
   0 -11  -4    1.09    0.23   1
   0 -11  -4    1.01    0.15   1
   0 -11   4    1.03    0.15   1
   0  11   4    1.35    0.16   1
   0  11   4    1.19    0.17   1
   0  11  -4    1.14    0.14   1
   0  11  -4    0.86    0.12   1
   0  11  -4    0.95    0.16   1
  -1 -11  -4    3.19    0.25   1
  -1 -11  -4    2.95    0.22   1
  -1 -11  -4    3.21    0.41   1
   1 -11   4    3.14    0.21   1
   1 -11   4    3.24    0.24   1
  -1  11  -4    3.41    0.29   1
   1  11   4    3.18    0.24   1
   1  11   4    2.68    0.25   1
  -1  11  -4    3.07    0.21   1
  -1  11  -4    3.36    0.25   1
   2 -11   4    0.92    0.14   1
  -2 -11  -4    0.95    0.25   1
  -2 -11  -4    0.77    0.11   1
  -2  11  -4    0.74    0.16   1
   2  11   4    0.85    0.29   1
   2  11   4    1.01    0.15   1
  -2  11  -4    0.68    0.18   1
  -1  11  -6    1.10    0.17  -2
   3 -11   4    1.10    0.17   1
   1  11   6    1.19    0.28  -2
  -3 -11  -4    1.19    0.28   1
  -1 -11  -6    1.24    0.19  -2
   3  11   4    1.24    0.19   1
   1 -11   6    1.59    0.26  -2
  -3  11  -4    1.59    0.26   1
   1 -11   6    1.29    0.23  -2
  -3  11  -4    1.29    0.23   1
  -1 -11  -6    1.99    0.39  -2
   3  11   4    1.99    0.39   1
   4 -11   4    0.26    0.31   1
   4 -11   4    0.14    0.15   1
   4  11   4    0.18    0.35   1
  -4  11  -4    0.29    0.21   1
  -4  11  -4    0.22    0.21   1
  -6  12   4    0.39    0.20   1
   6  12  -4    0.00    0.32   1
   5 -12  -4    3.36    0.43   1
  -5 -12   4    3.49    0.37   1
   5  12  -4    3.25    0.40   1
   5  12  -4    2.73    0.43   1
  -5  12   4    3.39    0.37   1
  -5  12   4    2.77    0.30   1
  -4 -12   4    0.26    0.18   1
   4 -12  -4    0.23    0.20   1
   4  12  -4    0.31    0.21   1
  -4  12   4    0.12    0.16   1
   4  12  -4   -0.05    0.16   1
  -4  12   4    0.16    0.14   1
  -3 -12   4    3.25    0.30   1
   3 -12  -4    3.11    0.43   1
   3 -12  -4    3.02    0.34   1
   3 -12  -4    3.06    0.41   1
   3  12  -4    3.12    0.28   1
  -3  12   4    3.04    0.26   1
   3  12  -4    2.91    0.36   1
  -3  12   4    3.06    0.31   1
   3  12  -4    2.76    0.29   1
   2 -12  -4   13.23    0.79   1
   2 -12  -4   14.31    0.93   1
  -2 -12   4   14.35    0.78   1
   2 -12  -4   13.88    0.97   1
  -2 -12   4   12.93    0.75   1
   2  12  -4   14.22    0.75   1
   2  12  -4   14.44    0.94   1
   2  12  -4   14.03    0.77   1
  -2  12   4   13.74    0.77   1
   1 -12  -4    0.14    0.14   1
   1 -12  -4   -0.09    0.15   1
   1 -12  -4    0.10    0.12   1
  -1 -12   4    0.25    0.11   1
  -1 -12   4    0.11    0.08   1
   1 -12  -4    0.12    0.04   1
   1  12  -4    0.25    0.11   1
  -1  12   4    0.12    0.08   1
  -1  12   4    0.09    0.12   1
   1  12  -4    0.31    0.14   1
   1  12  -4    0.28    0.12   1
  -1  12   4    0.05    0.10   1
   0 -12  -4    0.08    0.12   1
   0 -12  -4    0.11    0.17   1
   0 -12   4    0.03    0.10   1
   0 -12  -4    0.13    0.09   1
   0 -12  -4    0.08    0.06   1
   0 -12   4    0.10    0.08   1
   0  12  -4    0.02    0.11   1
   0  12   4    0.00    0.12   1
   0  12   4   -0.02    0.10   1
   0  12  -4    0.12    0.09   1
   0  12  -4   -0.06    0.07   1
   1 -12   4    8.15    0.45   1
   1 -12   4    7.31    0.42   1
  -1 -12  -4    7.81    0.64   1
  -1 -12  -4    7.22    0.44   1
  -1  12  -4    7.36    0.44   1
  -1  12  -4    7.82    0.48   1
   1  12   4    6.72    0.45   1
   1  12   4    7.53    0.44   1
  -1  12  -4    7.41    0.42   1
   2 -12   4    2.26    0.21   1
  -2 -12  -4    2.16    0.35   1
  -2  12  -4    2.35    0.25   1
  -2  12  -4    2.34    0.28   1
   2  12   4    2.20    0.38   1
   2  12   4    2.04    0.21   1
  -1  12  -6    2.60    0.26  -2
   3 -12   4    2.60    0.26   1
   1  12   6    2.97    0.45  -2
  -3 -12  -4    2.97    0.45   1
   1 -12   6    3.13    0.32  -2
  -3  12  -4    3.13    0.32   1
  -1 -12  -6    3.06    0.27  -2
   3  12   4    3.06    0.27   1
   1 -12   6    3.20    0.32  -2
  -3  12  -4    3.20    0.32   1
  -1 -12  -6    3.45    0.49  -2
   3  12   4    3.45    0.49   1
   4 -12   4    0.07    0.16   1
   4  12   4    0.28    0.16   1
  -4  12  -4    0.22    0.22   1
  -4  12  -4   -0.04    0.21   1
   4  12   4    0.37    0.38   1
   6  13  -4    0.41    0.35   1
  -6  13   4    0.66    0.21   1
  -5 -13   4    0.57    0.22   1
   5 -13  -4    0.56    0.26   1
  -5  13   4    0.74    0.21   1
  -5  13   4    0.80    0.24   1
   5  13  -4    0.95    0.28   1
   5  13  -4    0.87    0.29   1
  -4 -13   4    2.40    0.31   1
   4 -13  -4    3.18    0.35   1
  -4  13   4    1.96    0.25   1
   4  13  -4    2.14    0.30   1
  -4  13   4    2.41    0.31   1
   4  13  -4    2.51    0.36   1
   3 -13  -4    0.16    0.19   1
   3 -13  -4    0.23    0.19   1
  -3 -13   4    0.11    0.14   1
   3 -13  -4    0.17    0.24   1
  -3  13   4    0.09    0.16   1
   3  13  -4    0.45    0.21   1
   3  13  -4    0.29    0.15   1
   3  13  -4    0.21    0.16   1
  -3  13   4    0.21    0.14   1
   2 -13  -4   34.98    2.19   1
   2 -13  -4   35.39    2.26   1
   2 -13  -4   33.05    1.86   1
  -2 -13   4   38.90    1.86   1
   2  13  -4   36.92    2.20   1
   2  13  -4   37.40    1.85   1
   2  13  -4   35.71    1.83   1
  -2  13   4   37.58    1.85   1
  -1 -13   4    1.83    0.18   1
   1 -13  -4    2.11    0.31   1
   1 -13  -4    1.85    0.24   1
   1 -13  -4    1.59    0.12   1
  -1 -13   4    1.83    0.21   1
   1 -13  -4    1.85    0.24   1
  -1  13   4    1.56    0.21   1
   1  13  -4    1.81    0.26   1
   1  13  -4    1.90    0.20   1
   1  13  -4    1.76    0.20   1
  -1  13   4    1.73    0.20   1
  -1  13   4    1.67    0.18   1
   0 -13  -4    0.49    0.15   1
   0 -13  -4    0.63    0.12   1
   0 -13  -4    0.78    0.23   1
   0 -13   4    0.31    0.11   1
   0 -13  -4    0.49    0.09   1
   0 -13   4    0.62    0.14   1
   0  13  -4    0.58    0.10   1
   0  13  -4    0.52    0.12   1
   0  13   4    0.30    0.15   1
   0  13  -4    0.53    0.14   1
   0  13   4    0.44    0.14   1
  -1 -13  -4   18.63    0.97   1
   1 -13   4   17.74    0.94   1
   1 -13   4   19.88    0.97   1
  -1 -13  -4   19.43    1.26   1
  -1  13  -4   18.39    1.00   1
  -1  13  -4   17.98    0.94   1
   1  13   4   16.49    0.97   1
   1  13   4   19.13    0.97   1
  -1  13  -4   17.88    0.96   1
  -2 -13  -4    1.55    0.30   1
   2 -13   4    1.70    0.20   1
   2  13   4    1.77    0.36   1
  -2  13  -4    1.46    0.21   1
   2  13   4    1.46    0.19   1
  -2  13  -4    1.63    0.24   1
  -1  13  -6    0.36    0.15  -2
   3 -13   4    0.36    0.15   1
   1  13   6    0.11    0.23  -2
  -3 -13  -4    0.11    0.23   1
   1 -13   6    0.52    0.19  -2
  -3  13  -4    0.52    0.19   1
   1 -13   6    0.26    0.17  -2
  -3  13  -4    0.26    0.17   1
  -1 -13  -6    0.57    0.30  -2
   3  13   4    0.57    0.30   1
  -1 -13  -6    0.21    0.14  -2
   3  13   4    0.21    0.14   1
   4 -13   4    0.37    0.18   1
  -4  13  -4    0.37    0.21   1
   4  13   4    0.61    0.39   1
  -4  13  -4    0.27    0.21   1
   4  13   4    0.33    0.17   1
   6  14  -4   -0.21    0.28   1
  -5 -14   4    0.30    0.22   1
   5 -14  -4    0.46    0.28   1
   5  14  -4    0.13    0.22   1
  -5  14   4    0.02    0.21   1
   5  14  -4    0.22    0.24   1
  -5  14   4   -0.01    0.16   1
   4 -14  -4    5.32    0.47   1
  -4 -14   4    4.34    0.43   1
  -4  14   4    4.68    0.41   1
  -4  14   4    4.19    0.36   1
   4  14  -4    5.40    0.49   1
   4  14  -4    5.03    0.42   1
  -3 -14   4   -0.03    0.15   1
   3 -14  -4    0.08    0.20   1
  -3  14   4    0.28    0.15   1
  -3  14   4    0.17    0.16   1
   3  14  -4    0.13    0.16   1
   3  14  -4    0.03    0.14   1
   3  14  -4    0.35    0.21   1
   2 -14  -4    2.62    0.32   1
   2 -14  -4    3.41    0.45   1
   2 -14  -4    3.09    0.37   1
  -2 -14   4    2.70    0.31   1
   2  14  -4    4.51    0.39   1
  -2  14   4    3.05    0.30   1
   2  14  -4    3.86    0.32   1
   2  14  -4    3.69    0.30   1
   1 -14  -4    2.94    0.29   1
  -1 -14   4    2.55    0.25   1
   1 -14  -4    2.32    0.16   1
   1 -14  -4    2.92    0.28   1
  -1 -14   4    2.44    0.22   1
   1 -14  -4    2.87    0.38   1
   1  14  -4    2.59    0.32   1
   1  14  -4    2.59    0.24   1
  -1  14   4    2.70    0.25   1
  -1  14   4    2.38    0.22   1
   1  14  -4    2.64    0.23   1
  -1  14   4    2.74    0.26   1
   0 -14   4   11.47    0.63   1
   0 -14   4   11.62    0.62   1
   0 -14  -4   10.87    0.60   1
   0 -14  -4   12.23    0.88   1
   0 -14   4   13.04    0.66   1
   0 -14  -4   10.74    0.66   1
   0  14   4   10.62    0.66   1
   0  14   4   11.27    0.65   1
   0  14  -4   11.74    0.61   1
   0  14  -4   11.51    0.66   1
   0  14  -4   12.51    0.64   1
  -1 -14  -4    9.69    0.72   1
   1 -14   4    7.44    0.46   1
   1 -14   4    8.86    0.50   1
  -1 -14  -4    7.74    0.50   1
   1  14   4    7.56    0.50   1
  -1  14  -4    8.52    0.53   1
  -1  14  -4    7.48    0.46   1
  -1  14  -4    8.02    0.48   1
   1  14   4    8.59    0.49   1
  -2 -14  -4    0.36    0.23   1
   2 -14   4    0.40    0.14   1
  -2  14  -4    0.61    0.19   1
  -2  14  -4    0.42    0.15   1
   2  14   4    0.24    0.14   1
   2  14   4    0.17    0.25   1
   1  14   6    0.44    0.27  -2
  -3 -14  -4    0.44    0.27   1
  -1  14  -6    0.89    0.18  -2
   3 -14   4    0.89    0.18   1
   1 -14   6    0.80    0.21  -2
  -3  14  -4    0.80    0.21   1
  -1 -14  -6    1.16    0.36  -2
   3  14   4    1.16    0.36   1
  -1 -14  -6    0.75    0.18  -2
   3  14   4    0.75    0.18   1
   1 -14   6    0.85    0.23  -2
  -3  14  -4    0.85    0.23   1
  -4 -14  -4   -0.52    0.29   1
   4  14   4    0.07    0.35   1
  -4  14  -4   -0.06    0.20   1
  -4  14  -4    0.26    0.21   1
  -5 -15   4    0.08    0.22   1
   5 -15  -4    0.13    0.24   1
  -5  15   4    0.06    0.15   1
  -5  15   4    0.22    0.21   1
   5  15  -4    0.12    0.23   1
   5  15  -4    0.01    0.23   1
   4 -15  -4    1.04    0.27   1
  -4 -15   4    1.08    0.25   1
  -4  15   4    0.83    0.19   1
   4  15  -4    1.37    0.28   1
   4  15  -4    0.76    0.23   1
  -4  15   4    0.99    0.23   1
   3 -15  -4    1.95    0.30   1
  -3 -15   4    2.34    0.29   1
  -3  15   4    2.06    0.27   1
   3  15  -4    2.20    0.33   1
  -3  15   4    2.01    0.24   1
   3  15  -4    2.19    0.29   1
   3  15  -4    2.65    0.30   1
   2 -15  -4    1.81    0.33   1
   2 -15  -4    2.57    0.32   1
  -2 -15   4    1.98    0.26   1
   2  15  -4    2.61    0.33   1
  -2  15   4    2.52    0.27   1
   2  15  -4    2.54    0.28   1
   2  15  -4    2.33    0.26   1
  -1 -15   4    0.19    0.14   1
   1 -15  -4    0.24    0.07   1
   1 -15  -4    0.29    0.17   1
   1 -15  -4    0.37    0.20   1
  -1 -15   4    0.24    0.10   1
  -1 -15   4    0.27    0.06   1
   1  15  -4    0.20    0.12   1
  -1  15   4    0.24    0.10   1
  -1  15   4    0.38    0.14   1
   1  15  -4    0.30    0.14   1
  -1  15   4    0.30    0.16   1
   1  15  -4    0.00    0.16   1
   0 -15  -4    5.29    0.51   1
   0 -15   4    3.90    0.27   1
   0 -15  -4    4.04    0.26   1
   0 -15   4    4.58    0.32   1
   0 -15   4    4.30    0.30   1
   0 -15  -4    4.46    0.35   1
   0  15  -4    4.64    0.28   1
   0  15  -4    4.03    0.33   1
   0  15   4    3.61    0.32   1
   0  15   4    4.50    0.32   1
   0  15  -4    4.24    0.31   1
  -1 -15  -4    1.04    0.30   1
  -1 -15  -4    0.93    0.18   1
   1 -15   4    1.42    0.21   1
  -1  15  -4    2.20    0.26   1
  -1  15  -4    1.76    0.20   1
  -1  15  -4    1.43    0.18   1
   1  15   4    1.92    0.22   1
   2 -15   4    0.71    0.17   1
  -2 -15  -4    0.40    0.24   1
   2  15   4    0.72    0.17   1
   2  15   4    0.47    0.28   1
  -2  15  -4    0.76    0.17   1
  -2  15  -4    0.77    0.20   1
  -1  15  -6    1.42    0.22  -2
   3 -15   4    1.42    0.22   1
   1  15   6    0.80    0.33  -2
  -3 -15  -4    0.80    0.33   1
  -1 -15  -6    1.24    0.22  -2
   3  15   4    1.24    0.22   1
  -1 -15  -6    1.47    0.39  -2
   3  15   4    1.47    0.39   1
   1 -15   6    1.17    0.23  -2
  -3  15  -4    1.17    0.23   1
   1 -15   6    1.02    0.23  -2
  -3  15  -4    1.02    0.23   1
   4 -15   4    0.24    0.18   1
   4  15   4    0.25    0.17   1
   4  15   4    0.30    0.35   1
  -4  15  -4    0.20    0.20   1
   5 -16  -4    0.64    0.30   1
  -5 -16   4    0.31    0.22   1
   5  16  -4    0.09    0.22   1
  -5  16   4    0.44    0.20   1
  -5  16   4    0.33    0.24   1
   5  16  -4    0.34    0.25   1
  -4 -16   4    0.16    0.20   1
   4 -16  -4    0.04    0.22   1
  -4  16   4    0.01    0.14   1
   4  16  -4    0.22    0.20   1
   4  16  -4   -0.06    0.19   1
  -4  16   4   -0.03    0.19   1
  -3 -16   4    0.40    0.18   1
   3 -16  -4    0.12    0.21   1
  -3  16   4    0.19    0.18   1
   3  16  -4    0.38    0.21   1
   3  16  -4    0.45    0.18   1
  -3  16   4    0.36    0.16   1
   3  16  -4    0.10    0.17   1
   2 -16  -4    4.09    0.40   1
  -2 -16   4    4.11    0.37   1
   2 -16  -4    3.68    0.50   1
  -2  16   4    4.11    0.35   1
   2  16  -4    5.31    0.44   1
   2  16  -4    4.51    0.34   1
   2  16  -4    4.44    0.37   1
   1 -16  -4    3.77    0.46   1
   1 -16  -4    3.36    0.32   1
  -1 -16   4    3.31    0.21   1
  -1 -16   4    3.78    0.31   1
  -1 -16   4    3.40    0.27   1
   1 -16  -4    3.35    0.21   1
  -1  16   4    3.41    0.30   1
   1  16  -4    3.90    0.31   1
   1  16  -4    3.57    0.37   1
  -1  16   4    3.20    0.27   1
   1  16  -4    3.51    0.29   1
   0 -16   4    0.46    0.15   1
   0 -16  -4    0.21    0.15   1
   0 -16   4    0.36    0.10   1
   0 -16  -4    0.35    0.23   1
   0 -16   4    0.30    0.11   1
   0 -16  -4    0.36    0.09   1
   0  16   4    0.19    0.16   1
   0  16  -4    0.39    0.10   1
   0  16   4    0.17    0.15   1
   0  16  -4    0.34    0.13   1
   0  16  -4    0.13    0.15   1
  -1 -16  -4    2.73    0.28   1
  -1 -16  -4    4.14    0.50   1
   1 -16   4    2.66    0.29   1
  -1  16  -4    3.76    0.31   1
   1  16   4    2.74    0.28   1
  -1  16  -4    2.66    0.24   1
  -1  16  -4    3.12    0.26   1
   2 -16   4    2.58    0.26   1
  -2 -16  -4    2.29    0.39   1
  -2  16  -4    2.19    0.25   1
  -2  16  -4    2.54    0.29   1
   2  16   4    2.09    0.39   1
   2  16   4    2.10    0.24   1
  -1  16  -6    0.99    0.21  -2
   3 -16   4    0.99    0.21   1
   1  16   6    0.26    0.30  -2
  -3 -16  -4    0.26    0.30   1
  -1 -16  -6    0.82    0.19  -2
   3  16   4    0.82    0.19   1
   1 -16   6    0.96    0.22  -2
  -3  16  -4    0.96    0.22   1
  -1 -16  -6    0.79    0.34  -2
   3  16   4    0.79    0.34   1
   1 -16   6    1.23    0.25  -2
  -3  16  -4    1.23    0.25   1
   4 -16   4    1.28    0.26   1
  -4 -16  -4    0.59    0.39   1
   4  16   4    1.04    0.41   1
   4  16   4    1.24    0.24   1
  -4  16  -4    1.64    0.30   1
  -5 -17   4   -0.13    0.19   1
   5 -17  -4    0.34    0.29   1
  -5  17   4    0.13    0.18   1
   5  17  -4    0.29    0.24   1
   5  17  -4    0.27    0.24   1
  -5  17   4    0.25    0.23   1
  -4 -17   4    1.36    0.27   1
   4 -17  -4    1.45    0.34   1
   4  17  -4    1.62    0.31   1
   4  17  -4    1.45    0.29   1
  -4  17   4    1.32    0.25   1
  -4  17   4    1.57    0.29   1
   3 -17  -4   -0.03    0.22   1
  -3 -17   4    0.05    0.16   1
  -3  17   4    0.07    0.15   1
   3  17  -4    0.06    0.20   1
  -3  17   4   -0.17    0.16   1
   3  17  -4    0.09    0.16   1
   3  17  -4   -0.05    0.16   1
   2 -17  -4   11.90    0.78   1
  -2 -17   4   13.97    0.77   1
   2 -17  -4   12.67    0.97   1
   2  17  -4   12.28    0.74   1
  -2  17   4   13.40    0.76   1
   2  17  -4   13.34    0.76   1
   2  17  -4   12.66    0.88   1
  -1 -17   4   -0.04    0.14   1
   1 -17  -4    0.21    0.22   1
   1 -17  -4    0.26    0.17   1
   1  17  -4    0.16    0.17   1
   1  17  -4    0.02    0.14   1
  -1  17   4    0.04    0.13   1
   1  17  -4    0.06    0.13   1
  -1  17   4    0.12    0.09   1
   0 -17  -4    0.30    0.24   1
   0 -17   4    0.24    0.16   1
   0 -17   4    0.37    0.10   1
   0 -17  -4    0.37    0.18   1
   0  17   4    0.15    0.15   1
   0  17  -4    0.27    0.11   1
   0  17   4    0.18    0.16   1
   0  17  -4    0.22    0.15   1
   0  17  -4    0.34    0.14   1
   1 -17   4    8.66    0.56   1
  -1 -17  -4    8.86    0.56   1
  -1 -17  -4   10.36    0.82   1
  -1  17  -4    8.57    0.57   1
  -1  17  -4    8.74    0.53   1
   1  17   4    9.38    0.56   1
   2 -17   4    0.91    0.20   1
  -2 -17  -4    0.58    0.29   1
   2  17   4    0.90    0.19   1
   2  17   4    0.61    0.30   1
  -2  17  -4    0.59    0.20   1
  -2  17  -4    0.65    0.17   1
  -1  17  -6    0.82    0.21  -2
   3 -17   4    0.82    0.21   1
   1  17   6    0.22    0.32  -2
  -3 -17  -4    0.22    0.32   1
   1 -17   6    1.06    0.25  -2
  -3  17  -4    1.06    0.25   1
  -1 -17  -6    0.81    0.20  -2
   3  17   4    0.81    0.20   1
  -1 -17  -6    1.03    0.38  -2
   3  17   4    1.03    0.38   1
   1 -17   6    0.70    0.21  -2
  -3  17  -4    0.70    0.21   1
   4 -17   4    0.00    0.19   1
  -4  17  -4    0.26    0.22   1
   4  17   4    0.06    0.18   1
  -5 -18   4    0.04    0.22   1
   5 -18  -4   -0.13    0.25   1
  -5  18   4   -0.19    0.14   1
   5  18  -4   -0.02    0.23   1
  -5  18   4    0.03    0.22   1
   5  18  -4   -0.02    0.22   1
   4 -18  -4    0.87    0.29   1
  -4 -18   4    0.58    0.22   1
   4  18  -4    0.77    0.24   1
  -4  18   4    0.80    0.26   1
  -4  18   4    0.61    0.20   1
   4  18  -4    0.67    0.25   1
  -3 -18   4    0.09    0.18   1
   3 -18  -4    0.12    0.22   1
   3  18  -4    0.02    0.16   1
   3  18  -4   -0.15    0.19   1
   3  18  -4   -0.06    0.16   1
  -3  18   4    0.12    0.19   1
   2 -18  -4    0.76    0.22   1
   2 -18  -4    0.50    0.25   1
   1 -18  -4    0.05    0.16   1
  -1 -18   4   -0.01    0.14   1
   1 -18  -4    0.03    0.24   1
   1  18  -4    0.09    0.15   1
   1  18  -4    0.05    0.13   1
  -1  18   4   -0.21    0.13   1
   1  18  -4    0.00    0.17   1
   0 -18   4    1.68    0.23   1
   0 -18  -4    1.80    0.26   1
   0 -18  -4    1.51    0.34   1
   0  18  -4    1.50    0.18   1
   0  18  -4    1.30    0.23   1
   0  18  -4    1.41    0.20   1
   0  18   4    2.00    0.25   1
  -1 -18  -4   -0.02    0.14   1
  -1 -18  -4    0.31    0.27   1
   1 -18   4   -0.04    0.15   1
  -1  18  -4    0.49    0.18   1
   1  18   4    0.37    0.16   1
  -1  18  -4    0.27    0.13   1
   2 -18   4    0.23    0.16   1
  -2 -18  -4    0.06    0.27   1
   2  18   4    0.10    0.26   1
  -2  18  -4   -0.20    0.16   1
   2  18   4    0.19    0.15   1
  -2  18  -4    0.11    0.14   1
  -1  18  -6    2.59    0.33  -2
   3 -18   4    2.59    0.33   1
   1  18   6    2.59    0.51  -2
  -3 -18  -4    2.59    0.51   1
  -1 -18  -6    3.44    0.33  -2
   3  18   4    3.44    0.33   1
   1 -18   6    3.30    0.34  -2
  -3  18  -4    3.30    0.34   1
   1 -18   6    3.73    0.37  -2
  -3  18  -4    3.73    0.37   1
  -1 -18  -6    3.36    0.53  -2
   3  18   4    3.36    0.53   1
   4  18   4   -0.14    0.18   1
   5  19  -4    0.28    0.26   1
  -4 -19   4    3.45    0.38   1
   4 -19  -4    3.89    0.43   1
   4  19  -4    3.58    0.42   1
   4  19  -4    3.42    0.42   1
  -4  19   4    3.06    0.34   1
  -4  19   4    3.28    0.41   1
   3 -19  -4    0.21    0.26   1
  -3 -19   4   -0.03    0.18   1
   3  19  -4    0.12    0.17   1
  -3  19   4   -0.10    0.17   1
   3  19  -4    0.09    0.19   1
   3  19  -4    0.19    0.22   1
  -2 -19   4    1.24    0.24   1
   2 -19  -4    1.67    0.31   1
   2  19  -4    1.49    0.28   1
   2  19  -4    1.31    0.22   1
  -2  19   4    1.26    0.23   1
   2  19  -4    1.23    0.23   1
  -1 -19   4    0.60    0.18   1
   1 -19  -4    0.38    0.27   1
   1 -19  -4    0.52    0.21   1
   1  19  -4    0.21    0.14   1
   1  19  -4    0.30    0.18   1
  -1  19   4    0.45    0.17   1
   1  19  -4    0.55    0.22   1
   0 -19   4    0.14    0.17   1
   0 -19  -4    0.17    0.27   1
   0 -19  -4    0.26    0.18   1
   0  19   4    0.09    0.16   1
   0  19  -4    0.16    0.11   1
   0  19  -4    0.54    0.19   1
   0  19  -4    0.19    0.14   1
   1 -19   4    2.69    0.30   1
  -1 -19  -4    2.23    0.43   1
  -1  19  -4    2.51    0.23   1
   1  19   4    2.05    0.26   1
  -1  19  -4    2.29    0.29   1
   2 -19   4    1.87    0.27   1
  -2 -19  -4    1.29    0.39   1
   2  19   4    1.63    0.24   1
  -2  19  -4    1.80    0.26   1
  -2  19  -4    2.40    0.32   1
  -1  19  -6    0.11    0.18  -2
   3 -19   4    0.11    0.18   1
   1  19   6   -0.20    0.33  -2
  -3 -19  -4   -0.20    0.33   1
   1 -19   6    0.18    0.18  -2
  -3  19  -4    0.18    0.18   1
  -1 -19  -6    0.42    0.20  -2
   3  19   4    0.42    0.20   1
  -1 -19  -6    0.73    0.35  -2
   3  19   4    0.73    0.35   1
   1 -19   6    0.27    0.21  -2
  -3  19  -4    0.27    0.21   1
   4 -19   4   -0.01    0.20   1
   4 -20  -4    1.83    0.40   1
  -4 -20   4    1.47    0.28   1
  -4  20   4    1.11    0.26   1
  -4  20   4    1.67    0.33   1
   4  20  -4    1.45    0.29   1
   4  20  -4    1.38    0.31   1
  -3 -20   4    0.18    0.19   1
   3 -20  -4    0.25    0.26   1
   3  20  -4    0.38    0.23   1
   3  20  -4    0.17    0.18   1
  -3  20   4    0.39    0.23   1
   3  20  -4    0.16    0.19   1
   2 -20  -4    0.48    0.24   1
   2 -20  -4    0.58    0.30   1
  -2 -20   4    0.87    0.23   1
   2  20  -4    0.48    0.20   1
   2  20  -4    0.57    0.20   1
  -2  20   4    0.28    0.19   1
   2  20  -4    1.17    0.25   1
   1 -20  -4    1.07    0.35   1
  -1 -20   4    1.04    0.23   1
   1 -20  -4    1.02    0.25   1
  -1  20   4    0.99    0.21   1
   1  20  -4    1.03    0.20   1
   1  20  -4    1.34    0.24   1
   1  20  -4    1.38    0.29   1
   0 -20  -4    1.85    0.40   1
   0 -20   4    2.46    0.28   1
   0 -20  -4    2.54    0.31   1
   0  20  -4    2.01    0.27   1
   0  20  -4    2.51    0.27   1
   0  20   4    2.63    0.30   1
   0  20  -4    2.04    0.21   1
   1 -20   4    0.28    0.18   1
  -1 -20  -4    0.28    0.30   1
  -1  20  -4    0.51    0.15   1
   1  20   4    0.14    0.16   1
  -1  20  -4    0.60    0.20   1
  -2 -20  -4    0.43    0.35   1
   2 -20   4    0.57    0.20   1
   2  20   4    0.78    0.20   1
  -2  20  -4    0.42    0.18   1
  -2  20  -4    0.62    0.23   1
  -1  20  -6    1.45    0.27  -2
   3 -20   4    1.45    0.27   1
  -1 -20  -6    1.54    0.40  -2
   3  20   4    1.54    0.40   1
  -1 -20  -6    1.44    0.26  -2
   3  20   4    1.44    0.26   1
   1 -20   6    1.01    0.25  -2
  -3  20  -4    1.01    0.25   1
   1 -20   6    1.76    0.32  -2
  -3  20  -4    1.76    0.32   1
   4 -21  -4    0.70    0.32   1
  -4 -21   4   -0.01    0.20   1
  -4  21   4    0.05    0.20   1
  -4  21   4    0.12    0.22   1
   4  21  -4    0.16    0.23   1
   4  21  -4    0.27    0.21   1
   3 -21  -4    0.62    0.27   1
  -3 -21   4    0.13    0.20   1
   3  21  -4    0.11    0.19   1
   3  21  -4    0.02    0.21   1
  -3  21   4    0.24    0.21   1
   3  21  -4    0.28    0.20   1
   2 -21  -4    1.08    0.28   1
  -2 -21   4    1.47    0.27   1
   2  21  -4    2.07    0.32   1
   2  21  -4    1.71    0.27   1
  -2  21   4    1.46    0.26   1
   2  21  -4    1.68    0.27   1
  -1 -21   4    0.09    0.17   1
   1 -21  -4    0.06    0.28   1
   1 -21  -4   -0.19    0.18   1
   1  21  -4    0.08    0.15   1
   1  21  -4   -0.26    0.16   1
   1  21  -4   -0.04    0.18   1
  -1  21   4   -0.13    0.16   1
   0 -21   4    2.23    0.28   1
   0 -21  -4    1.83    0.43   1
   0 -21  -4    1.85    0.28   1
   0  21  -4    2.55    0.32   1
   0  21  -4    2.17    0.27   1
   0  21  -4    2.08    0.21   1
   0  21   4    2.25    0.28   1
   0  21  -4    2.26    0.38   1
   1 -21   4    0.20    0.19   1
  -1 -21  -4    0.17    0.30   1
  -1  21  -4    0.41    0.20   1
  -1  21  -4    0.26    0.15   1
   1  21   4    0.22    0.18   1
   2 -21   4    0.07    0.18   1
  -2 -21  -4   -0.32    0.31   1
  -2  21  -4   -0.09    0.20   1
   2  21   4    0.16    0.17   1
  -2  21  -4    0.17    0.17   1
   1  21   6   -0.31    0.36  -2
  -3 -21  -4   -0.31    0.36   1
  -1  21  -6    0.30    0.20  -2
   3 -21   4    0.30    0.20   1
  -1 -21  -6    0.26    0.32  -2
   3  21   4    0.26    0.32   1
  -1 -21  -6    0.38    0.21  -2
   3  21   4    0.38    0.21   1
   1 -21   6    0.08    0.20  -2
  -3  21  -4    0.08    0.20   1
  -4 -22   4    0.22    0.21   1
   4 -22  -4   -0.03    0.25   1
   4  22  -4    0.24    0.22   1
  -4  22   4   -0.01    0.19   1
  -4  22   4   -0.05    0.22   1
   3 -22  -4    0.25    0.24   1
  -3 -22   4    0.30    0.21   1
  -3  22   4    0.14    0.21   1
   3  22  -4    0.04    0.19   1
   3  22  -4    0.17    0.20   1
   3  22  -4    0.22    0.23   1
   2 -22  -4    0.33    0.24   1
  -2 -22   4    0.13    0.20   1
   2 -22  -4    0.30    0.30   1
   2  22  -4    0.24    0.18   1
  -2  22   4    0.45    0.22   1
   2  22  -4    0.46    0.24   1
   2  22  -4    0.21    0.19   1
   1 -22  -4    0.70    0.25   1
  -1 -22   4    1.50    0.26   1
   1  22  -4    1.09    0.22   1
   1  22  -4    1.64    0.32   1
  -1  22   4    1.37    0.26   1
   1  22  -4    1.39    0.27   1
   0 -22  -4    0.62    0.21   1
   0 -22   4    1.06    0.24   1
   0  22  -4    0.92    0.30   1
   0  22  -4    0.93    0.17   1
   0  22   4    0.62    0.21   1
   0  22  -4    1.07    0.24   1
   1 -22   4    0.10    0.19   1
   1  22   4    0.23    0.18   1
  -1  22  -4   -0.01    0.18   1
  -1  22  -4    0.16    0.14   1
   2 -22   4    0.60    0.22   1
  -2 -22  -4    0.02    0.38   1
   2  22   4    0.55    0.21   1
  -2  22  -4    0.52    0.25   1
  -2  22  -4    0.59    0.20   1
  -1  22  -6    0.08    0.21  -2
   3 -22   4    0.08    0.21   1
   1  22   6   -0.49    0.39  -2
  -3 -22  -4   -0.49    0.39   1
  -1 -22  -6    0.26    0.21  -2
   3  22   4    0.26    0.21   1
   1 -22   6    0.04    0.22  -2
  -3  22  -4    0.04    0.22   1
   4 -23  -4    0.17    0.27   1
   4  23  -4   -0.02    0.22   1
  -3 -23   4    0.48    0.24   1
   3 -23  -4    1.03    0.33   1
   3  23  -4    0.62    0.23   1
   3  23  -4    0.83    0.26   1
   3  23  -4    0.75    0.25   1
  -3  23   4    0.83    0.26   1
   2 -23  -4   -0.02    0.21   1
  -2 -23   4   -0.12    0.18   1
   2  23  -4    0.03    0.23   1
   2  23  -4   -0.21    0.18   1
   2  23  -4    0.07    0.18   1
  -1 -23   4    0.10    0.18   1
   1 -23  -4   -0.07    0.19   1
  -1  23   4   -0.04    0.18   1
   1  23  -4    0.09    0.19   1
   1  23  -4    0.49    0.24   1
   1  23  -4    0.17    0.16   1
   0 -23  -4    0.16    0.20   1
   0 -23   4    0.28    0.20   1
   0  23  -4    0.37    0.26   1
   0  23   4    0.24    0.19   1
   0  23  -4    0.48    0.21   1
   1 -23   4    0.16    0.19   1
  -1  23  -4    0.21    0.15   1
   1  23   4    0.10    0.18   1
  -1  23  -4    0.31    0.20   1
  -2 -23  -4   -0.25    0.38   1
   2 -23   4    0.32    0.21   1
  -2  23  -4    0.07    0.17   1
   2  23   4    0.13    0.19   1
  -2  23  -4   -0.01    0.21   1
   1 -23   6    0.96    0.25  -2
  -3  23  -4    0.96    0.25   1
   4  24  -4    0.20    0.25   1
   3 -24  -4    1.16    0.35   1
  -3 -24   4    1.12    0.29   1
   3  24  -4    1.09    0.28   1
  -3  24   4    1.03    0.28   1
   3  24  -4    0.89    0.25   1
   3  24  -4    1.37    0.32   1
  -2 -24   4    1.01    0.26   1
  -2  24   4    0.59    0.25   1
   2  24  -4    0.62    0.24   1
   2  24  -4    0.87    0.24   1
   2  24  -4    1.37    0.30   1
   1 -24  -4    0.46    0.25   1
  -1 -24   4    0.46    0.21   1
   1  24  -4    0.36    0.21   1
  -1  24   4    0.62    0.23   1
   1  24  -4    0.60    0.20   1
   1  24  -4    0.69    0.27   1
   0 -24   4    0.50    0.22   1
   0  24   4    0.86    0.23   1
   0  24  -4    0.57    0.23   1
   0  24  -4    0.70    0.29   1
   1 -24   4    0.33    0.21   1
  -1  24  -4    0.11    0.14   1
   1  24   4    0.01    0.17   1
  -2 -24  -4   -0.29    0.40   1
   2 -24   4    0.48    0.23   1
  -2  24  -4    0.62    0.27   1
  -2  24  -4    0.37    0.19   1
   2  24   4    0.52    0.22   1
   1 -24   6    0.88    0.24  -2
  -3  24  -4    0.88    0.24   1
  -3 -25   4   -0.03    0.21   1
   3  25  -4    0.13    0.23   1
   3  25  -4   -0.10    0.20   1
  -3  25   4    0.12    0.24   1
  -2 -25   4    0.55    0.25   1
   2  25  -4    0.48    0.22   1
   2  25  -4    0.71    0.29   1
   2  25  -4    0.57    0.22   1
  -2  25   4    0.67    0.27   1
   1 -25  -4    0.67    0.26   1
  -1 -25   4    1.28    0.27   1
  -1  25   4    1.07    0.28   1
   1  25  -4    0.89    0.24   1
   1  25  -4    1.10    0.31   1
   0 -25   4    0.57    0.24   1
   0  25  -4    0.19    0.22   1
   0  25  -4    0.38    0.30   1
   0  25   4    0.58    0.22   1
   1 -25   4    1.77    0.31   1
  -1  25  -4    1.68    0.32   1
   1  25   4    1.60    0.28   1
   2 -25   4    1.27    0.28   1
  -2  25  -4    0.74    0.22   1
   3  26  -4    0.11    0.23   1
  -2 -26   4    0.35    0.24   1
   2  26  -4   -0.14    0.19   1
   2  26  -4   -0.11    0.23   1
  -2  26   4    0.18    0.23   1
   2  26  -4    0.09    0.20   1
  -1 -26   4    0.47    0.23   1
   1 -26  -4    0.45    0.26   1
   1  26  -4    0.49    0.22   1
  -1  26   4    0.43    0.23   1
   1  26  -4    0.71    0.27   1
   0 -26   4   -0.09    0.21   1
   0  26   4   -0.08    0.19   1
   0  26  -4    0.00    0.28   1
   0  26  -4   -0.06    0.20   1
   1 -26   4    0.55    0.24   1
   1  26   4    0.74    0.23   1
  -1  26  -4    0.70    0.27   1
   3  27  -4   -0.11    0.23   1
   1 -27  -4    0.70    0.28   1
  -1 -27   4    0.86    0.26   1
   1  27  -4    0.88    0.26   1
   1  27  -4    0.77    0.31   1
  -1  27   4    0.85    0.28   1
   0 -27   4    1.17    0.29   1
   0  27   4    1.32    0.29   1
   0  27  -4    1.72    0.33   1
   3  28  -4    0.08    0.24   1
   2 -28  -4   -0.01    0.27   1
   1  28  -4   -0.01    0.26   1
   1  29  -4    1.34    0.37   1
   0  30  -4    0.03    0.30   1
  -6   0   5    0.47    0.22   1
   6   0  -5    0.09    0.32   1
   6   0  -5    0.43    0.25   1
  -5   0   5    0.00    0.10   1
   5   0  -5    0.01    0.21   1
   5   0  -5   -0.11    0.25   1
  -5   0   5   -0.27    0.16   1
   4   0  -5    0.19    0.16   1
   4   0  -5   -0.03    0.22   1
  -4   0   5    0.00    0.08   1
  -4   0   5    0.12    0.15   1
   3   0  -5    0.27    0.14   1
  -2   0   5    1.36    0.17   1
   2   0  -5    0.67    0.14   1
  -2   0   5    0.74    0.09   1
   2   0  -5    0.83    0.19   1
   2   0  -5    0.80    0.10   1
   2   0  -5    0.98    0.09   1
  -1   0   5    0.17    0.08   1
   1   0  -5    0.35    0.07   1
   1   0  -5    0.20    0.13   1
  -1   0   5    0.11    0.07   1
   1   0  -5    0.13    0.08   1
   0   0  -5    1.75    0.23   1
   0   0  -5    1.24    0.16   1
  -1   0  -5    0.84    0.19   1
   2   0   5    4.45    0.42  -2
  -2   0  -5    4.45    0.42   1
   2   0   5    3.80    0.33  -2
  -2   0  -5    3.80    0.33   1
   3   0   5    0.61    0.32   1
  -3   0  -5    0.61    0.21   1
  -3   0  -5    0.19    0.15   1
   4   0   5    0.43    0.38   1
  -4   0  -5   -0.11    0.23   1
   6  -1  -5    1.29    0.42   1
  -6  -1   5    2.54    0.36   1
  -6   1   5    2.36    0.34   1
   6   1  -5    1.42    0.45   1
   6   1  -5    1.48    0.34   1
   5  -1  -5    0.00    0.27   1
   5  -1  -5    0.22    0.21   1
  -5  -1   5   -0.11    0.18   1
   5   1  -5    0.04    0.26   1
  -5   1   5    0.03    0.19   1
  -5   1   5    0.03    0.11   1
   5   1  -5    0.25    0.19   1
  -4  -1   5    0.77    0.12   1
  -4  -1   5    1.01    0.20   1
   4  -1  -5    1.29    0.29   1
  -4   1   5    0.87    0.13   1
   4   1  -5    0.86    0.29   1
   4   1  -5    0.59    0.20   1
  -3  -1   5    1.19    0.11   1
   3  -1  -5    0.81    0.12   1
  -3  -1   5    0.92    0.17   1
   3  -1  -5    0.78    0.19   1
   3  -1  -5    0.91    0.23   1
  -3   1   5    1.09    0.19   1
   3   1  -5    0.71    0.18   1
   3   1  -5    0.72    0.10   1
  -3   1   5    1.10    0.09   1
   3   1  -5    1.08    0.25   1
   2  -1  -5    6.48    0.33   1
  -2  -1   5    5.20    0.31   1
  -2  -1   5    5.65    0.36   1
   2  -1  -5    6.17    0.30   1
   2  -1  -5    6.20    0.47   1
   2  -1  -5    5.86    0.37   1
  -2  -1   5    5.54    0.35   1
   2   1  -5    5.83    0.37   1
  -2   1   5    5.79    0.35   1
  -2   1   5    6.28    0.36   1
   2   1  -5    5.36    0.47   1
   2   1  -5    5.62    0.32   1
   2   1  -5    5.42    0.31   1
   1  -1  -5    2.78    0.28   1
   1  -1  -5    3.22    0.18   1
  -1  -1   5    2.36    0.19   1
   1  -1  -5    3.19    0.21   1
  -1  -1   5    2.46    0.19   1
   1   1  -5    2.42    0.28   1
   1   1  -5    2.63    0.20   1
   1   1  -5    2.75    0.19   1
  -1   1   5    2.66    0.19   1
  -1   1   5    3.04    0.20   1
   0  -1  -5    7.80    0.54   1
   0  -1  -5    7.47    0.42   1
   0   1   5    7.17    0.38   1
   0   1  -5    7.14    0.53   1
   0   1   5    7.27    0.38   1
   0   1  -5    8.08    0.43   1
  -1  -1  -5    2.47    0.34   1
  -1  -1  -5    2.36    0.30   1
   2   1   5   12.66    0.84  -2
  -2  -1  -5   12.66    0.84   1
   2  -1   5   11.77    0.82  -2
  -2   1  -5   11.77    0.82   1
   2  -1   5   10.76    0.68  -2
  -2   1  -5   10.76    0.68   1
  -3  -1  -5    1.49    0.27   1
   3  -1   5    1.93    0.40   1
  -3  -1  -5    1.19    0.23   1
  -3   1  -5    1.14    0.23   1
  -3   1  -5    2.16    0.31   1
   3   1   5    1.62    0.39   1
  -4  -1  -5   -0.11    0.25   1
   4  -1   5    0.13    0.36   1
   4   1   5    0.10    0.37   1
  -4   1  -5    0.06    0.25   1
  -6  -2   5    0.96    0.26   1
   6  -2  -5    0.12    0.34   1
   6   2  -5    0.85    0.29   1
   6   2  -5    0.50    0.38   1
  -5  -2   5    0.62    0.22   1
   5  -2  -5    0.55    0.34   1
   5  -2  -5    0.27    0.24   1
   5   2  -5    0.62    0.24   1
  -5   2   5    0.69    0.22   1
   5   2  -5    0.72    0.31   1
  -5   2   5    0.71    0.15   1
  -4  -2   5    6.85    0.46   1
  -4  -2   5    6.51    0.38   1
   4  -2  -5    6.56    0.60   1
   4  -2  -5    7.07    0.49   1
   4   2  -5    6.47    0.49   1
  -4   2   5    6.84    0.41   1
   4   2  -5    6.59    0.60   1
  -4   2   5    7.92    0.49   1
   3  -2  -5    0.38    0.10   1
   3  -2  -5    0.53    0.18   1
   3  -2  -5    0.68    0.22   1
  -3  -2   5    0.67    0.10   1
  -3  -2   5    0.38    0.14   1
   3   2  -5    0.33    0.08   1
   3   2  -5    0.32    0.20   1
   3   2  -5    0.19    0.14   1
  -3   2   5    0.57    0.16   1
  -3   2   5    0.56    0.07   1
  -2  -2   5    2.30    0.17   1
   2  -2  -5    2.48    0.23   1
   2  -2  -5    2.85    0.18   1
  -2  -2   5    2.40    0.21   1
  -2  -2   5    2.30    0.21   1
   2  -2  -5    2.69    0.29   1
   2   2  -5    2.50    0.22   1
   2   2  -5    2.59    0.16   1
   2   2  -5    2.67    0.17   1
  -2   2   5    2.03    0.20   1
  -2   2   5    2.50    0.21   1
   2   2  -5    2.97    0.31   1
   1  -2  -5    3.60    0.31   1
  -1  -2   5    3.13    0.22   1
   1  -2  -5    3.59    0.20   1
   1  -2  -5    3.51    0.24   1
  -1  -2   5    3.14    0.22   1
   1   2  -5    3.48    0.22   1
   1   2  -5    3.48    0.22   1
  -1   2   5    3.44    0.23   1
   1   2  -5    3.44    0.32   1
  -1   2   5    3.25    0.22   1
   0  -2  -5   10.68    0.72   1
   0  -2  -5   10.74    0.58   1
   0   2   5   11.16    0.55   1
   0   2   5   11.09    0.55   1
   0   2  -5   10.93    0.74   1
   0   2  -5   11.09    0.59   1
  -1  -2  -5   15.54    1.04   1
  -1  -2  -5   14.66    0.98   1
  -1   2  -5   15.79    0.83   1
   2   2   5    1.41    0.26  -2
  -2  -2  -5    1.41    0.26   1
   2  -2   5    2.17    0.29  -2
  -2   2  -5    2.17    0.29   1
   2  -2   5    1.41    0.23  -2
  -2   2  -5    1.41    0.23   1
  -3  -2  -5    0.75    0.21   1
  -3  -2  -5    1.29    0.27   1
   3  -2   5    0.68    0.32   1
   3   2   5    1.07    0.36   1
  -3   2  -5    0.73    0.23   1
  -3   2  -5    0.73    0.20   1
   4  -2   5    0.85    0.40   1
  -4  -2  -5    0.60    0.28   1
   4   2   5    0.12    0.37   1
  -4   2  -5    0.17    0.26   1
  -6  -3   5    1.86    0.33   1
   6   3  -5    1.30    0.45   1
   6   3  -5    1.21    0.31   1
  -5  -3   5    0.18    0.18   1
   5  -3  -5    0.28    0.32   1
   5  -3  -5    0.42    0.22   1
  -5   3   5    0.18    0.12   1
  -5   3   5    0.38    0.19   1
   5   3  -5    0.25    0.24   1
   5   3  -5    0.25    0.26   1
  -4  -3   5    2.83    0.20   1
  -4  -3   5    3.59    0.30   1
   4  -3  -5    2.38    0.32   1
   4  -3  -5    3.46    0.48   1
   4   3  -5    3.06    0.42   1
   4   3  -5    3.65    0.34   1
  -4   3   5    3.14    0.32   1
  -4   3   5    2.88    0.24   1
   3  -3  -5    1.90    0.17   1
   3   3  -5    1.83    0.13   1
   3   3  -5    1.83    0.23   1
  -2  -3   5    4.42    0.27   1
   2  -3  -5    4.83    0.41   1
   2  -3  -5    5.54    0.34   1
  -2  -3   5    4.27    0.30   1
   2  -3  -5    4.80    0.28   1
  -2  -3   5    4.36    0.30   1
   2   3  -5    4.75    0.28   1
   2   3  -5    4.61    0.25   1
  -2   3   5    5.35    0.32   1
   2   3  -5    4.23    0.41   1
   2   3  -5    4.57    0.31   1
  -2   3   5    4.57    0.31   1
   1  -3  -5    2.14    0.15   1
  -1  -3   5    2.41    0.18   1
   1  -3  -5    2.39    0.25   1
   1  -3  -5    2.24    0.17   1
   1  -3  -5    2.24    0.19   1
  -1  -3   5    2.20    0.17   1
  -1   3   5    2.22    0.18   1
   1   3  -5    2.75    0.18   1
   1   3  -5    2.39    0.27   1
   1   3  -5    2.36    0.18   1
  -1   3   5    2.16    0.18   1
   0  -3  -5    0.33    0.13   1
   0  -3  -5    0.29    0.06   1
   0  -3  -5    0.25    0.05   1
   0   3   5    0.34    0.06   1
   0   3   5    0.20    0.06   1
   0   3  -5    0.37    0.11   1
   0   3  -5    0.48    0.15   1
  -1  -3  -5   27.78    1.77   1
  -1  -3  -5   27.41    1.71   1
  -1   3  -5   29.89    1.45   1
  -1   3  -5   27.78    1.45   1
   2   3   5    0.44    0.20  -2
  -2  -3  -5    0.44    0.20   1
   2  -3   5    0.80    0.18  -2
  -2   3  -5    0.80    0.18   1
  -2  -3  -5    0.45    0.26  -2
   2   3   5    0.45    0.26   1
  -3  -3  -5    1.21    0.27   1
   3  -3   5    1.11    0.37   1
  -3  -3  -5    0.72    0.21   1
  -3   3  -5    0.83    0.20   1
   3   3   5    0.84    0.37   1
  -3   3  -5    1.39    0.27   1
   4  -3   5    1.25    0.43   1
  -4  -3  -5    0.59    0.30   1
  -4   3  -5    0.69    0.28   1
   4   3   5    0.49    0.41   1
  -6  -4   5    0.52    0.24   1
   6   4  -5    0.36    0.37   1
   6   4  -5    0.64    0.27   1
   5  -4  -5    2.89    0.39   1
   5  -4  -5    3.31    0.53   1
  -5  -4   5    2.80    0.33   1
  -5   4   5    2.53    0.25   1
   5   4  -5    3.25    0.49   1
   5   4  -5    2.15    0.35   1
  -5   4   5    2.40    0.32   1
  -4  -4   5    0.44    0.17   1
  -4  -4   5    0.15    0.07   1
   4  -4  -5    0.27    0.25   1
   4  -4  -5    0.13    0.18   1
  -4   4   5    0.40    0.17   1
   4   4  -5    0.65    0.20   1
   4   4  -5    0.52    0.25   1
  -4   4   5    0.22    0.10   1
   3  -4  -5    0.86    0.24   1
  -3  -4   5    0.64    0.16   1
   3  -4  -5    0.62    0.19   1
  -3  -4   5    0.64    0.11   1
  -3   4   5    0.61    0.16   1
   3   4  -5    0.63    0.17   1
   3   4  -5    0.77    0.23   1
  -2  -4   5    9.93    0.53   1
  -2  -4   5   10.36    0.56   1
   2  -4  -5    9.65    0.54   1
   2  -4  -5   10.41    0.57   1
  -2  -4   5    9.96    0.56   1
   2  -4  -5   10.02    0.69   1
   2   4  -5    9.25    0.69   1
   2   4  -5   10.13    0.53   1
   2   4  -5    9.80    0.56   1
  -2   4   5   10.27    0.56   1
  -2   4   5   10.03    0.56   1
  -1  -4   5    0.51    0.10   1
   1  -4  -5    0.36    0.11   1
   1  -4  -5    0.46    0.07   1
   1  -4  -5    0.53    0.15   1
  -1  -4   5    0.45    0.09   1
   1  -4  -5    0.49    0.10   1
  -1   4   5    0.44    0.10   1
   1   4  -5    0.69    0.11   1
   1   4  -5    0.44    0.09   1
   1   4  -5    0.66    0.17   1
  -1   4   5    0.27    0.10   1
   0  -4  -5    0.05    0.06   1
   0  -4  -5    0.04    0.11   1
   0  -4  -5    0.22    0.15   1
   0  -4   5   -0.14    0.05   1
   0   4  -5    0.09    0.09   1
   0   4  -5   -0.12    0.05   1
   0   4   5    0.07    0.06   1
   0   4  -5   -0.13    0.09   1
   0   4   5    0.02    0.06   1
   0   4  -5   -0.12    0.05   1
   0   4  -5    0.15    0.13   1
  -1  -4  -5    2.84    0.40   1
  -1  -4  -5    3.43    0.32   1
  -1   4  -5    3.31    0.28   1
  -1   4  -5    4.02    0.30   1
   2   4   5    0.23    0.18  -2
  -2  -4  -5    0.23    0.18   1
   2  -4   5    0.60    0.17  -2
  -2   4  -5    0.60    0.17   1
  -2  -4  -5    0.66    0.28  -2
   2   4   5    0.66    0.28   1
   3  -4   5    3.22    0.49   1
  -3  -4  -5    2.63    0.37   1
  -3  -4  -5    2.77    0.33   1
  -3   4  -5    2.91    0.33   1
   3   4   5    2.52    0.47   1
  -3   4  -5    2.40    0.32   1
   4  -4   5    0.28    0.36   1
  -4  -4  -5    0.38    0.27   1
   4   4   5    0.69    0.43   1
  -4   4  -5    0.29    0.24   1
  -6  -5   5   -0.10    0.20   1
   6  -5  -5    0.13    0.24   1
  -6   5   5    0.44    0.23   1
   6   5  -5    0.23    0.35   1
   6   5  -5    0.07    0.24   1
   5  -5  -5    0.18    0.21   1
   5  -5  -5   -0.16    0.29   1
  -5  -5   5    0.38    0.20   1
   5   5  -5    0.45    0.29   1
  -5   5   5    0.22    0.14   1
  -5   5   5    0.33    0.20   1
   5   5  -5    0.70    0.23   1
  -4  -5   5    0.86    0.21   1
   4  -5  -5    1.17    0.24   1
   4  -5  -5    1.14    0.32   1
   4   5  -5    1.12    0.31   1
  -4   5   5    1.32    0.22   1
  -4   5   5    0.94    0.16   1
   4   5  -5    0.68    0.21   1
   3  -5  -5    7.37    0.57   1
  -3  -5   5    5.94    0.42   1
   3   5  -5    6.39    0.38   1
   3   5  -5    7.85    0.56   1
  -3   5   5    5.59    0.42   1
   2  -5  -5    8.18    0.49   1
   2  -5  -5    7.94    0.58   1
  -2  -5   5    7.66    0.44   1
  -2  -5   5    8.24    0.47   1
   2  -5  -5    6.56    0.44   1
   2   5  -5    8.33    0.60   1
   2   5  -5    8.77    0.45   1
   2   5  -5    8.72    0.48   1
  -2   5   5    8.37    0.47   1
  -2   5   5    7.54    0.47   1
  -1  -5   5    0.18    0.08   1
   1  -5  -5    0.10    0.13   1
   1  -5  -5    0.28    0.11   1
  -1  -5   5    0.20    0.08   1
   1  -5  -5    0.25    0.15   1
   1  -5  -5    0.04    0.05   1
  -1   5   5    0.04    0.09   1
   1   5  -5    0.25    0.09   1
   1   5  -5    0.30    0.09   1
   1   5  -5    0.05    0.06   1
   1   5  -5    0.36    0.14   1
  -1   5   5    0.16    0.09   1
   0  -5  -5    5.47    0.32   1
   0  -5  -5    6.05    0.51   1
   0  -5  -5    5.46    0.31   1
   0  -5  -5    5.68    0.43   1
   0  -5   5    6.02    0.31   1
   0   5  -5    5.90    0.31   1
   0   5  -5    5.96    0.46   1
   0   5   5    5.86    0.32   1
   0   5  -5    5.40    0.31   1
   0   5  -5    6.58    0.37   1
   0   5  -5    5.50    0.34   1
  -1  -5  -5    7.59    0.57   1
  -1  -5  -5    7.68    0.66   1
  -1   5  -5    8.93    0.51   1
  -1   5  -5    8.96    0.50   1
   2   5   5    0.85    0.23  -2
  -2  -5  -5    0.85    0.23   1
  -2  -5  -5    1.17    0.32  -2
   2   5   5    1.17    0.32   1
   2  -5   5    0.79    0.20  -2
  -2   5  -5    0.79    0.20   1
   2  -5   5    0.77    0.19  -2
  -2   5  -5    0.77    0.19   1
  -3  -5  -5    0.76    0.23   1
   3  -5   5    1.12    0.35   1
  -3   5  -5    1.09    0.24   1
   3   5   5    1.17    0.36   1
   4  -5   5    2.89    0.53   1
  -4  -5  -5    2.20    0.37   1
  -4   5  -5    2.52    0.36   1
   4   5   5    2.49    0.53   1
   6  -6  -5    0.61    0.27   1
  -6   6   5    0.53    0.24   1
   6   6  -5    0.04    0.34   1
   5  -6  -5    0.27    0.32   1
   5  -6  -5    0.20    0.24   1
  -5   6   5    0.28    0.14   1
   5   6  -5    0.31    0.23   1
   5   6  -5    0.54    0.31   1
  -5   6   5    0.33    0.20   1
  -4  -6   5    3.36    0.33   1
   4  -6  -5    3.17    0.36   1
   4  -6  -5    3.56    0.50   1
   4   6  -5    2.83    0.42   1
   4   6  -5    3.37    0.33   1
  -4   6   5    3.02    0.26   1
  -4   6   5    3.44    0.33   1
  -3  -6   5    5.19    0.37   1
   3  -6  -5    6.36    0.50   1
   3  -6  -5    4.07    0.38   1
  -3   6   5    4.92    0.37   1
   3   6  -5    5.05    0.33   1
   3   6  -5    4.66    0.37   1
  -2  -6   5    7.28    0.44   1
   2  -6  -5    7.41    0.47   1
   2  -6  -5    6.85    0.56   1
  -2  -6   5    7.84    0.45   1
   2  -6  -5    7.53    0.60   1
  -2   6   5    7.36    0.45   1
   2   6  -5    7.78    0.46   1
  -2   6   5    8.17    0.45   1
   2   6  -5    7.68    0.43   1
   2   6  -5    7.45    0.57   1
  -1  -6   5   15.37    0.78   1
   1  -6  -5   15.04    0.80   1
  -1  -6   5   15.84    0.79   1
   1  -6  -5   15.47    1.02   1
   1  -6  -5   14.45    0.96   1
   1   6  -5   14.88    0.99   1
  -1   6   5   15.52    0.80   1
   1   6  -5   14.52    0.76   1
  -1   6   5   14.86    0.79   1
   1   6  -5   14.86    0.79   1
   1   6  -5   15.91    0.79   1
   0  -6  -5    0.82    0.21   1
   0  -6   5    0.94    0.10   1
   0  -6  -5    1.05    0.13   1
   0  -6  -5    0.76    0.16   1
   0  -6   5    0.97    0.11   1
   0   6  -5    0.94    0.10   1
   0   6  -5    1.33    0.22   1
   0   6   5    0.59    0.10   1
   0   6  -5    0.84    0.11   1
   0   6  -5    1.16    0.16   1
   0   6  -5    0.84    0.12   1
  -1  -6  -5    1.75    0.23   1
   1   6   5    1.36    0.12   1
   1   6   5    1.25    0.13   1
   2   6   5    0.00    0.17  -2
  -2  -6  -5    0.00    0.17   1
   2   6   5    0.04    0.12  -2
  -2  -6  -5    0.04    0.12   1
   2  -6   5   -0.12    0.14  -2
  -2   6  -5   -0.12    0.14   1
  -2  -6  -5   -0.05    0.24  -2
   2   6   5   -0.05    0.24   1
   2  -6   5    0.00    0.14  -2
  -2   6  -5    0.00    0.14   1
  -3  -6  -5    0.24    0.20   1
   3   6   5    0.22    0.31   1
  -3   6  -5    0.46    0.21   1
  -3   6  -5    0.14    0.17   1
   4  -6   5    1.00    0.42   1
  -4  -6  -5    1.37    0.32   1
   4   6   5    1.35    0.45   1
  -4   6  -5    1.19    0.29   1
  -6   7   5    0.00    0.15   1
   6   7  -5   -0.19    0.31   1
   5  -7  -5   -0.07    0.20   1
  -5  -7   5   -0.15    0.17   1
   5  -7  -5    0.10    0.29   1
   5   7  -5    0.08    0.22   1
  -5   7   5    0.13    0.13   1
   5   7  -5    0.16    0.27   1
  -5   7   5   -0.04    0.18   1
   4  -7  -5    1.03    0.25   1
   4  -7  -5    0.82    0.32   1
  -4  -7   5    1.22    0.23   1
  -4   7   5    0.78    0.19   1
  -4   7   5    0.77    0.16   1
   4   7  -5    1.08    0.26   1
   4   7  -5    1.25    0.30   1
  -3  -7   5    3.13    0.31   1
   3  -7  -5    4.44    0.44   1
   3  -7  -5    3.72    0.43   1
   3  -7  -5    3.35    0.33   1
  -3   7   5    3.45    0.31   1
   3   7  -5    3.75    0.41   1
   3   7  -5    3.89    0.28   1
   3   7  -5    3.82    0.33   1
  -2  -7   5    0.12    0.10   1
   2  -7  -5    0.20    0.16   1
   2  -7  -5    0.23    0.14   1
  -2  -7   5   -0.01    0.10   1
   2  -7  -5    0.17    0.18   1
  -2   7   5    0.35    0.12   1
   2   7  -5    0.41    0.10   1
   2   7  -5    0.15    0.13   1
  -2   7   5    0.03    0.11   1
   2   7  -5    0.36    0.17   1
   1  -7  -5    3.18    0.30   1
   1  -7  -5    3.71    0.38   1
  -1  -7   5    2.94    0.23   1
  -1  -7   5    2.97    0.22   1
   1  -7  -5    3.25    0.26   1
  -1   7   5    3.16    0.23   1
   1   7  -5    3.14    0.23   1
   1   7  -5    3.34    0.34   1
  -1   7   5    2.78    0.23   1
   1   7  -5    2.50    0.17   1
   1   7  -5    3.20    0.22   1
   0  -7  -5    2.10    0.18   1
   0  -7  -5    2.56    0.35   1
   0  -7   5    2.14    0.17   1
   0  -7  -5    2.10    0.24   1
   0   7   5    2.14    0.18   1
   0   7   5    2.22    0.17   1
   0   7  -5    2.41    0.29   1
   0   7  -5    2.36    0.23   1
   0   7  -5    1.98    0.16   1
   0   7  -5    1.97    0.18   1
  -1  -7  -5    1.13    0.11   1
  -1  -7  -5    1.18    0.19   1
  -1  -7  -5    1.34    0.27   1
   1   7   5    1.08    0.14   1
  -1   7  -5    0.89    0.17   1
   1   7   5    1.30    0.12   1
  -1   7  -5    0.99    0.19   1
   2   7   5    0.98    0.25  -2
  -2  -7  -5    0.98    0.25   1
   2   7   5    1.07    0.18  -2
  -2  -7  -5    1.07    0.18   1
   2  -7   5    0.80    0.19  -2
  -2   7  -5    0.80    0.19   1
  -2  -7  -5    1.06    0.31  -2
   2   7   5    1.06    0.31   1
   2  -7   5    0.71    0.19  -2
  -2   7  -5    0.71    0.19   1
  -2  -7  -5    0.83    0.10  -2
   2   7   5    0.83    0.10   1
  -3  -7  -5    1.74    0.32   1
  -3   7  -5    1.65    0.29   1
   3   7   5    1.58    0.41   1
  -3   7  -5    2.69    0.33   1
  -4  -7  -5    0.92    0.31   1
   4  -7   5    1.23    0.40   1
   4   7   5    0.77    0.43   1
  -4   7  -5    1.09    0.28   1
  -4   7  -5    1.11    0.30   1
   6   8  -5   -0.24    0.29   1
   6   8  -5    0.29    0.30   1
  -6   8   5    0.35    0.18   1
   5  -8  -5    0.07    0.24   1
  -5  -8   5    0.03    0.19   1
   5  -8  -5   -0.03    0.29   1
  -5   8   5    0.19    0.19   1
  -5   8   5    0.11    0.14   1
   5   8  -5   -0.17    0.24   1
   5   8  -5   -0.01    0.21   1
   4  -8  -5    1.79    0.28   1
  -4  -8   5    1.30    0.25   1
   4  -8  -5    1.25    0.37   1
  -4   8   5    1.36    0.24   1
   4   8  -5    0.97    0.24   1
  -4   8   5    0.94    0.17   1
   4   8  -5    1.07    0.29   1
  -3  -8   5    0.37    0.16   1
  -3   8   5    0.66    0.17   1
   3   8  -5    0.99    0.21   1
   3   8  -5    0.79    0.15   1
   3   8  -5    0.87    0.23   1
   2  -8  -5    1.67    0.22   1
   2  -8  -5    1.07    0.25   1
  -2  -8   5    1.69    0.20   1
  -2  -8   5    1.58    0.18   1
   2  -8  -5    1.47    0.25   1
  -2   8   5    1.59    0.20   1
  -2   8   5    1.56    0.20   1
   2   8  -5    1.12    0.19   1
   2   8  -5    1.38    0.17   1
   2   8  -5    1.41    0.27   1
  -1  -8   5    1.76    0.17   1
   1  -8  -5    2.26    0.33   1
  -1  -8   5    1.75    0.19   1
   1  -8  -5    1.90    0.22   1
   1  -8  -5    1.95    0.24   1
   1   8  -5    2.07    0.29   1
   1   8  -5    1.47    0.11   1
  -1   8   5    1.92    0.19   1
   1   8  -5    2.02    0.19   1
   1   8  -5    1.81    0.18   1
  -1   8   5    1.78    0.19   1
   0  -8   5    4.78    0.28   1
   0  -8  -5    4.64    0.36   1
   0  -8  -5    4.42    0.29   1
   0  -8  -5    4.74    0.47   1
   0   8   5    4.74    0.29   1
   0   8   5    4.80    0.30   1
   0   8  -5    4.13    0.28   1
   0   8  -5    4.57    0.33   1
   0   8  -5    4.41    0.27   1
   0   8  -5    4.72    0.42   1
  -1  -8  -5    4.16    0.46   1
  -1  -8  -5    3.12    0.29   1
  -1  -8  -5    3.04    0.22   1
   1  -8   5    3.64    0.20   1
   1  -8   5    3.59    0.20   1
   1   8   5    3.14    0.23   1
   1   8   5    3.28    0.22   1
  -1   8  -5    3.82    0.28   1
   2   8   5    0.14    0.18  -2
  -2  -8  -5    0.14    0.18   1
   2   8   5    0.15    0.11  -2
  -2  -8  -5    0.15    0.11   1
   2  -8   5    0.27    0.16  -2
  -2   8  -5    0.27    0.16   1
   2  -8   5    0.15    0.14  -2
  -2   8  -5    0.15    0.14   1
  -2  -8  -5    0.07    0.08  -2
   2   8   5    0.07    0.08   1
  -2  -8  -5   -0.09    0.24  -2
   2   8   5   -0.09    0.24   1
  -3  -8  -5    0.64    0.25   1
  -3   8  -5    0.80    0.23   1
   3   8   5    0.88    0.36   1
  -3   8  -5    0.91    0.23   1
  -4  -8  -5    0.53    0.25   1
  -4   8  -5   -0.04    0.23   1
   4   8   5    0.07    0.38   1
  -4   8  -5    0.17    0.21   1
  -6   9   5    0.16    0.16   1
   6   9  -5   -0.18    0.29   1
   5  -9  -5    1.23    0.29   1
  -5  -9   5    1.62    0.30   1
   5  -9  -5    1.44    0.42   1
   5   9  -5    1.33    0.35   1
   5   9  -5    1.35    0.30   1
  -5   9   5    1.12    0.26   1
  -5   9   5    0.99    0.20   1
  -4  -9   5    6.64    0.46   1
   4  -9  -5    6.64    0.50   1
   4  -9  -5    5.10    0.62   1
  -4   9   5    6.37    0.45   1
   4   9  -5    5.86    0.47   1
   4   9  -5    5.25    0.55   1
  -4   9   5    5.67    0.40   1
  -3  -9   5   15.47    0.84   1
   3  -9  -5   15.02    1.05   1
   3  -9  -5   13.99    0.86   1
   3   9  -5   14.91    0.82   1
   3   9  -5   14.78    0.84   1
  -3   9   5   16.15    0.85   1
   3   9  -5   15.28    1.04   1
  -2  -9   5    2.43    0.23   1
   2  -9  -5    3.31    0.36   1
   2  -9  -5    3.18    0.29   1
   2  -9  -5    3.02    0.39   1
  -2  -9   5    3.00    0.26   1
  -2   9   5    3.10    0.26   1
   2   9  -5    2.73    0.34   1
   2   9  -5    2.69    0.26   1
  -2   9   5    3.49    0.27   1
   2   9  -5    2.66    0.24   1
  -1  -9   5    1.24    0.16   1
   1  -9  -5    1.39    0.27   1
   1  -9  -5    1.48    0.20   1
  -1  -9   5    1.47    0.18   1
   1  -9  -5    1.52    0.22   1
   1   9  -5    1.29    0.24   1
  -1   9   5    1.28    0.18   1
   1   9  -5    1.50    0.18   1
   1   9  -5    1.53    0.17   1
  -1   9   5    1.47    0.18   1
   0  -9  -5    3.34    0.29   1
   0  -9   5    3.70    0.24   1
   0  -9  -5    4.57    0.45   1
   0  -9   5    3.39    0.23   1
   0  -9  -5    3.22    0.21   1
   0  -9  -5    3.45    0.26   1
   0   9  -5    3.50    0.37   1
   0   9   5    3.56    0.25   1
   0   9  -5    3.43    0.29   1
   0   9   5    3.41    0.25   1
   0   9  -5    3.44    0.23   1
   0   9  -5    3.28    0.22   1
   1  -9   5   11.94    0.61   1
   1  -9   5   11.98    0.60   1
  -1  -9  -5   12.26    0.90   1
  -1  -9  -5   11.03    0.75   1
  -1   9  -5   11.20    0.65   1
   1   9   5   11.79    0.62   1
  -1   9  -5   12.80    0.69   1
   2   9   5    0.50    0.13  -2
  -2  -9  -5    0.50    0.13   1
   2   9   5    0.46    0.21  -2
  -2  -9  -5    0.46    0.21   1
  -2  -9  -5    0.75    0.30  -2
   2   9   5    0.75    0.30   1
  -2  -9  -5    0.51    0.11  -2
   2   9   5    0.51    0.11   1
   2  -9   5    0.76    0.19  -2
  -2   9  -5    0.76    0.19   1
   2  -9   5    0.76    0.17  -2
  -2   9  -5    0.76    0.17   1
  -3  -9  -5    1.33    0.30   1
  -3   9  -5    1.66    0.28   1
  -3   9  -5    1.68    0.28   1
   3   9   5    1.78    0.44   1
  -4  -9  -5    0.07    0.25   1
   4   9   5   -0.03    0.38   1
  -4   9  -5    0.25    0.24   1
  -6  10   5    0.84    0.22   1
   6  10  -5    0.27    0.30   1
   5 -10  -5    0.77    0.27   1
  -5 -10   5    0.36    0.22   1
   5 -10  -5    0.16    0.33   1
  -5  10   5    0.64    0.22   1
  -5  10   5    0.50    0.17   1
   5  10  -5    0.22    0.28   1
   4 -10  -5    1.82    0.40   1
   4 -10  -5    1.89    0.29   1
  -4 -10   5    1.60    0.25   1
  -4  10   5    1.81    0.23   1
   4  10  -5    1.95    0.34   1
   4  10  -5    2.02    0.30   1
  -4  10   5    2.53    0.30   1
   3 -10  -5    1.12    0.23   1
   3 -10  -5    0.84    0.28   1
   3 -10  -5    0.81    0.26   1
  -3 -10   5    1.18    0.20   1
  -3  10   5    1.20    0.21   1
  -2 -10   5    2.29    0.24   1
   2 -10  -5    2.16    0.26   1
  -2 -10   5    2.17    0.21   1
   2 -10  -5    1.69    0.32   1
   2 -10  -5    2.08    0.31   1
   2  10  -5    2.12    0.31   1
  -2  10   5    1.96    0.23   1
   2  10  -5    2.00    0.21   1
  -2  10   5    2.35    0.24   1
   2  10  -5    2.09    0.24   1
   1 -10  -5    6.02    0.46   1
  -1 -10   5    5.96    0.37   1
   1 -10  -5    6.01    0.42   1
   1 -10  -5    7.01    0.58   1
  -1 -10   5    6.45    0.39   1
   1  10  -5    6.27    0.38   1
   1  10  -5    5.74    0.51   1
  -1  10   5    5.97    0.39   1
  -1  10   5    5.66    0.39   1
   1  10  -5    6.22    0.39   1
   0 -10  -5    0.97    0.11   1
   0 -10   5    1.10    0.14   1
   0 -10   5    1.27    0.16   1
   0 -10  -5    1.34    0.19   1
   0 -10  -5    1.31    0.17   1
   0 -10  -5    1.19    0.28   1
   0  10   5    1.27    0.16   1
   0  10  -5    1.27    0.15   1
   0  10  -5    1.64    0.21   1
   0  10  -5    1.95    0.30   1
   0  10  -5    1.17    0.14   1
   0  10   5    1.15    0.17   1
  -1 -10  -5    1.95    0.21   1
  -1 -10  -5    2.34    0.36   1
   1 -10   5    2.30    0.17   1
   1 -10   5    2.56    0.18   1
  -1  10  -5    2.95    0.29   1
   1  10   5    2.10    0.20   1
   1  10   5    2.59    0.20   1
  -1  10  -5    2.74    0.24   1
   2  10   5    1.87    0.33  -2
  -2 -10  -5    1.87    0.33   1
  -2  10  -5    1.54    0.14  -2
   2 -10   5    1.54    0.14   1
   2 -10   5    1.50    0.24  -2
  -2  10  -5    1.50    0.24   1
  -2 -10  -5    1.61    0.16  -2
   2  10   5    1.61    0.16   1
  -2 -10  -5    2.12    0.38  -2
   2  10   5    2.12    0.38   1
   2 -10   5    1.79    0.23  -2
  -2  10  -5    1.79    0.23   1
  -3 -10  -5    1.30    0.31   1
  -3  10  -5    1.72    0.27   1
  -3  10  -5    1.76    0.29   1
   3  10   5    1.73    0.42   1
  -4  10  -5    0.22    0.21   1
  -6  11   5    0.18    0.17   1
   6  11  -5    0.18    0.31   1
   5 -11  -5    1.12    0.29   1
  -5  11   5    1.18    0.27   1
  -5  11   5    0.69    0.20   1
   5  11  -5    1.36    0.34   1
   4 -11  -5    5.26    0.45   1
   4 -11  -5    4.35    0.58   1
  -4 -11   5    5.28    0.43   1
   4  11  -5    4.33    0.50   1
  -4  11   5    5.53    0.43   1
   4  11  -5    4.97    0.43   1
  -4  11   5    4.50    0.37   1
   3 -11  -5    1.06    0.30   1
   3 -11  -5    1.16    0.25   1
  -3 -11   5    1.05    0.21   1
   3 -11  -5    1.47    0.33   1
   3  11  -5    1.02    0.19   1
   3  11  -5    1.22    0.28   1
   3  11  -5    1.04    0.22   1
  -3  11   5    1.69    0.24   1
   2 -11  -5    0.19    0.17   1
   2 -11  -5    0.26    0.19   1
   2 -11  -5    0.15    0.21   1
  -2 -11   5    0.04    0.14   1
  -2 -11   5    0.19    0.11   1
  -2  11   5    0.14    0.13   1
   2  11  -5    0.41    0.13   1
   2  11  -5    0.27    0.20   1
   2  11  -5    0.22    0.13   1
  -2  11   5    0.26    0.14   1
  -1 -11   5    2.21    0.20   1
   1 -11  -5    2.19    0.34   1
   1 -11  -5    2.12    0.25   1
  -1 -11   5    2.20    0.22   1
   1 -11  -5    1.93    0.26   1
   1  11  -5    2.36    0.21   1
   1  11  -5    2.47    0.31   1
  -1  11   5    1.69    0.21   1
  -1  11   5    1.79    0.22   1
   1  11  -5    2.42    0.23   1
   0 -11  -5    0.44    0.08   1
   0 -11   5    0.67    0.13   1
   0 -11   5    0.76    0.11   1
   0 -11  -5    0.71    0.24   1
   0 -11  -5    0.58    0.14   1
   0 -11  -5    0.69    0.14   1
   0  11  -5    0.70    0.12   1
   0  11  -5    0.79    0.12   1
   0  11  -5    0.64    0.17   1
   0  11   5    0.67    0.13   1
   0  11  -5    0.60    0.21   1
   0  11   5    0.55    0.14   1
  -1 -11  -5    0.86    0.27   1
  -1 -11  -5    1.06    0.15   1
   1 -11   5    1.18    0.15   1
   1  11   5    0.98    0.14   1
  -1  11  -5    1.44    0.23   1
  -1  11  -5    1.21    0.18   1
  -2  11  -5    0.26    0.09  -2
   2 -11   5    0.26    0.09   1
   2  11   5    0.36    0.23  -2
  -2 -11  -5    0.36    0.23   1
   2 -11   5    0.40    0.18  -2
  -2  11  -5    0.40    0.18   1
  -2 -11  -5    0.32    0.11  -2
   2  11   5    0.32    0.11   1
   2 -11   5    0.14    0.13  -2
  -2  11  -5    0.14    0.13   1
  -3 -11  -5    0.09    0.23   1
  -3  11  -5    0.13    0.19   1
   3  11   5    0.34    0.34   1
  -3  11  -5    0.25    0.18   1
  -4  11  -5    1.25    0.28   1
  -6  12   5    0.06    0.17   1
   5 -12  -5    0.89    0.31   1
  -5  12   5    0.64    0.19   1
  -5  12   5    1.35    0.29   1
   5  12  -5    1.18    0.32   1
   5  12  -5    1.28    0.33   1
   4 -12  -5    1.20    0.28   1
   4 -12  -5    0.81    0.34   1
  -4 -12   5    1.66    0.27   1
  -4  12   5    1.05    0.23   1
   4  12  -5    1.77    0.34   1
  -4  12   5    1.22    0.21   1
   4  12  -5    1.87    0.28   1
   3 -12  -5    0.85    0.28   1
   3 -12  -5    0.96    0.23   1
  -3 -12   5    0.97    0.20   1
   3 -12  -5    0.73    0.27   1
  -2 -12   5    5.93    0.41   1
  -2 -12   5    5.56    0.38   1
   2 -12  -5    5.77    0.44   1
   2 -12  -5    6.06    0.51   1
   2  12  -5    6.19    0.40   1
  -2  12   5    6.19    0.42   1
   2  12  -5    5.80    0.52   1
   2  12  -5    5.66    0.40   1
  -1 -12   5    0.97    0.17   1
   1 -12  -5    0.65    0.19   1
  -1 -12   5    0.77    0.13   1
   1 -12  -5    1.13    0.28   1
   1 -12  -5    0.96    0.20   1
   1  12  -5    0.58    0.14   1
  -1  12   5    0.72    0.14   1
   1  12  -5    0.93    0.22   1
   1  12  -5    1.23    0.18   1
  -1  12   5    0.60    0.17   1
  -1  12   5    0.67    0.15   1
   0 -12  -5    2.12    0.22   1
   0 -12   5    2.41    0.21   1
   0 -12   5    2.03    0.18   1
   0 -12  -5    1.49    0.14   1
   0 -12  -5    3.26    0.42   1
   0 -12  -5    1.74    0.23   1
   0  12  -5    2.44    0.25   1
   0  12  -5    2.22    0.20   1
   0  12  -5    2.23    0.17   1
   0  12   5    1.69    0.21   1
   0  12   5    1.82    0.21   1
   0  12  -5    2.61    0.35   1
   1 -12   5    2.05    0.19   1
  -1 -12  -5    1.83    0.35   1
  -1 -12  -5    1.89    0.18   1
  -1  12  -5    1.87    0.21   1
   1  12   5    2.05    0.19   1
  -1  12  -5    2.21    0.25   1
  -2  12  -5    0.21    0.10  -2
   2 -12   5    0.21    0.10   1
   2  12   5    0.32    0.23  -2
  -2 -12  -5    0.32    0.23   1
  -2 -12  -5    0.19    0.11  -2
   2  12   5    0.19    0.11   1
   2 -12   5    0.07    0.14  -2
  -2  12  -5    0.07    0.14   1
   2 -12   5    0.25    0.18  -2
  -2  12  -5    0.25    0.18   1
  -3 -12  -5    0.11    0.25   1
  -3  12  -5    0.15    0.17   1
   3  12   5    0.34    0.35   1
  -3  12  -5    0.22    0.21   1
  -4  12  -5    0.48    0.24   1
  -6  13   5    0.23    0.19   1
  -5 -13   5   -0.03    0.20   1
   5 -13  -5    0.27    0.26   1
   5  13  -5    0.27    0.25   1
  -5  13   5    0.15    0.22   1
  -5  13   5   -0.04    0.13   1
  -4 -13   5    0.81    0.23   1
   4 -13  -5    0.68    0.24   1
   4 -13  -5    0.32    0.31   1
  -4  13   5    0.82    0.24   1
   4  13  -5    0.44    0.24   1
  -4  13   5    0.51    0.18   1
   4  13  -5    0.51    0.22   1
   3 -13  -5    2.42    0.33   1
   3 -13  -5    3.03    0.45   1
  -3 -13   5    3.15    0.33   1
   3  13  -5    3.45    0.31   1
  -3  13   5    3.38    0.34   1
   3  13  -5    3.34    0.41   1
   3  13  -5    2.96    0.34   1
  -2 -13   5   11.05    0.63   1
   2 -13  -5   10.05    0.64   1
   2 -13  -5   10.59    0.84   1
   2 -13  -5    9.43    0.75   1
   2  13  -5   10.93    0.77   1
  -2  13   5   10.08    0.62   1
   2  13  -5   10.76    0.61   1
   2  13  -5    9.88    0.62   1
   1 -13  -5    4.03    0.35   1
   1 -13  -5    4.43    0.50   1
  -1 -13   5    4.34    0.30   1
  -1 -13   5    4.71    0.33   1
   1 -13  -5    4.50    0.38   1
   1  13  -5    4.00    0.33   1
   1  13  -5    4.06    0.42   1
  -1  13   5    4.18    0.33   1
  -1  13   5    3.79    0.32   1
  -1  13   5    4.12    0.32   1
   1  13  -5    4.43    0.32   1
   0 -13  -5    1.58    0.19   1
   0 -13   5    1.02    0.17   1
   0 -13  -5    1.40    0.29   1
   0 -13  -5    0.78    0.18   1
   0  13   5    0.81    0.17   1
   0  13  -5    1.24    0.27   1
   0  13  -5    1.23    0.14   1
   0  13  -5    0.94    0.15   1
   0  13  -5    1.26    0.20   1
   1 -13   5    0.58    0.14   1
  -1 -13  -5    0.54    0.26   1
   1  13   5    0.73    0.14   1
  -1  13  -5    0.88    0.19   1
  -1  13  -5    0.75    0.15   1
   2  13   5    0.21    0.25  -2
  -2 -13  -5    0.21    0.25   1
  -2  13  -5    0.08    0.10  -2
   2 -13   5    0.08    0.10   1
  -2 -13  -5    0.24    0.13  -2
   2  13   5    0.24    0.13   1
   2 -13   5    0.14    0.14  -2
  -2  13  -5    0.14    0.14   1
   2 -13   5    0.50    0.20  -2
  -2  13  -5    0.50    0.20   1
   3 -13   5    2.15    0.22   1
  -3 -13  -5    2.05    0.40   1
  -3  13  -5    2.32    0.30   1
  -3  13  -5    2.69    0.38   1
   3  13   5    2.85    0.52   1
  -4  13  -5    0.14    0.20   1
  -5 -14   5    0.66    0.27   1
   5  14  -5    0.32    0.27   1
   5  14  -5    0.53    0.29   1
  -5  14   5    0.36    0.17   1
  -5  14   5    0.31    0.23   1
   4 -14  -5    0.14    0.23   1
  -4 -14   5   -0.03    0.18   1
   4  14  -5    0.41    0.23   1
   4  14  -5    0.13    0.20   1
  -4  14   5    0.26    0.17   1
  -4  14   5    0.19    0.21   1
  -3 -14   5    0.74    0.21   1
   3 -14  -5    0.56    0.28   1
   3 -14  -5    0.48    0.22   1
   3  14  -5    0.60    0.19   1
  -3  14   5    0.77    0.21   1
   3  14  -5    0.95    0.27   1
   3  14  -5    1.17    0.21   1
   2 -14  -5    3.42    0.36   1
  -2 -14   5    3.44    0.32   1
   2 -14  -5    2.76    0.41   1
   2  14  -5    3.52    0.30   1
   2  14  -5    3.42    0.32   1
  -2  14   5    3.26    0.31   1
   2  14  -5    4.28    0.43   1
   1 -14  -5    0.11    0.22   1
   1 -14  -5    0.39    0.17   1
  -1 -14   5    0.14    0.13   1
   1 -14  -5    0.21    0.16   1
  -1  14   5    0.03    0.13   1
   1  14  -5    0.02    0.14   1
   1  14  -5    0.17    0.19   1
  -1  14   5   -0.02    0.14   1
   1  14  -5    0.08    0.13   1
  -1  14   5    0.07    0.09   1
   0 -14   5    4.67    0.34   1
   0 -14  -5    5.20    0.57   1
   0 -14  -5    5.07    0.36   1
   0 -14  -5    4.54    0.35   1
   0  14   5    4.30    0.34   1
   0  14  -5    4.63    0.47   1
   0  14  -5    5.00    0.38   1
   0  14  -5    4.28    0.29   1
  -1 -14  -5    0.56    0.27   1
   1 -14   5    0.24    0.12   1
  -1  14  -5    0.38    0.13   1
  -1  14  -5    0.59    0.18   1
   1  14   5    0.34    0.12   1
  -2  14  -5    0.30    0.12  -2
   2 -14   5    0.30    0.12   1
   2  14   5    0.21    0.23  -2
  -2 -14  -5    0.21    0.23   1
  -2 -14  -5    0.07    0.12  -2
   2  14   5    0.07    0.12   1
   2 -14   5    0.23    0.18  -2
  -2  14  -5    0.23    0.18   1
   2 -14   5    0.25    0.15  -2
  -2  14  -5    0.25    0.15   1
  -3 -14  -5    0.72    0.31   1
   3 -14   5    0.85    0.16   1
   3  14   5    1.37    0.41   1
  -3  14  -5    0.99    0.23   1
  -3  14  -5    1.10    0.26   1
  -5 -15   5   -0.02    0.20   1
  -5  15   5    0.20    0.17   1
  -5  15   5    0.25    0.25   1
   5  15  -5    0.17    0.26   1
  -4 -15   5    0.53    0.22   1
   4 -15  -5    0.52    0.26   1
  -4  15   5    0.55    0.22   1
   4  15  -5    0.44    0.24   1
   4  15  -5    0.23    0.21   1
  -4  15   5    0.45    0.19   1
   3 -15  -5    0.77    0.30   1
  -3 -15   5    1.52    0.24   1
   3 -15  -5    1.37    0.29   1
   3  15  -5    0.99    0.23   1
  -2 -15   5    1.28    0.23   1
   2 -15  -5    1.39    0.30   1
   2 -15  -5    1.69    0.28   1
   2  15  -5    1.64    0.23   1
  -2  15   5    1.76    0.25   1
   2  15  -5    1.51    0.23   1
   2  15  -5    1.89    0.32   1
   1 -15  -5    0.79    0.20   1
   1 -15  -5    0.71    0.19   1
  -1 -15   5    0.93    0.19   1
   1 -15  -5    0.53    0.26   1
   1  15  -5    0.89    0.25   1
   1  15  -5    0.86    0.18   1
  -1  15   5    0.85    0.18   1
   1  15  -5    1.03    0.20   1
   0 -15  -5    0.18    0.14   1
   0 -15   5    0.20    0.13   1
   0 -15  -5    0.45    0.26   1
   0  15   5    0.04    0.14   1
   0  15  -5    0.37    0.23   1
   0  15  -5    0.66    0.17   1
   0  15  -5    0.18    0.09   1
  -1 -15  -5    0.44    0.27   1
   1 -15   5    0.60    0.15   1
   1  15   5    0.68    0.16   1
  -1  15  -5    0.87    0.21   1
  -1  15  -5    0.47    0.14   1
  -2  15  -5    1.06    0.17  -2
   2 -15   5    1.06    0.17   1
   2  15   5    1.51    0.35  -2
  -2 -15  -5    1.51    0.35   1
   2 -15   5    0.99    0.23  -2
  -2  15  -5    0.99    0.23   1
  -2 -15  -5    1.28    0.19  -2
   2  15   5    1.28    0.19   1
   2 -15   5    1.13    0.21  -2
  -2  15  -5    1.13    0.21   1
   3 -15   5    0.04    0.13   1
  -3  15  -5    0.14    0.19   1
   3  15   5    0.26    0.33   1
  -3  15  -5    0.09    0.20   1
   5 -16  -5    0.51    0.28   1
   5  16  -5    0.23    0.27   1
  -5  16   5    0.26    0.24   1
  -5  16   5    0.23    0.17   1
  -4 -16   5    0.35    0.21   1
   4 -16  -5    0.35    0.27   1
  -4  16   5    0.07    0.22   1
   4  16  -5    0.21    0.22   1
  -4  16   5    0.19    0.17   1
   4  16  -5    0.08    0.21   1
   3 -16  -5    2.87    0.36   1
  -3 -16   5    2.89    0.34   1
   3  16  -5    2.51    0.34   1
   3  16  -5    2.66    0.30   1
   3  16  -5    3.00    0.41   1
  -3  16   5    3.47    0.37   1
   2 -16  -5    2.33    0.32   1
   2 -16  -5    2.19    0.35   1
  -2 -16   5    2.21    0.28   1
   2  16  -5    2.07    0.26   1
   2  16  -5    2.32    0.25   1
   2  16  -5    2.44    0.37   1
  -2  16   5    2.12    0.26   1
  -1 -16   5    4.20    0.34   1
   1 -16  -5    3.48    0.35   1
   1 -16  -5    3.86    0.37   1
   1  16  -5    3.81    0.43   1
  -1  16   5    3.40    0.33   1
   1  16  -5    4.04    0.33   1
   1  16  -5    3.99    0.33   1
   0 -16   5    9.66    0.57   1
   0 -16  -5   10.35    0.85   1
   0  16  -5    9.20    0.58   1
   0  16  -5    9.81    0.75   1
   0  16  -5    8.71    0.52   1
   0  16   5    9.56    0.58   1
   1 -16   5    1.04    0.18   1
  -1  16  -5    0.83    0.21   1
   1  16   5    0.72    0.17   1
  -1  16  -5    0.97    0.17   1
  -2  16  -5    1.69    0.22  -2
   2 -16   5    1.69    0.22   1
   2  16   5    2.01    0.40  -2
  -2 -16  -5    2.01    0.40   1
   2 -16   5    1.45    0.23  -2
  -2  16  -5    1.45    0.23   1
  -2 -16  -5    1.47    0.21  -2
   2  16   5    1.47    0.21   1
   2 -16   5    1.64    0.27  -2
  -2  16  -5    1.64    0.27   1
   3 -16   5    0.22    0.14   1
  -3 -16  -5   -0.10    0.30   1
  -3  16  -5    0.40    0.21   1
  -3  16  -5    0.23    0.19   1
   3  16   5    0.53    0.37   1
   3  16   5    0.44    0.17   1
   5  17  -5    1.00    0.32   1
   5  17  -5    1.16    0.31   1
  -5  17   5    0.99    0.24   1
   4 -17  -5    0.68    0.27   1
  -4 -17   5    0.96    0.25   1
   4  17  -5    0.42    0.24   1
   4  17  -5    0.79    0.26   1
  -4  17   5    0.70    0.25   1
  -3 -17   5    0.34    0.20   1
   3 -17  -5    0.55    0.26   1
   3  17  -5    0.52    0.19   1
   3  17  -5    0.65    0.25   1
  -3  17   5    0.35    0.19   1
   3  17  -5    0.18    0.19   1
   2 -17  -5    0.09    0.24   1
   2 -17  -5    0.19    0.20   1
  -2 -17   5    0.17    0.17   1
   2  17  -5    0.13    0.15   1
  -2  17   5    0.22    0.16   1
   2  17  -5    0.31    0.16   1
   2  17  -5    0.36    0.22   1
   1 -17  -5    2.98    0.35   1
  -1 -17   5    3.38    0.31   1
   1  17  -5    3.39    0.41   1
  -1  17   5    3.34    0.33   1
   1  17  -5    2.95    0.33   1
   1  17  -5    3.49    0.31   1
   0 -17   5    4.72    0.36   1
   0 -17  -5    5.17    0.61   1
   0  17   5    4.26    0.35   1
   0  17  -5    4.70    0.50   1
   0  17  -5    4.20    0.30   1
   0  17  -5    5.07    0.39   1
  -1 -17  -5    0.42    0.29   1
   1 -17   5    0.41    0.15   1
   1  17   5    0.39    0.15   1
  -1  17  -5    0.46    0.20   1
  -1  17  -5    0.70    0.15   1
   2  17   5    2.04    0.41  -2
  -2 -17  -5    2.04    0.41   1
  -2  17  -5    2.37    0.25  -2
   2 -17   5    2.37    0.25   1
  -2 -17  -5    1.95    0.25  -2
   2  17   5    1.95    0.25   1
   2 -17   5    1.61    0.24  -2
  -2  17  -5    1.61    0.24   1
   2 -17   5    1.76    0.31  -2
  -2  17  -5    1.76    0.31   1
   3 -17   5    2.18    0.26   1
   3  17   5    2.26    0.48   1
   3  17   5    2.04    0.27   1
  -3  17  -5    2.29    0.33   1
  -3  17  -5    2.41    0.32   1
  -5  18   5   -0.02    0.18   1
   5  18  -5   -0.13    0.23   1
   5  18  -5   -0.12    0.23   1
  -4 -18   5    0.24    0.22   1
  -4  18   5    0.34    0.24   1
   4  18  -5    0.27    0.22   1
   4  18  -5    0.15    0.18   1
   4  18  -5    0.18    0.21   1
  -3 -18   5    0.57    0.21   1
   3 -18  -5    0.48    0.24   1
   3  18  -5    0.42    0.20   1
   3  18  -5    0.47    0.21   1
   3  18  -5    0.55    0.25   1
  -3  18   5    0.46    0.22   1
  -2 -18   5   -0.08    0.16   1
   2  18  -5   -0.07    0.22   1
  -2  18   5   -0.14    0.15   1
   2  18  -5   -0.15    0.16   1
   2  18  -5   -0.05    0.15   1
   1 -18  -5    0.74    0.21   1
  -1 -18   5    1.00    0.20   1
   1 -18  -5    0.90    0.32   1
   1  18  -5    0.63    0.20   1
  -1  18   5    1.04    0.21   1
   1  18  -5    0.93    0.27   1
   0 -18   5    2.03    0.26   1
   0  18  -5    1.71    0.34   1
   0  18  -5    1.70    0.26   1
   0  18   5    1.92    0.25   1
  -1 -18  -5    0.69    0.33   1
   1 -18   5    0.78    0.19   1
   1  18   5    0.71    0.18   1
  -1  18  -5    0.59    0.16   1
  -1  18  -5    0.52    0.22   1
  -2  18  -5    0.34    0.17  -2
   2 -18   5    0.34    0.17   1
   2 -18   5    0.42    0.23  -2
  -2  18  -5    0.42    0.23   1
   2 -18   5    0.44    0.17  -2
  -2  18  -5    0.44    0.17   1
  -2 -18  -5    0.49    0.17  -2
   2  18   5    0.49    0.17   1
   3 -18   5    1.63    0.23   1
  -3  18  -5    1.35    0.26   1
   3  18   5    1.11    0.42   1
   3  18   5    1.38    0.24   1
   5  19  -5   -0.01    0.24   1
   5  19  -5   -0.12    0.23   1
  -4 -19   5    0.13    0.20   1
   4 -19  -5   -0.01    0.26   1
  -4  19   5    0.39    0.24   1
   4  19  -5    0.06    0.21   1
   4  19  -5   -0.08    0.18   1
   4  19  -5    0.14    0.21   1
   3 -19  -5    0.39    0.26   1
  -3 -19   5    0.15    0.19   1
  -3  19   5    0.07    0.19   1
   3  19  -5    0.20    0.23   1
   3  19  -5    0.05    0.19   1
   3  19  -5    0.18    0.19   1
   2 -19  -5    0.94    0.26   1
  -2 -19   5    0.69    0.22   1
   2  19  -5    1.06    0.24   1
   2  19  -5    0.93    0.30   1
  -2  19   5    0.59    0.20   1
   2  19  -5    0.38    0.19   1
   1 -19  -5    0.38    0.20   1
  -1 -19   5    0.43    0.18   1
   1  19  -5    0.24    0.23   1
  -1  19   5    0.33    0.18   1
   1  19  -5    0.42    0.20   1
   0 -19  -5    0.07    0.29   1
   0 -19   5    0.23    0.16   1
   0  19  -5    0.54    0.19   1
   0  19   5    0.24    0.17   1
   0  19  -5    0.17    0.26   1
   1 -19   5    1.36    0.22   1
  -1 -19  -5    1.02    0.38   1
  -1  19  -5    1.29    0.27   1
   1  19   5    1.10    0.21   1
  -1  19  -5    1.03    0.19   1
  -2  19  -5    0.79    0.19  -2
   2 -19   5    0.79    0.19   1
   2 -19   5    0.55    0.19  -2
  -2  19  -5    0.55    0.19   1
   2 -19   5    0.53    0.25  -2
  -2  19  -5    0.53    0.25   1
  -2 -19  -5    0.91    0.21  -2
   2  19   5    0.91    0.21   1
   3 -19   5    0.32    0.18   1
  -3 -19  -5    0.08    0.37   1
  -3  19  -5    0.26    0.20   1
   3  19   5    0.45    0.19   1
   4 -20  -5    0.38    0.27   1
  -4 -20   5    0.33    0.23   1
  -4  20   5    0.13    0.22   1
   4  20  -5    0.56    0.22   1
   4  20  -5    0.23    0.23   1
  -3 -20   5    0.58    0.21   1
   3  20  -5    0.34    0.21   1
   3  20  -5    0.48    0.25   1
  -3  20   5    0.42    0.21   1
   3  20  -5    0.29    0.20   1
   2 -20  -5   -0.14    0.18   1
  -2 -20   5    0.11    0.18   1
   2  20  -5    0.09    0.23   1
   2  20  -5   -0.18    0.16   1
  -2  20   5    0.08    0.19   1
   2  20  -5   -0.04    0.16   1
  -1 -20   5   -0.10    0.15   1
   1 -20  -5    0.06    0.18   1
  -1  20   5   -0.11    0.16   1
   1  20  -5    0.08    0.19   1
   1  20  -5    0.07    0.24   1
   0 -20   5    1.57    0.25   1
   0  20  -5    1.30    0.33   1
   0  20  -5    1.38    0.26   1
   0  20   5    1.88    0.26   1
   1 -20   5    1.09    0.21   1
  -1  20  -5    1.13    0.26   1
   1  20   5    1.00    0.21   1
  -2  20  -5    0.41    0.18  -2
   2 -20   5    0.41    0.18   1
   2 -20   5    0.41    0.24  -2
  -2  20  -5    0.41    0.24   1
  -2 -20  -5    0.15    0.18  -2
   2  20   5    0.15    0.18   1
   2 -20   5    0.30    0.18  -2
  -2  20  -5    0.30    0.18   1
   3 -20   5    1.21    0.23   1
  -3  20  -5    0.98    0.26   1
   3  20   5    1.06    0.24   1
   4  21  -5   -0.08    0.22   1
   4  21  -5   -0.02    0.19   1
   4  21  -5    0.01    0.21   1
  -3 -21   5    1.71    0.30   1
   3 -21  -5    1.54    0.37   1
  -3  21   5    1.45    0.31   1
   3  21  -5    1.64    0.34   1
   3  21  -5    1.99    0.32   1
   3  21  -5    1.35    0.28   1
   2 -21  -5   -0.19    0.19   1
  -2 -21   5    0.03    0.19   1
  -2  21   5    0.22    0.20   1
   2  21  -5    0.04    0.22   1
   2  21  -5   -0.19    0.17   1
  -1 -21   5    0.20    0.18   1
   1 -21  -5   -0.02    0.30   1
   1  21  -5   -0.10    0.22   1
   1  21  -5    0.05    0.19   1
  -1  21   5   -0.02    0.17   1
   0 -21   5    0.21    0.18   1
   0  21  -5    0.27    0.20   1
   0  21  -5    0.71    0.31   1
   0  21   5    0.49    0.20   1
   1 -21   5    0.24    0.17   1
  -1  21  -5    0.38    0.22   1
   1  21   5    0.14    0.16   1
   2  21   5    0.34    0.39  -2
  -2 -21  -5    0.34    0.39   1
  -2  21  -5    0.51    0.19  -2
   2 -21   5    0.51    0.19   1
   2 -21   5   -0.08    0.16  -2
  -2  21  -5   -0.08    0.16   1
  -2 -21  -5    0.27    0.19  -2
   2  21   5    0.27    0.19   1
   3 -21   5    0.17    0.19   1
  -3  21  -5    0.24    0.22   1
   4  22  -5    0.12    0.21   1
   4  22  -5    0.08    0.23   1
  -3 -22   5    0.42    0.22   1
   3 -22  -5    0.61    0.28   1
   3  22  -5    0.64    0.28   1
  -3  22   5    0.62    0.26   1
   3  22  -5    0.22    0.21   1
   3  22  -5    0.17    0.22   1
  -2 -22   5    0.44    0.21   1
   2 -22  -5   -0.04    0.22   1
   2  22  -5    0.20    0.20   1
   2  22  -5    0.22    0.26   1
  -2  22   5    0.06    0.21   1
  -1 -22   5    0.70    0.22   1
  -1  22   5    0.68    0.23   1
   1  22  -5    0.96    0.30   1
   1  22  -5    0.78    0.25   1
   0 -22   5    1.23    0.25   1
   0  22  -5    0.94    0.25   1
   0  22   5    1.12    0.24   1
   0  22  -5    1.34    0.36   1
   1 -22   5    0.01    0.16   1
   1  22   5   -0.02    0.17   1
  -2  22  -5    1.16    0.23  -2
   2 -22   5    1.16    0.23   1
  -2 -22  -5    0.95    0.23  -2
   2  22   5    0.95    0.23   1
  -3  22  -5   -0.06    0.22   1
   4  23  -5    0.09    0.23   1
  -3 -23   5    0.78    0.26   1
   3 -23  -5    0.97    0.31   1
  -3  23   5    0.79    0.29   1
   3  23  -5    0.69    0.30   1
   3  23  -5    0.77    0.24   1
   2 -23  -5    0.99    0.29   1
  -2 -23   5    1.24    0.29   1
  -2  23   5    1.01    0.28   1
   2  23  -5    0.99    0.27   1
   2  23  -5    1.31    0.34   1
  -1 -23   5    0.14    0.19   1
   1  23  -5    0.02    0.20   1
  -1  23   5   -0.05    0.19   1
   1  23  -5    0.27    0.26   1
   0 -23   5   -0.05    0.18   1
   0  23  -5    0.17    0.29   1
   0  23  -5    0.00    0.21   1
   0  23   5    0.13    0.19   1
   1 -23   5    0.71    0.22   1
  -1  23  -5    1.09    0.29   1
   1  23   5    0.69    0.21   1
  -2  23  -5    0.39    0.21  -2
   2 -23   5    0.39    0.21   1
  -2 -23  -5    0.18    0.20  -2
   2  23   5    0.18    0.20   1
   3 -24  -5    0.21    0.26   1
   3  24  -5    0.31    0.27   1
  -2 -24   5    0.45    0.24   1
   2  24  -5    0.15    0.21   1
   2  24  -5    0.10    0.28   1
  -2  24   5    0.18    0.22   1
  -1 -24   5    3.41    0.38   1
   1  24  -5    2.76    0.37   1
  -1  24   5    2.77    0.36   1
   1  24  -5    3.18    0.46   1
   0 -24   5    0.33    0.20   1
   0  24   5    0.02    0.19   1
   0  24  -5    0.16    0.30   1
   1 -24   5    0.17    0.20   1
   1  24   5    0.11    0.19   1
   3  25  -5   -0.11    0.25   1
   2  25  -5    0.12    0.23   1
   2  25  -5    0.26    0.30   1
  -1 -25   5    1.45    0.28   1
  -1  25   5    1.28    0.29   1
   1  25  -5    2.08    0.39   1
   1  25  -5    1.60    0.29   1
   0 -25   5    0.37    0.21   1
   0  25  -5    0.04    0.30   1
   0  25   5    0.24    0.21   1
   0  25  -5    0.01    0.23   1
   1 -25   5    0.11    0.20   1
   2  26  -5    0.74    0.34   1
   1  26  -5    0.62    0.32   1
   0  26  -5    0.24    0.31   1
   2  27  -5   -0.17    0.28   1
   1  27  -5    0.07    0.28   1
   1  28  -5    0.05    0.29   1
   5   0  -6    0.43    0.32   1
  -5   0   6    0.20    0.22   1
   4   0  -6    1.08    0.34   1
   4   0  -6    1.25    0.26   1
  -4   0   6    1.29    0.24   1
  -3   0   6    1.41    0.21   1
   3   0  -6    1.66    0.25   1
   3   0  -6    1.42    0.30   1
   2   0  -6    0.01    0.18   1
   2   0  -6    0.11    0.07   1
  -2   0   6   -0.02    0.11   1
  -2   0   6   -0.08    0.08   1
   2   0  -6   -0.14    0.12   1
   2   0  -6    0.03    0.06   1
   1   0  -6    6.59    0.38   1
   1   0  -6    6.63    0.54   1
   1   0  -6    6.82    0.39   1
  -1   0   6    6.99    0.38   1
  -1   0   6    6.66    0.38   1
   0   0  -6   19.50    1.00   1
   0   0  -6   18.39    1.22   1
   3   0   4   -0.25    0.13  -2
  -1   0  -6   -0.25    0.13   1
   3   0   4    0.08    0.17  -2
  -1   0  -6    0.08    0.17   1
  -2   0  -6    2.83    0.40   1
  -2   0  -6    2.65    0.30   1
  -3   0  -6    0.67    0.27   1
   5  -1  -6    0.44    0.33   1
  -5  -1   6    0.91    0.27   1
   5  -1  -6    1.34    0.30   1
  -5   1   6    0.91    0.25   1
   5   1  -6    0.61    0.34   1
   5   1  -6    0.57    0.23   1
   4  -1  -6    0.07    0.20   1
  -4  -1   6    0.53    0.20   1
   4  -1  -6    1.15    0.29   1
   4   1  -6    0.07    0.17   1
  -4   1   6    0.46    0.18   1
  -3  -1   6    4.17    0.31   1
   3  -1  -6    3.38    0.32   1
   3  -1  -6    3.92    0.42   1
   3   1  -6    3.61    0.44   1
   3   1  -6    3.29    0.30   1
  -3   1   6    3.82    0.31   1
   2  -1  -6   -0.07    0.17   1
   2  -1  -6   -0.01    0.06   1
  -2  -1   6   -0.06    0.08   1
   2  -1  -6    0.03    0.05   1
  -2  -1   6   -0.08    0.11   1
   2  -1  -6   -0.05    0.12   1
  -2   1   6   -0.18    0.08   1
   2   1  -6    0.03    0.07   1
   2   1  -6   -0.08    0.11   1
   2   1  -6   -0.26    0.16   1
   2   1  -6    0.03    0.06   1
  -2   1   6   -0.14    0.10   1
  -1  -1   6    0.40    0.09   1
   1  -1  -6    0.28    0.09   1
  -1  -1   6    0.39    0.09   1
   1  -1  -6    0.17    0.18   1
   1  -1  -6    0.22    0.10   1
   1   1  -6    0.58    0.10   1
  -1   1   6    0.33    0.09   1
   1   1  -6    0.45    0.20   1
  -1   1   6    0.22    0.08   1
   1   1  -6    0.51    0.11   1
   0  -1  -6    8.56    0.66   1
   0  -1  -6    9.05    0.52   1
   0   1  -6    8.96    0.53   1
   0   1  -6    9.46    0.67   1
   3   1   4    0.48    0.20  -2
  -1  -1  -6    0.48    0.20   1
   3   1   4    0.56    0.21  -2
  -1  -1  -6    0.56    0.21   1
   3  -1   4    0.36    0.20  -2
  -1   1  -6    0.36    0.20   1
   3  -1   4    0.09    0.15  -2
  -1   1  -6    0.09    0.15   1
  -2  -1  -6    0.47    0.22   1
  -2  -1  -6    0.51    0.19   1
  -2   1  -6    0.98    0.21   1
  -2   1  -6    0.63    0.23   1
  -3  -1  -6    1.57    0.31   1
  -3  -1  -6    1.49    0.31   1
  -3   1  -6    1.58    0.31   1
   5  -2  -6    0.59    0.36   1
   5  -2  -6    1.04    0.25   1
   5   2  -6    1.24    0.28   1
   5   2  -6    0.72    0.34   1
   4  -2  -6    0.11    0.26   1
  -4  -2   6    0.00    0.17   1
   4  -2  -6   -0.03    0.20   1
   4   2  -6    0.08    0.27   1
   4   2  -6   -0.08    0.17   1
  -4   2   6   -0.07    0.16   1
   3  -2  -6    0.60    0.25   1
  -3  -2   6    0.86    0.17   1
   3  -2  -6    0.40    0.17   1
   3   2  -6    1.15    0.19   1
  -3   2   6    0.41    0.15   1
   3   2  -6    0.99    0.27   1
   2  -2  -6    2.17    0.32   1
  -2  -2   6    1.90    0.20   1
   2  -2  -6    1.73    0.22   1
   2  -2  -6    1.68    0.15   1
  -2  -2   6    1.65    0.19   1
   2  -2  -6    1.70    0.11   1
   2   2  -6    1.60    0.13   1
  -2   2   6    2.00    0.21   1
   2   2  -6    1.64    0.14   1
  -2   2   6    1.57    0.18   1
   2   2  -6    1.43    0.19   1
   2   2  -6    1.97    0.31   1
  -1  -2   6    0.59    0.11   1
  -1  -2   6    0.69    0.11   1
   1  -2  -6    0.37    0.19   1
   1  -2  -6    0.47    0.12   1
   1  -2  -6    0.57    0.10   1
   1   2  -6    0.58    0.12   1
  -1   2   6    0.42    0.10   1
   1   2  -6    0.89    0.23   1
   1   2  -6    0.71    0.12   1
  -1   2   6    0.36    0.10   1
   0  -2  -6    2.30    0.24   1
   0  -2  -6    3.15    0.35   1
   0   2  -6    3.23    0.27   1
   0   2  -6    3.22    0.36   1
   3   2   4    0.68    0.18  -2
  -1  -2  -6    0.68    0.18   1
   3  -2   4    0.73    0.22  -2
  -1   2  -6    0.73    0.22   1
   3  -2   4    0.45    0.14  -2
  -1   2  -6    0.45    0.14   1
  -2  -2  -6    0.25    0.22   1
  -2  -2  -6    0.25    0.19   1
  -2   2  -6    0.06    0.16   1
  -2   2  -6   -0.01    0.18   1
  -3  -2  -6    3.64    0.40   1
  -3   2  -6    4.11    0.41   1
   5  -3  -6    0.44    0.26   1
  -5  -3   6    0.27    0.20   1
   5  -3  -6    0.08    0.30   1
   5   3  -6    0.37    0.25   1
  -5   3   6    0.34    0.21   1
   5   3  -6    0.17    0.27   1
  -4  -3   6    0.98    0.21   1
   4  -3  -6    0.60    0.22   1
   4  -3  -6    1.78    0.34   1
  -4   3   6    1.13    0.23   1
   4   3  -6    0.72    0.21   1
   3  -3  -6    0.78    0.20   1
  -3  -3   6    0.58    0.16   1
   3  -3  -6    0.83    0.28   1
   3   3  -6    0.79    0.27   1
   3   3  -6    0.30    0.16   1
  -3   3   6    0.63    0.17   1
  -2  -3   6    0.02    0.10   1
   2  -3  -6   -0.12    0.13   1
   2  -3  -6    0.11    0.08   1
  -2  -3   6   -0.02    0.11   1
   2  -3  -6   -0.12    0.17   1
   2   3  -6    0.16    0.06   1
   2   3  -6    0.11    0.08   1
   2   3  -6    0.17    0.19   1
   2   3  -6    0.21    0.12   1
  -2   3   6   -0.24    0.11   1
  -2   3   6   -0.12    0.09   1
  -1  -3   6    0.27    0.09   1
   1  -3  -6    0.24    0.10   1
   1  -3  -6    0.29    0.07   1
  -1  -3   6    0.32    0.09   1
   1  -3  -6    0.15    0.18   1
  -1   3   6    0.21    0.08   1
  -1   3   6    0.22    0.10   1
   1   3  -6    0.53    0.19   1
   1   3  -6    0.27    0.10   1
   1   3  -6    0.36    0.11   1
   0  -3  -6    3.23    0.36   1
   0  -3  -6    4.40    0.47   1
   0  -3  -6    3.02    0.26   1
   0   3  -6    3.21    0.38   1
   0   3  -6    3.25    0.29   1
   3   3   4    4.41    0.39  -2
  -1  -3  -6    4.41    0.39   1
   3   3   4    4.77    0.47  -2
  -1  -3  -6    4.77    0.47   1
   3  -3   4    4.23    0.43  -2
  -1   3  -6    4.23    0.43   1
   3  -3   4    2.87    0.30  -2
  -1   3  -6    2.87    0.30   1
  -2  -3  -6    0.08    0.21   1
  -2   3  -6    0.27    0.17   1
  -2   3  -6   -0.01    0.17   1
  -2   3  -6    0.36    0.18   1
  -3  -3  -6    3.49    0.40   1
  -3   3  -6    3.36    0.38   1
   5  -4  -6    0.39    0.23   1
  -5  -4   6    0.28    0.21   1
   5  -4  -6   -0.05    0.31   1
   5   4  -6    0.26    0.30   1
   3  -4  -6    0.16    0.16   1
   3  -4  -6    0.19    0.21   1
  -3  -4   6    0.05    0.13   1
  -3   4   6   -0.13    0.13   1
   3   4  -6    0.11    0.09   1
   3   4  -6    0.19    0.15   1
   3   4  -6    0.05    0.21   1
  -2  -4   6   -0.03    0.08   1
   2  -4  -6   -0.37    0.12   1
  -2  -4   6   -0.21    0.09   1
   2  -4  -6   -0.19    0.16   1
  -2  -4   6   -0.05    0.10   1
  -2   4   6   -0.25    0.08   1
   2   4  -6   -0.09    0.10   1
   2   4  -6    0.06    0.18   1
   2   4  -6   -0.01    0.04   1
   2   4  -6    0.09    0.08   1
   1  -4  -6    1.65    0.12   1
   1  -4  -6    1.52    0.18   1
   1  -4  -6    1.90    0.29   1
  -1  -4   6    1.29    0.15   1
  -1  -4   6    1.35    0.16   1
   1   4  -6    1.39    0.16   1
   1   4  -6    1.21    0.15   1
  -1   4   6    1.44    0.15   1
   1   4  -6    1.64    0.28   1
  -1   4   6    1.64    0.17   1
   0  -4  -6    0.73    0.14   1
   0  -4  -6    0.80    0.25   1
   0  -4  -6    0.62    0.19   1
   0   4   6    0.68    0.09   1
   0   4  -6    0.43    0.21   1
   0   4  -6    0.32    0.13   1
   0   4   6    0.54    0.08   1
   0   4  -6    0.50    0.15   1
   3   4   4    6.33    0.51  -2
  -1  -4  -6    6.33    0.51   1
   3   4   4    7.21    0.61  -2
  -1  -4  -6    7.21    0.61   1
   3  -4   4    6.83    0.57  -2
  -1   4  -6    6.83    0.57   1
   3  -4   4    6.26    0.42  -2
  -1   4  -6    6.26    0.42   1
   3  -4   4    5.20    0.41  -2
  -1   4  -6    5.20    0.41   1
  -2  -4  -6    0.28    0.18   1
  -2  -4  -6    0.05    0.22   1
  -2   4  -6    0.26    0.17   1
  -2   4  -6    0.15    0.17   1
  -3  -4  -6    1.67    0.33   1
  -3  -4  -6    1.47    0.33   1
  -3   4  -6    1.55    0.30   1
  -3   4  -6    1.47    0.33   1
   5  -5  -6    0.06    0.21   1
   5  -5  -6   -0.56    0.29   1
  -5  -5   6    0.31    0.22   1
  -5   5   6   -0.05    0.20   1
   5   5  -6    0.03    0.22   1
   5   5  -6    0.00    0.30   1
   4  -5  -6    2.87    0.46   1
  -4  -5   6    2.85    0.31   1
   4  -5  -6    2.88    0.34   1
   4   5  -6    3.01    0.45   1
   4   5  -6    2.46    0.33   1
  -4   5   6    3.08    0.33   1
  -3  -5   6   -0.02    0.13   1
   3  -5  -6    0.25    0.18   1
   3  -5  -6    0.24    0.24   1
   3   5  -6    0.01    0.21   1
   3   5  -6    0.21    0.11   1
  -3   5   6    0.10    0.15   1
   3   5  -6    0.03    0.14   1
   2  -5  -6    1.41    0.27   1
  -2  -5   6    1.44    0.19   1
  -2  -5   6    1.42    0.18   1
   2  -5  -6    1.35    0.22   1
   2   5  -6    1.41    0.18   1
  -2   5   6    0.94    0.18   1
   2   5  -6    1.63    0.29   1
  -2   5   6    1.04    0.18   1
   2   5  -6    1.36    0.16   1
  -1  -5   6    2.08    0.18   1
   1  -5  -6    2.00    0.14   1
  -1  -5   6    1.99    0.17   1
   1  -5  -6    2.05    0.36   1
   1  -5  -6    2.69    0.33   1
   1  -5  -6    2.10    0.21   1
  -1   5   6    2.01    0.19   1
  -1   5   6    2.20    0.20   1
   1   5  -6    1.84    0.18   1
   1   5  -6    1.64    0.19   1
   1   5  -6    2.12    0.32   1
   1   5  -6    1.85    0.15   1
   0  -5  -6    2.82    0.33   1
   0  -5  -6    2.59    0.23   1
   0  -5  -6    2.81    0.44   1
   0   5   6    2.11    0.18   1
   0   5  -6    3.04    0.36   1
   0   5   6    2.34    0.18   1
   0   5  -6    2.46    0.22   1
   0   5  -6    3.41    0.28   1
   3  -5   4    1.20    0.27  -2
  -1   5  -6    1.20    0.27   1
  -2  -5  -6    0.08    0.15   1
  -2  -5  -6    0.00    0.21   1
  -2   5  -6    0.31    0.19   1
  -2   5  -6    0.33    0.18   1
  -3  -5  -6    0.14    0.23   1
  -3  -5  -6    0.07    0.24   1
  -3   5  -6    0.48    0.24   1
  -3   5  -6    0.08    0.22   1
   5  -6  -6   -0.02    0.21   1
   5  -6  -6   -0.18    0.31   1
  -5  -6   6    0.21    0.21   1
   5   6  -6    0.03    0.22   1
  -5   6   6    0.19    0.13   1
   5   6  -6   -0.01    0.29   1
  -5   6   6   -0.07    0.19   1
   4  -6  -6    2.54    0.35   1
   4  -6  -6    2.89    0.47   1
   4   6  -6    2.65    0.41   1
  -4   6   6    2.69    0.30   1
   4   6  -6    2.27    0.31   1
  -3  -6   6   -0.02    0.14   1
   3  -6  -6    0.23    0.23   1
   3  -6  -6    0.32    0.19   1
   3   6  -6    0.14    0.22   1
  -3   6   6    0.08    0.15   1
   3   6  -6    0.10    0.10   1
   3   6  -6    0.04    0.14   1
   2  -6  -6    4.03    0.40   1
   2  -6  -6    3.31    0.32   1
  -2  -6   6    4.00    0.29   1
   2  -6  -6    4.32    0.49   1
  -2  -6   6    3.56    0.28   1
   2   6  -6    4.02    0.28   1
   2   6  -6    3.68    0.42   1
  -2   6   6    3.20    0.29   1
   2   6  -6    3.50    0.25   1
  -2   6   6    2.80    0.28   1
  -1  -6   6    1.44    0.16   1
   1  -6  -6    2.09    0.36   1
   1  -6  -6    1.47    0.11   1
   1  -6  -6    1.85    0.28   1
   1  -6  -6    1.59    0.20   1
  -1  -6   6    1.50    0.17   1
   1   6  -6    1.91    0.31   1
   1   6  -6    1.52    0.13   1
   1   6  -6    1.43    0.16   1
   1   6  -6    1.40    0.18   1
  -1   6   6    1.52    0.17   1
  -1   6   6    1.72    0.19   1
   0  -6   6    7.03    0.37   1
   0  -6  -6    7.00    0.65   1
   0  -6   6    7.05    0.37   1
   0  -6  -6    7.14    0.53   1
   0   6   6    7.12    0.40   1
   0   6  -6    6.91    0.58   1
   0   6  -6    6.99    0.42   1
   0   6   6    7.12    0.39   1
   0   6  -6    7.70    0.47   1
   3   6   4    3.37    0.32  -2
  -1  -6  -6    3.37    0.32   1
   3   6   4    3.77    0.47  -2
  -1  -6  -6    3.77    0.47   1
   3  -6   4    3.22    0.31  -2
  -1   6  -6    3.22    0.31   1
   3  -6   4    3.12    0.28  -2
  -1   6  -6    3.12    0.28   1
   3  -6   4    2.52    0.40  -2
  -1   6  -6    2.52    0.40   1
  -2  -6  -6    0.35    0.24   1
  -2   6  -6    0.70    0.21   1
  -2   6  -6    0.62    0.20   1
  -3  -6  -6    0.66    0.28   1
  -3   6  -6    0.43    0.25   1
  -3   6  -6    0.44    0.24   1
   6  -7  -6   -0.11    0.25   1
  -5  -7   6    0.07    0.20   1
   5  -7  -6   -0.07    0.34   1
   5  -7  -6    0.01    0.22   1
  -5   7   6    0.04    0.19   1
   5   7  -6    0.04    0.29   1
  -5   7   6    0.01    0.12   1
   4  -7  -6    1.69    0.41   1
   4  -7  -6    1.46    0.32   1
  -4  -7   6    2.12    0.28   1
   4   7  -6    2.06    0.29   1
  -4   7   6    1.81    0.28   1
   4   7  -6    1.45    0.35   1
   3  -7  -6    2.85    0.40   1
  -3  -7   6    2.75    0.28   1
   3  -7  -6    2.38    0.31   1
   3   7  -6    2.64    0.24   1
  -3   7   6    2.65    0.29   1
   3   7  -6    3.04    0.41   1
   3   7  -6    2.25    0.28   1
   2  -7  -6    5.01    0.40   1
   2  -7  -6    5.86    0.50   1
   2  -7  -6    5.76    0.56   1
   2   7  -6    5.42    0.51   1
   2   7  -6    5.44    0.35   1
   2   7  -6    5.52    0.38   1
  -2   7   6    5.81    0.39   1
   1  -7  -6    1.09    0.18   1
   1  -7  -6    0.69    0.26   1
   1  -7  -6    1.07    0.22   1
  -1  -7   6    0.66    0.12   1
  -1   7   6    0.77    0.15   1
   1   7  -6    0.74    0.09   1
   1   7  -6    0.89    0.14   1
   1   7  -6    1.03    0.26   1
   1   7  -6    0.89    0.15   1
  -1   7   6    0.83    0.14   1
   0  -7   6   -0.02    0.07   1
   0  -7  -6    0.28    0.15   1
   0  -7  -6    0.00    0.22   1
   0  -7   6    0.06    0.07   1
   0   7   6    0.07    0.09   1
   0   7   6   -0.06    0.09   1
   0   7  -6    0.28    0.15   1
   0   7  -6    0.21    0.10   1
   0   7  -6    0.47    0.21   1
   3   7   4    2.33    0.39  -2
  -1  -7  -6    2.33    0.39   1
   3   7   4    1.87    0.26  -2
  -1  -7  -6    1.87    0.26   1
   3  -7   4    2.07    0.23  -2
  -1   7  -6    2.07    0.23   1
   3  -7   4    2.53    0.28  -2
  -1   7  -6    2.53    0.28   1
  -2  -7  -6    1.21    0.33   1
  -2   7  -6    1.71    0.27   1
  -2   7  -6    1.31    0.24   1
  -3  -7  -6    0.41    0.28   1
  -3   7  -6    0.21    0.23   1
  -3   7  -6    0.31    0.22   1
  -5  -8   6    0.32    0.22   1
   5  -8  -6   -0.14    0.32   1
   5  -8  -6    0.09    0.24   1
  -5   8   6   -0.03    0.18   1
  -5   8   6    0.11    0.13   1
   5   8  -6   -0.29    0.27   1
   4  -8  -6    2.06    0.44   1
   4  -8  -6    1.80    0.30   1
  -4  -8   6    2.17    0.30   1
  -4   8   6    1.93    0.30   1
   4   8  -6    1.70    0.29   1
   4   8  -6    1.82    0.36   1
   3  -8  -6    0.82    0.29   1
   3  -8  -6    0.88    0.23   1
  -3  -8   6    0.78    0.20   1
   3   8  -6    1.31    0.31   1
   3   8  -6    1.06    0.18   1
   3   8  -6    0.79    0.21   1
  -3   8   6    0.65    0.19   1
  -2  -8   6    3.00    0.27   1
   2  -8  -6    2.67    0.36   1
   2  -8  -6    2.50    0.28   1
   2  -8  -6    3.01    0.43   1
   2   8  -6    2.97    0.39   1
  -2   8   6    2.40    0.26   1
   2   8  -6    2.86    0.24   1
   2   8  -6    3.08    0.27   1
  -1  -8   6    8.91    0.48   1
   1  -8  -6    7.94    0.60   1
   1  -8  -6    8.13    0.73   1
   1  -8  -6    7.95    0.50   1
  -1   8   6    8.03    0.49   1
   1   8  -6    8.36    0.49   1
   1   8  -6    8.67    0.49   1
   1   8  -6    7.85    0.43   1
   1   8  -6    8.78    0.66   1
   0  -8  -6   -0.04    0.13   1
   0  -8   6    0.01    0.07   1
   0  -8  -6   -0.16    0.22   1
   0   8  -6   -0.09    0.09   1
   0   8   6   -0.11    0.09   1
   0   8  -6   -0.03    0.20   1
   0   8  -6   -0.07    0.13   1
   3   8   4    1.09    0.19  -2
  -1  -8  -6    1.09    0.19   1
   3   8   4    1.02    0.28  -2
  -1  -8  -6    1.02    0.28   1
  -3  -8  -4    1.11    0.10  -2
   1   8   6    1.11    0.10   1
   3  -8   4    1.27    0.22  -2
  -1   8  -6    1.27    0.22   1
   3  -8   4    0.97    0.18  -2
  -1   8  -6    0.97    0.18   1
  -2   8  -6    0.93    0.22   1
  -2   8  -6    1.08    0.22   1
  -3   8  -6    0.36    0.21   1
  -3   8  -6    0.36    0.24   1
  -5  -9   6    0.45    0.24   1
   5  -9  -6    0.61    0.25   1
   5  -9  -6    0.25    0.37   1
  -5   9   6    0.48    0.24   1
   5   9  -6    0.15    0.30   1
  -5   9   6    0.28    0.15   1
   4  -9  -6    3.71    0.42   1
   4  -9  -6    3.53    0.53   1
  -4  -9   6    3.90    0.38   1
   4   9  -6    3.05    0.39   1
  -4   9   6    3.85    0.38   1
   4   9  -6    2.96    0.46   1
   3  -9  -6    0.92    0.29   1
   3  -9  -6    0.63    0.27   1
   3  -9  -6    0.80    0.22   1
  -3  -9   6    0.83    0.19   1
   3   9  -6    1.02    0.18   1
   3   9  -6    0.95    0.29   1
   3   9  -6    0.56    0.21   1
  -3   9   6    0.72    0.19   1
   2  -9  -6    0.47    0.25   1
   2  -9  -6    0.41    0.18   1
   2  -9  -6    0.26    0.19   1
  -2  -9   6    0.28    0.13   1
  -2   9   6    0.28    0.15   1
   2   9  -6    0.34    0.14   1
   2   9  -6    0.32    0.13   1
   2   9  -6    0.52    0.24   1
  -1  -9   6    2.40    0.24   1
   1  -9  -6    3.22    0.32   1
   1  -9  -6    2.77    0.28   1
   1   9  -6    2.74    0.25   1
   1   9  -6    3.65    0.41   1
  -1   9   6    2.29    0.24   1
   0  -9   6    1.46    0.15   1
   0  -9  -6    1.52    0.23   1
   0  -9  -6    1.03    0.32   1
   0   9  -6    1.42    0.16   1
   0   9   6    1.27    0.17   1
   0   9  -6    1.29    0.28   1
   0   9  -6    1.87    0.23   1
   3   9   4    0.08    0.11  -2
  -1  -9  -6    0.08    0.11   1
   3   9   4    0.67    0.26  -2
  -1  -9  -6    0.67    0.26   1
   3  -9   4    0.10    0.12  -2
  -1   9  -6    0.10    0.12   1
  -3  -9  -4    0.20    0.08  -2
   1   9   6    0.20    0.08   1
   3  -9   4    0.37    0.17  -2
  -1   9  -6    0.37    0.17   1
  -2  -9  -6    0.35    0.25   1
  -2   9  -6    0.29    0.19   1
  -2   9  -6    0.11    0.15   1
  -3   9  -6    0.52    0.23   1
  -3   9  -6    0.20    0.20   1
   5 -10  -6    0.04    0.35   1
   5  10  -6    0.31    0.26   1
   5  10  -6    0.52    0.32   1
  -5  10   6    0.20    0.15   1
  -5  10   6    0.28    0.22   1
  -4 -10   6    6.10    0.48   1
   4 -10  -6    5.16    0.67   1
  -4  10   6    6.13    0.46   1
   4  10  -6    5.66    0.59   1
   3 -10  -6    5.48    0.58   1
   3 -10  -6    6.10    0.48   1
  -3 -10   6    6.46    0.45   1
   3  10  -6    6.16    0.41   1
   3  10  -6    5.54    0.47   1
   3  10  -6    6.05    0.58   1
  -3  10   6    6.26    0.45   1
   2 -10  -6    3.29    0.36   1
   2 -10  -6    3.30    0.40   1
  -2 -10   6    3.80    0.31   1
   2  10  -6    3.67    0.44   1
   2  10  -6    3.39    0.29   1
   2  10  -6    3.41    0.30   1
  -2  10   6    3.83    0.31   1
   1 -10  -6   10.77    0.75   1
  -1 -10   6   11.31    0.62   1
  -1  10   6   10.94    0.62   1
   1  10  -6   10.69    0.63   1
   1  10  -6   11.09    0.82   1
   0 -10  -6    0.73    0.28   1
   0 -10   6    0.76    0.13   1
   0 -10  -6    0.73    0.17   1
   0  10  -6    0.83    0.13   1
   0  10  -6    1.06    0.20   1
   0  10  -6    1.11    0.28   1
   0  10   6    0.67    0.13   1
   3  10   4    0.39    0.26  -2
  -1 -10  -6    0.39    0.26   1
   3 -10   4    0.13    0.12  -2
  -1  10  -6    0.13    0.12   1
   3 -10   4    0.34    0.17  -2
  -1  10  -6    0.34    0.17   1
  -3 -10  -4    0.28    0.09  -2
   1  10   6    0.28    0.09   1
  -2  10  -6    0.22    0.16   1
  -2  10  -6    0.42    0.20   1
  -3 -10  -6    0.23    0.27   1
  -3  10  -6    0.11    0.20   1
   5 -11  -6    0.13    0.24   1
   5 -11  -6   -0.12    0.35   1
   5  11  -6   -0.02    0.27   1
  -5  11   6    0.08    0.15   1
   5  11  -6   -0.17    0.22   1
   4 -11  -6    0.78    0.24   1
  -4 -11   6    0.96    0.22   1
   4 -11  -6    0.66    0.34   1
  -4  11   6    1.28    0.25   1
   4  11  -6    1.67    0.34   1
  -3 -11   6    0.35    0.17   1
   3 -11  -6    0.34    0.20   1
   3 -11  -6    0.12    0.24   1
   3  11  -6    0.63    0.20   1
   3  11  -6    1.00    0.29   1
  -3  11   6    0.38    0.19   1
   3  11  -6    0.50    0.17   1
   2 -11  -6    0.22    0.19   1
   2 -11  -6    0.30    0.21   1
  -2 -11   6    0.28    0.15   1
   2  11  -6    0.13    0.14   1
   2  11  -6    0.23    0.14   1
  -2  11   6    0.25    0.16   1
   2  11  -6    0.65    0.25   1
   1 -11  -6    2.41    0.30   1
   1 -11  -6    2.07    0.41   1
  -1 -11   6    2.10    0.25   1
   1  11  -6    2.91    0.27   1
   1  11  -6    3.04    0.40   1
  -1  11   6    2.38    0.24   1
   0 -11   6    1.00    0.15   1
   0 -11  -6    0.87    0.17   1
   0  11  -6    1.05    0.20   1
   0  11   6    1.05    0.16   1
   0  11  -6    1.15    0.27   1
   0  11  -6    0.90    0.14   1
  -3 -11  -4    0.53    0.12  -2
   1  11   6    0.53    0.12   1
   3 -11   4    0.35    0.13  -2
  -1  11  -6    0.35    0.13   1
   3 -11   4    0.58    0.19  -2
  -1  11  -6    0.58    0.19   1
  -2  11  -6    1.17    0.25   1
  -2  11  -6    0.82    0.19   1
  -3 -11  -6    0.09    0.26   1
  -3  11  -6    0.29    0.19   1
   5 -12  -6    0.32    0.25   1
   5 -12  -6    0.01    0.35   1
  -5 -12   6    0.06    0.23   1
  -5  12   6    0.29    0.16   1
   5  12  -6   -0.10    0.26   1
  -5  12   6    0.23    0.22   1
   4 -12  -6    0.50    0.36   1
  -4 -12   6    0.98    0.24   1
   4 -12  -6    0.73    0.29   1
   4  12  -6    0.65    0.30   1
  -4  12   6    0.67    0.24   1
   4  12  -6    0.59    0.25   1
   3 -12  -6    0.40    0.26   1
  -3 -12   6    0.57    0.19   1
   3 -12  -6    0.59    0.21   1
  -3  12   6    0.39    0.19   1
   3  12  -6    0.64    0.18   1
   3  12  -6    0.38    0.18   1
   3  12  -6    0.76    0.29   1
   2 -12  -6    0.43    0.24   1
  -2 -12   6    0.44    0.17   1
   2 -12  -6    0.30    0.18   1
   2  12  -6    0.47    0.17   1
   2  12  -6    0.65    0.28   1
  -2  12   6    0.40    0.18   1
   2  12  -6    0.50    0.16   1
  -1 -12   6    0.04    0.13   1
   1 -12  -6    0.11    0.15   1
   1  12  -6    0.10    0.15   1
   1  12  -6   -0.10    0.19   1
  -1  12   6    0.16    0.13   1
   0 -12   6    0.72    0.14   1
   0 -12  -6    0.84    0.16   1
   0 -12  -6    0.59    0.31   1
   0  12  -6    0.61    0.27   1
   0  12  -6    1.05    0.20   1
   0  12   6    0.90    0.16   1
   0  12  -6    0.57    0.12   1
  -3  12  -4    0.72    0.11  -2
   1 -12   6    0.72    0.11   1
   3 -12   4    1.04    0.23  -2
  -1  12  -6    1.04    0.23   1
  -3 -12  -4    0.97    0.14  -2
   1  12   6    0.97    0.14   1
   3 -12   4    0.73    0.16  -2
  -1  12  -6    0.73    0.16   1
  -2  12  -6    0.72    0.22   1
  -2  12  -6    0.52    0.18   1
  -3 -12  -6    1.29    0.37   1
  -3  12  -6    1.54    0.27   1
   5  13  -6   -0.13    0.23   1
   5  13  -6    0.27    0.27   1
  -4 -13   6    0.41    0.22   1
   4  13  -6    0.25    0.26   1
   4  13  -6    0.21    0.23   1
  -4  13   6    0.35    0.22   1
   3 -13  -6    4.92    0.47   1
   3 -13  -6    4.49    0.57   1
  -3 -13   6    5.09    0.41   1
  -3  13   6    4.49    0.39   1
   3  13  -6    4.65    0.52   1
   3  13  -6    4.00    0.41   1
   3  13  -6    4.88    0.37   1
  -2 -13   6    0.72    0.19   1
  -2  13   6    0.50    0.18   1
   2  13  -6    0.85    0.19   1
   2  13  -6    0.55    0.26   1
  -1 -13   6   -0.14    0.13   1
   1 -13  -6    0.12    0.16   1
   1  13  -6    0.21    0.15   1
   1  13  -6    0.07    0.22   1
  -1  13   6   -0.11    0.13   1
   0 -13   6    2.01    0.21   1
   0  13  -6    2.06    0.37   1
   0  13  -6    2.09    0.27   1
   0  13   6    1.87    0.22   1
  -3  13  -4    1.48    0.17  -2
   1 -13   6    1.48    0.17   1
  -3 -13  -4    1.43    0.18  -2
   1  13   6    1.43    0.18   1
   3 -13   4    1.46    0.27  -2
  -1  13  -6    1.46    0.27   1
   3 -13   4    1.36    0.20  -2
  -1  13  -6    1.36    0.20   1
   2  13   6    0.07    0.11   1
  -2  13  -6    0.12    0.15   1
  -2  13  -6    0.24    0.20   1
  -3  13  -6    0.58    0.23   1
   5  14  -6    0.80    0.33   1
   4 -14  -6    0.24    0.25   1
  -4 -14   6    0.19    0.22   1
   4  14  -6    0.43    0.26   1
   4  14  -6    0.07    0.16   1
  -4  14   6    0.29    0.22   1
   3 -14  -6    1.17    0.29   1
  -3 -14   6    1.43    0.27   1
   3  14  -6    1.83    0.36   1
   3  14  -6    1.38    0.23   1
  -3  14   6    1.35    0.26   1
   2 -14  -6   -0.14    0.20   1
   2 -14  -6   -0.07    0.17   1
  -2 -14   6   -0.12    0.14   1
  -2  14   6   -0.13    0.14   1
   2  14  -6   -0.06    0.23   1
   2  14  -6   -0.16    0.14   1
   1 -14  -6    0.99    0.22   1
  -1 -14   6    1.07    0.20   1
   1  14  -6    1.37    0.23   1
   1  14  -6    0.97    0.28   1
  -1  14   6    0.61    0.19   1
   0 -14   6    1.05    0.17   1
   0 -14  -6    0.92    0.33   1
   0  14  -6    1.31    0.24   1
   0  14   6    0.96    0.18   1
   0  14  -6    0.99    0.28   1
  -3  14  -4    0.37    0.12  -2
   1 -14   6    0.37    0.12   1
   3 -14   4    0.32    0.13  -2
  -1  14  -6    0.32    0.13   1
  -3 -14  -4    0.51    0.13  -2
   1  14   6    0.51    0.13   1
   3 -14   4    0.44    0.21  -2
  -1  14  -6    0.44    0.21   1
  -2  14  -6    1.68    0.25   1
  -2  14  -6    1.67    0.29   1
   2  14   6    1.42    0.19   1
  -3  14  -6    0.18    0.19   1
   5 -15  -6    0.57    0.28   1
   5  15  -6    0.65    0.32   1
   4 -15  -6   -0.05    0.22   1
  -4 -15   6   -0.10    0.19   1
   4  15  -6   -0.14    0.20   1
   4  15  -6    0.07    0.25   1
   4  15  -6    0.01    0.16   1
  -4  15   6   -0.01    0.21   1
   3 -15  -6    0.08    0.22   1
  -3 -15   6    0.35    0.20   1
   3 -15  -6    0.11    0.29   1
   3  15  -6    0.56    0.27   1
  -3  15   6    0.25    0.20   1
   3  15  -6    0.43    0.19   1
   2 -15  -6    0.50    0.24   1
  -2 -15   6    0.86    0.20   1
   2  15  -6    0.32    0.26   1
   2  15  -6    0.63    0.20   1
  -2  15   6    0.69    0.20   1
   1 -15  -6    0.08    0.17   1
  -1 -15   6    0.09    0.15   1
   1 -15  -6    0.19    0.28   1
  -1  15   6   -0.05    0.15   1
   1  15  -6    0.21    0.24   1
   1  15  -6    0.49    0.17   1
   0 -15   6    1.33    0.19   1
   0  15  -6    1.27    0.32   1
   0  15   6    1.18    0.20   1
   0  15  -6    1.67    0.26   1
  -3  15  -4    0.21    0.12  -2
   1 -15   6    0.21    0.12   1
   3 -15   4    0.00    0.18  -2
  -1  15  -6    0.00    0.18   1
   3 -15   4    0.06    0.13  -2
  -1  15  -6    0.06    0.13   1
  -3 -15  -4    0.29    0.13  -2
   1  15   6    0.29    0.13   1
   2  15   6    0.50    0.16   1
  -2  15  -6    0.91    0.20   1
  -3 -15  -6    0.19    0.31   1
  -3  15  -6    0.13    0.19   1
   5  16  -6   -0.03    0.26   1
  -4 -16   6    0.02    0.20   1
   4  16  -6   -0.15    0.16   1
  -4  16   6   -0.04    0.20   1
   4  16  -6   -0.07    0.24   1
   3 -16  -6    0.03    0.26   1
  -3 -16   6    0.14    0.19   1
   3  16  -6    0.11    0.18   1
   3  16  -6    0.19    0.26   1
  -3  16   6    0.39    0.20   1
  -2 -16   6    0.24    0.17   1
   2 -16  -6   -0.08    0.21   1
  -2  16   6    0.13    0.17   1
   2  16  -6    0.05    0.25   1
   2  16  -6   -0.05    0.16   1
  -1 -16   6    0.03    0.15   1
   1  16  -6    0.08    0.17   1
   1  16  -6    0.23    0.26   1
  -1  16   6    0.08    0.16   1
   0 -16   6    0.35    0.15   1
   0  16   6    0.38    0.16   1
   0  16  -6    0.40    0.26   1
   0  16  -6    0.50    0.19   1
  -3  16  -4    0.13    0.12  -2
   1 -16   6    0.13    0.12   1
  -3 -16  -4    0.15    0.13  -2
   1  16   6    0.15    0.13   1
   3 -16   4    0.22    0.20  -2
  -1  16  -6    0.22    0.20   1
  -2  16  -6    0.65    0.19   1
   2  16   6    0.29    0.16   1
  -3  16  -6   -0.02    0.18   1
  -4 -17   6   -0.05    0.20   1
   4  17  -6   -0.01    0.17   1
   4  17  -6   -0.21    0.22   1
  -3 -17   6    0.52    0.22   1
  -3  17   6    1.09    0.25   1
   3  17  -6    0.77    0.23   1
   3  17  -6    0.38    0.28   1
   2 -17  -6    0.57    0.26   1
  -2 -17   6    0.50    0.20   1
   2  17  -6    0.66    0.21   1
   2  17  -6    0.58    0.30   1
  -2  17   6    0.93    0.22   1
  -1 -17   6    0.56    0.18   1
  -1  17   6    0.46    0.18   1
   1  17  -6    0.56    0.20   1
   1  17  -6    0.39    0.27   1
   0 -17   6    1.53    0.22   1
   0  17  -6    1.46    0.26   1
   0  17   6    1.61    0.23   1
   0  17  -6    1.86    0.37   1
  -3  17  -4    0.22    0.13  -2
   1 -17   6    0.22    0.13   1
  -3 -17  -4    0.19    0.15  -2
   1  17   6    0.19    0.15   1
   3 -17   4    0.23    0.21  -2
  -1  17  -6    0.23    0.21   1
  -2  17  -6    1.26    0.29   1
   2  17   6    0.91    0.20   1
  -3  17  -6    0.01    0.18   1
   4 -18  -6   -0.03    0.23   1
   4  18  -6    0.21    0.20   1
   4  18  -6    0.38    0.27   1
  -3 -18   6   -0.03    0.19   1
   3  18  -6    0.05    0.19   1
   3  18  -6   -0.19    0.24   1
  -2 -18   6   -0.03    0.17   1
  -2  18   6    0.01    0.17   1
   2  18  -6    0.08    0.27   1
   2  18  -6    0.14    0.18   1
  -1 -18   6    0.64    0.20   1
  -1  18   6    0.51    0.20   1
   1  18  -6    0.52    0.21   1
   1  18  -6    0.62    0.30   1
   0 -18   6    0.03    0.14   1
   0  18  -6    0.01    0.19   1
   0  18   6   -0.11    0.15   1
   0  18  -6    0.02    0.27   1
   3  18   4    1.79    0.42  -2
  -1 -18  -6    1.79    0.42   1
  -3  18  -4    0.54    0.16  -2
   1 -18   6    0.54    0.16   1
   3 -18   4    0.72    0.25  -2
  -1  18  -6    0.72    0.25   1
  -3 -18  -4    0.66    0.18  -2
   1  18   6    0.66    0.18   1
   2  18   6    0.81    0.19   1
   4  19  -6    0.32    0.22   1
   4  19  -6    0.44    0.26   1
  -3 -19   6   -0.13    0.19   1
   3  19  -6   -0.27    0.23   1
  -3  19   6    0.00    0.21   1
   3  19  -6   -0.03    0.18   1
  -2 -19   6   -0.09    0.17   1
   2  19  -6   -0.04    0.18   1
  -2  19   6   -0.10    0.17   1
   2  19  -6    0.09    0.26   1
  -1 -19   6    1.74    0.26   1
  -1  19   6    1.44    0.27   1
   1  19  -6    2.09    0.40   1
   1  19  -6    1.54    0.29   1
   0 -19   6    0.18    0.17   1
   0  19   6    0.15    0.17   1
   0  19  -6    0.42    0.21   1
   0  19  -6    0.51    0.31   1
  -3  19  -4    2.16    0.26  -2
   1 -19   6    2.16    0.26   1
  -3 -19  -4    1.95    0.25  -2
   1  19   6    1.95    0.25   1
   2  19   6    0.25    0.17   1
   4  20  -6    0.58    0.28   1
   4  20  -6    0.75    0.24   1
  -3 -20   6   -0.07    0.20   1
   3  20  -6    0.04    0.20   1
  -3  20   6   -0.20    0.20   1
   3  20  -6    0.08    0.27   1
  -2 -20   6    0.34    0.20   1
   2  20  -6    0.43    0.31   1
  -2  20   6    0.32    0.22   1
   2  20  -6    0.31    0.20   1
  -1 -20   6    0.66    0.21   1
   1  20  -6    0.51    0.22   1
   1  20  -6    0.79    0.30   1
  -1  20   6    0.72    0.21   1
   0 -20   6   -0.12    0.15   1
   0  20  -6    0.00    0.27   1
   0  20   6    0.01    0.16   1
   0  20  -6    0.10    0.21   1
  -3  20  -4    0.15    0.15  -2
   1 -20   6    0.15    0.15   1
  -3 -20  -4    0.21    0.17  -2
   1  20   6    0.21    0.17   1
   2  20   6    0.12    0.16   1
   4  21  -6    0.29    0.25   1
   3  21  -6    0.19    0.27   1
   3  21  -6   -0.08    0.19   1
  -2 -21   6    2.22    0.32   1
   2  21  -6    3.20    0.50   1
   2  21  -6    2.75    0.35   1
  -1 -21   6    2.57    0.33   1
   1  21  -6    2.28    0.42   1
   1  21  -6    2.61    0.36   1
  -1  21   6    2.19    0.32   1
   0 -21   6   -0.03    0.16   1
   0  21  -6   -0.08    0.28   1
   0  21  -6   -0.27    0.20   1
   0  21   6    0.10    0.18   1
  -3  21  -4    0.71    0.19  -2
   1 -21   6    0.71    0.19   1
  -3 -21  -4    0.46    0.19  -2
   1  21   6    0.46    0.19   1
   2  21   6    0.23    0.18   1
   3  22  -6    0.15    0.27   1
   3  22  -6   -0.10    0.21   1
  -2 -22   6    0.48    0.23   1
  -2  22   6    0.15    0.23   1
   2  22  -6    0.44    0.22   1
   2  22  -6    0.65    0.32   1
  -1 -22   6    0.77    0.23   1
  -1  22   6    0.26    0.20   1
   1  22  -6    0.50    0.31   1
   1  22  -6    0.42    0.25   1
   0 -22   6    0.38    0.19   1
   0  22   6    0.48    0.20   1
   0  22  -6    0.02    0.23   1
   0  22  -6    0.17    0.30   1
  -3  22  -4    0.19    0.17  -2
   1 -22   6    0.19    0.17   1
  -3 -22  -4    0.47    0.20  -2
   1  22   6    0.47    0.20   1
   3  23  -6   -0.02    0.26   1
   2  23  -6    0.51    0.32   1
   2  23  -6    0.10    0.23   1
  -1 -23   6    0.22    0.20   1
   1  23  -6    0.02    0.23   1
  -1  23   6    0.25    0.21   1
   1  23  -6    0.02    0.27   1
   0 -23   6    0.27    0.19   1
   0  23  -6   -0.08    0.29   1
   0  23   6    0.09    0.20   1
  -3  23  -4    0.34    0.19  -2
   1 -23   6    0.34    0.19   1
   3  24  -6    0.02    0.27   1
   2  24  -6    0.42    0.32   1
   1  24  -6    0.28    0.30   1
   0 -24   6    0.45    0.21   1
   5   0  -7    0.03    0.32   1
   4   0  -7   -0.08    0.27   1
  -3   0   7    0.19    0.14   1
   3   0  -7   -0.11    0.24   1
  -2   0   7    0.63    0.14   1
   2   0  -7    0.78    0.26   1
   1   0  -7    0.24    0.10   1
  -1   0   7    0.19    0.10   1
   1   0  -7    0.25    0.21   1
   4   0   3    0.64    0.22  -2
   0   0  -7    0.64    0.22   1
   4   0   3    0.41    0.14  -2
   0   0  -7    0.41    0.14   1
  -1   0  -7    0.63    0.18   1
  -2   0  -7    1.12    0.25   1
  -2   0  -7    1.33    0.25   1
  -3   0  -7    0.30    0.25   1
   5  -1  -7    0.33    0.33   1
   5   1  -7    0.36    0.33   1
  -4  -1   7    0.25    0.20   1
   4  -1  -7    0.57    0.33   1
   4   1  -7    0.49    0.31   1
  -4   1   7    0.27    0.20   1
   3  -1  -7    0.58    0.29   1
  -3  -1   7    0.57    0.18   1
   3   1  -7    0.55    0.30   1
  -3   1   7    0.55    0.18   1
  -2  -1   7    3.12    0.27   1
   2  -1  -7    3.00    0.42   1
  -2   1   7    3.11    0.27   1
   2   1  -7    3.12    0.43   1
  -1  -1   7    0.73    0.12   1
   1  -1  -7    0.98    0.26   1
   1  -1  -7    0.65    0.11   1
  -1   1   7    0.59    0.11   1
   1   1  -7    0.96    0.28   1
   1   1  -7    0.65    0.13   1
   4   1   3    0.84    0.16  -2
   0  -1  -7    0.84    0.16   1
   4   1   3    1.07    0.25  -2
   0  -1  -7    1.07    0.25   1
   4  -1   3    0.78    0.18  -2
   0   1  -7    0.78    0.18   1
   4  -1   3    0.93    0.25  -2
   0   1  -7    0.93    0.25   1
  -1  -1  -7    0.78    0.25   1
  -1  -1  -7    0.61    0.28   1
  -1   1  -7    0.39    0.24   1
  -1   1  -7    0.42    0.17   1
  -1   1  -7    0.69    0.18   1
  -2  -1  -7    2.66    0.33   1
  -2   1  -7    2.47    0.33   1
  -2   1  -7    2.62    0.32   1
  -2   1  -7    2.77    0.43   1
  -3  -1  -7    0.83    0.29   1
  -3   1  -7    0.73    0.27   1
  -3   1  -7    0.53    0.25   1
  -5  -2   7    0.48    0.27   1
   5  -2  -7    0.66    0.37   1
   5   2  -7    0.58    0.34   1
  -5   2   7    0.70    0.26   1
   4  -2  -7    0.55    0.31   1
  -4   2   7    0.46    0.21   1
   4   2  -7    0.57    0.31   1
   3  -2  -7    1.90    0.38   1
  -3  -2   7    1.73    0.24   1
   3   2  -7    1.72    0.36   1
  -3   2   7    1.69    0.24   1
   2  -2  -7    0.72    0.27   1
  -2  -2   7    0.87    0.16   1
   2   2  -7    0.65    0.11   1
   2   2  -7    1.04    0.29   1
  -2   2   7    0.66    0.16   1
   1  -2  -7    4.83    0.30   1
  -1  -2   7    5.11    0.32   1
   1  -2  -7    5.56    0.51   1
   1   2  -7    5.72    0.53   1
  -1   2   7    5.18    0.32   1
   1   2  -7    4.61    0.32   1
   4   2   3    4.42    0.45  -2
   0  -2  -7    4.42    0.45   1
   4   2   3    4.28    0.32  -2
   0  -2  -7    4.28    0.32   1
   4  -2   3    4.93    0.49  -2
   0   2  -7    4.93    0.49   1
   4  -2   3    4.62    0.34  -2
   0   2  -7    4.62    0.34   1
  -1  -2  -7    0.49    0.18   1
  -1  -2  -7    0.24    0.21   1
  -1   2  -7    0.21    0.15   1
  -1   2  -7    0.11    0.23   1
  -2  -2  -7    1.52    0.29   1
  -2   2  -7    1.78    0.30   1
  -2   2  -7    1.39    0.27   1
  -3  -2  -7    0.29    0.26   1
  -3   2  -7   -0.02    0.21   1
  -3   2  -7    0.07    0.24   1
   5  -3  -7    0.20    0.32   1
   5   3  -7    0.31    0.35   1
  -4  -3   7    0.54    0.22   1
   4  -3  -7    0.58    0.33   1
  -4   3   7    0.20    0.21   1
   4   3  -7    0.80    0.33   1
   3  -3  -7    1.44    0.36   1
  -3  -3   7    2.05    0.26   1
   3   3  -7    1.73    0.37   1
  -3   3   7    1.49    0.23   1
   2  -3  -7    0.27    0.22   1
  -2  -3   7    0.16    0.13   1
   2   3  -7    0.10    0.09   1
  -2   3   7    0.09    0.13   1
   2   3  -7    0.27    0.24   1
  -1  -3   7    4.05    0.27   1
   1  -3  -7    4.17    0.45   1
   1   3  -7    3.99    0.29   1
   1   3  -7    4.69    0.50   1
  -1   3   7    4.29    0.28   1
   4   3   3    3.53    0.42  -2
   0  -3  -7    3.53    0.42   1
   4   3   3    3.22    0.28  -2
   0  -3  -7    3.22    0.28   1
   4  -3   3    3.83    0.29  -2
   0   3  -7    3.83    0.29   1
   4  -3   3    3.42    0.44  -2
   0   3  -7    3.42    0.44   1
   4  -3   3    3.91    0.31  -2
   0   3  -7    3.91    0.31   1
  -1  -3  -7    2.22    0.39   1
  -1  -3  -7    2.36    0.27   1
  -1   3  -7    2.40    0.39   1
  -1   3  -7    2.33    0.27   1
  -2  -3  -7    0.98    0.28   1
  -2  -3  -7    1.26    0.35   1
  -2   3  -7    0.64    0.23   1
  -2   3  -7    0.68    0.23   1
  -3  -3  -7    0.27    0.24   1
  -3   3  -7    0.12    0.25   1
  -3   3  -7    0.19    0.23   1
   5  -4  -7    0.20    0.32   1
   5   4  -7    0.86    0.36   1
  -4  -4   7    0.23    0.19   1
   4  -4  -7    0.37    0.31   1
   4   4  -7    0.19    0.29   1
  -4   4   7    0.14    0.18   1
   3  -4  -7    0.03    0.26   1
  -3  -4   7    0.32    0.16   1
  -3   4   7    0.21    0.16   1
   3   4  -7    0.25    0.24   1
  -2  -4   7    1.91    0.22   1
   2  -4  -7    2.41    0.36   1
   2   4  -7    2.08    0.36   1
  -2   4   7    1.83    0.23   1
   2   4  -7    1.67    0.18   1
   1  -4  -7    0.57    0.22   1
   1  -4  -7    0.85    0.30   1
  -1  -4   7    0.34    0.10   1
   1   4  -7    0.56    0.13   1
   1   4  -7    0.50    0.24   1
  -1   4   7    0.42    0.12   1
   4   4   3    1.35    0.31  -2
   0  -4  -7    1.35    0.31   1
   4   4   3    1.08    0.24  -2
   0  -4  -7    1.08    0.24   1
   4   4   3    0.58    0.15  -2
   0  -4  -7    0.58    0.15   1
   4  -4   3    1.01    0.26  -2
   0   4  -7    1.01    0.26   1
   4  -4   3    0.67    0.14  -2
   0   4  -7    0.67    0.14   1
   4  -4   3    0.87    0.18  -2
   0   4  -7    0.87    0.18   1
  -1  -4  -7    0.53    0.21   1
  -1   4  -7    0.28    0.17   1
  -1   4  -7    0.38    0.16   1
  -1   4  -7    0.31    0.26   1
  -2   4  -7    0.46    0.22   1
  -2   4  -7    0.36    0.21   1
  -3  -4  -7    0.92    0.29   1
  -3   4  -7    0.75    0.27   1
  -3   4  -7    0.93    0.27   1
   5  -5  -7    0.46    0.34   1
   5   5  -7    0.61    0.36   1
  -4  -5   7    0.72    0.23   1
   4  -5  -7    1.02    0.36   1
  -4   5   7    0.59    0.22   1
   4   5  -7    0.75    0.32   1
   3  -5  -7    0.24    0.26   1
  -3  -5   7   -0.02    0.15   1
  -3   5   7    0.24    0.16   1
   3   5  -7    0.07    0.24   1
   2  -5  -7    2.22    0.37   1
  -2  -5   7    1.79    0.23   1
  -2   5   7    1.99    0.23   1
   2   5  -7    1.81    0.19   1
   2   5  -7    2.35    0.36   1
  -1  -5   7    1.67    0.18   1
   1  -5  -7    2.02    0.33   1
  -1   5   7    1.80    0.20   1
   1   5  -7    2.39    0.38   1
   1   5  -7    1.59    0.20   1
   4   5   3    0.89    0.21  -2
   0  -5  -7    0.89    0.21   1
   4   5   3    0.28    0.13  -2
   0  -5  -7    0.28    0.13   1
   4  -5   3    0.50    0.17  -2
   0   5  -7    0.50    0.17   1
   4  -5   3    0.32    0.13  -2
   0   5  -7    0.32    0.13   1
   4  -5   3    1.08    0.27  -2
   0   5  -7    1.08    0.27   1
  -1   5  -7    0.02    0.16   1
  -1   5  -7   -0.01    0.14   1
  -1   5  -7    0.03    0.24   1
  -2  -5  -7    0.18    0.27   1
  -2   5  -7    0.28    0.21   1
  -2   5  -7    0.19    0.21   1
  -2   5  -7    0.59    0.29   1
  -3   5  -7    1.14    0.29   1
   5   6  -7    0.56    0.36   1
   4  -6  -7    1.42    0.40   1
  -4   6   7    1.38    0.28   1
   4   6  -7    1.19    0.36   1
  -3  -6   7   -0.01    0.15   1
   3  -6  -7    0.19    0.26   1
  -3   6   7   -0.02    0.15   1
   3   6  -7    0.18    0.13   1
   3   6  -7   -0.02    0.24   1
   2  -6  -7    0.32    0.22   1
  -2  -6   7    0.49    0.15   1
   2   6  -7    0.57    0.25   1
  -2   6   7    0.39    0.15   1
   2   6  -7    0.63    0.13   1
   1  -6  -7    1.71    0.31   1
  -1   6   7    1.71    0.20   1
   1   6  -7    2.06    0.21   1
   1   6  -7    3.06    0.41   1
   4   6   3    0.60    0.20  -2
   0  -6  -7    0.60    0.20   1
   4  -6   3    0.89    0.27  -2
   0   6  -7    0.89    0.27   1
   4  -6   3    0.54    0.14  -2
   0   6  -7    0.54    0.14   1
   4  -6   3    0.84    0.18  -2
   0   6  -7    0.84    0.18   1
  -1  -6  -7    0.14    0.18   1
  -1   6  -7    0.01    0.23   1
  -1   6  -7    0.12    0.18   1
  -1   6  -7    0.09    0.15   1
  -2   6  -7    0.47    0.21   1
  -2   6  -7    0.25    0.21   1
  -3   6  -7    0.42    0.23   1
   5  -7  -7   -0.16    0.36   1
   4  -7  -7    1.67    0.42   1
  -4  -7   7    1.00    0.24   1
  -4   7   7    1.41    0.27   1
   4   7  -7    1.16    0.36   1
   3  -7  -7   -0.03    0.24   1
  -3  -7   7    0.04    0.15   1
   3   7  -7   -0.09    0.24   1
   3   7  -7    0.07    0.12   1
  -3   7   7   -0.17    0.15   1
  -2  -7   7    0.72    0.17   1
   2  -7  -7    1.00    0.28   1
   2   7  -7    1.05    0.30   1
  -2   7   7    1.07    0.20   1
   2   7  -7    0.81    0.16   1
  -1  -7   7    0.71    0.14   1
   1  -7  -7    0.82    0.23   1
  -1   7   7    0.96    0.15   1
   1   7  -7    1.08    0.17   1
   1   7  -7    1.15    0.30   1
   4   7   3    0.30    0.26  -2
   0  -7  -7    0.30    0.26   1
   4  -7   3    0.33    0.23  -2
   0   7  -7    0.33    0.23   1
   4  -7   3    0.29    0.16  -2
   0   7  -7    0.29    0.16   1
   4  -7   3    0.12    0.11  -2
   0   7  -7    0.12    0.11   1
  -4  -7  -3    0.29    0.08  -2
   0   7   7    0.29    0.08   1
  -1   7  -7   -0.10    0.23   1
  -1   7  -7   -0.01    0.13   1
  -1   7  -7   -0.03    0.18   1
  -2  -7  -7    0.69    0.34   1
  -2   7  -7    0.40    0.23   1
  -2   7  -7    0.55    0.21   1
  -3   7  -7    0.31    0.23   1
  -4  -8   7    0.72    0.24   1
   4  -8  -7    0.58    0.36   1
  -4   8   7    0.84    0.24   1
   4   8  -7    0.82    0.35   1
   3  -8  -7   -0.14    0.24   1
  -3  -8   7   -0.02    0.15   1
  -3   8   7   -0.04    0.16   1
   3   8  -7   -0.05    0.12   1
   3   8  -7   -0.09    0.25   1
  -2  -8   7    0.26    0.15   1
   2  -8  -7    0.42    0.25   1
  -2   8   7    0.25    0.16   1
   2   8  -7    0.40    0.14   1
   2   8  -7    0.73    0.28   1
   1  -8  -7    2.24    0.32   1
  -1   8   7    2.01    0.21   1
   1   8  -7    2.10    0.37   1
   1   8  -7    1.69    0.22   1
   4   8   3    0.92    0.22  -2
   0  -8  -7    0.92    0.22   1
  -4  -8  -3    1.06    0.13  -2
   0   8   7    1.06    0.13   1
   4  -8   3    0.79    0.26  -2
   0   8  -7    0.79    0.26   1
   4  -8   3    0.84    0.19  -2
   0   8  -7    0.84    0.19   1
  -1   8  -7    0.67    0.21   1
  -1   8  -7    0.60    0.30   1
  -1   8  -7    0.37    0.16   1
  -2   8  -7    0.21    0.18   1
  -2   8  -7    0.10    0.21   1
  -3   8  -7    0.07    0.19   1
  -4  -9   7    1.04    0.26   1
   4  -9  -7    0.67    0.37   1
  -4   9   7    1.01    0.27   1
   4   9  -7    1.28    0.37   1
   3  -9  -7   -0.03    0.26   1
   3   9  -7    0.08    0.14   1
  -3   9   7   -0.10    0.18   1
   3   9  -7   -0.07    0.26   1
   2  -9  -7    1.36    0.38   1
  -2  -9   7    1.40    0.22   1
   2  -9  -7    1.47    0.31   1
  -2   9   7    1.69    0.24   1
   2   9  -7    1.40    0.32   1
   2   9  -7    1.42    0.20   1
  -1  -9   7    0.34    0.12   1
   1   9  -7    0.61    0.16   1
   1   9  -7    0.59    0.27   1
  -1   9   7    0.46    0.14   1
   4   9   3    0.85    0.21  -2
   0  -9  -7    0.85    0.21   1
   4  -9   3    0.50    0.27  -2
   0   9  -7    0.50    0.27   1
   4  -9   3    0.95    0.21  -2
   0   9  -7    0.95    0.21   1
  -4  -9  -3    0.81    0.12  -2
   0   9   7    0.81    0.12   1
  -1   9  -7    0.68    0.29   1
  -1   9  -7    0.46    0.15   1
  -1   9  -7    0.29    0.20   1
  -2   9  -7    0.20    0.17   1
  -2   9  -7    0.43    0.23   1
  -3   9  -7    0.12    0.21   1
  -4 -10   7    0.99    0.27   1
   4  10  -7    1.12    0.36   1
  -4  10   7    0.89    0.25   1
  -3 -10   7    0.26    0.18   1
   3 -10  -7    0.00    0.26   1
  -3  10   7    0.14    0.19   1
   3  10  -7    0.13    0.28   1
   3  10  -7   -0.02    0.14   1
   2 -10  -7    0.33    0.23   1
   2  10  -7    0.52    0.16   1
   2  10  -7    0.92    0.29   1
  -2  10   7    0.61    0.19   1
   1 -10  -7    1.04    0.26   1
  -1  10   7    1.60    0.21   1
   1  10  -7    1.91    0.24   1
   1  10  -7    1.70    0.34   1
   4 -10   3    0.04    0.23  -2
   0  10  -7    0.04    0.23   1
   4 -10   3    0.28    0.17  -2
   0  10  -7    0.28    0.17   1
  -4 -10  -3    0.16    0.11  -2
   0  10   7    0.16    0.11   1
  -1  10  -7    0.08    0.26   1
  -1  10  -7    0.40    0.21   1
  -2  10  -7    0.16    0.22   1
  -2  10  -7    0.21    0.18   1
  -3  10  -7    0.03    0.21   1
  -4 -11   7    0.15    0.22   1
   4  11  -7    0.41    0.31   1
  -4  11   7    0.26    0.24   1
   3 -11  -7   -0.07    0.27   1
  -3  11   7   -0.03    0.17   1
   3  11  -7    0.00    0.27   1
   3  11  -7    0.10    0.15   1
   2 -11  -7   -0.08    0.20   1
  -2 -11   7    0.30    0.16   1
  -2  11   7   -0.10    0.14   1
   2  11  -7    0.01    0.14   1
   2  11  -7    0.21    0.25   1
   1 -11  -7    0.55    0.20   1
  -1 -11   7    0.76    0.16   1
   1  11  -7    0.75    0.19   1
   1  11  -7    1.07    0.31   1
  -1  11   7    0.76    0.17   1
  -4 -11  -3    0.41    0.12  -2
   0  11   7    0.41    0.12   1
   4 -11   3    0.59    0.19  -2
   0  11  -7    0.59    0.19   1
   4 -11   3    0.67    0.28  -2
   0  11  -7    0.67    0.28   1
  -1  11  -7    1.04    0.26   1
  -1  11  -7    1.12    0.35   1
  -2  11  -7    0.08    0.16   1
  -3  11  -7    0.16    0.19   1
   4 -12  -7    0.15    0.34   1
  -4 -12   7    0.49    0.24   1
  -4  12   7    0.75    0.24   1
   4  12  -7    0.31    0.30   1
  -3 -12   7    0.18    0.18   1
   3 -12  -7   -0.19    0.26   1
  -3  12   7    0.23    0.20   1
   3  12  -7    0.10    0.16   1
   3  12  -7    0.39    0.28   1
  -2 -12   7    1.30    0.22   1
  -2  12   7    1.10    0.23   1
   2  12  -7    1.68    0.24   1
   2  12  -7    1.47    0.36   1
   1 -12  -7    0.14    0.17   1
  -1 -12   7    0.00    0.12   1
   1  12  -7    0.15    0.16   1
  -1  12   7    0.00    0.13   1
   1  12  -7   -0.14    0.24   1
   4 -12   3    0.47    0.19  -2
   0  12  -7    0.47    0.19   1
   4 -12   3    0.52    0.27  -2
   0  12  -7    0.52    0.27   1
  -4 -12  -3    0.26    0.12  -2
   0  12   7    0.26    0.12   1
  -1  12  -7    0.19    0.26   1
   4  13  -7    2.96    0.32   1
   4  13  -7    3.22    0.51   1
  -3 -13   7    2.34    0.32   1
   3 -13  -7    1.67    0.41   1
   3  13  -7    2.30    0.28   1
   3  13  -7    1.82    0.40   1
  -3  13   7    2.18    0.32   1
  -2 -13   7    0.21    0.17   1
   2 -13  -7    0.58    0.25   1
   2  13  -7    0.52    0.28   1
   2  13  -7    0.42    0.17   1
  -2  13   7    0.42    0.19   1
   1  13  -7    0.20    0.28   1
   1  13  -7    0.18    0.16   1
  -1  13   7   -0.05    0.14   1
   4 -13   3    0.24    0.24  -2
   0  13  -7    0.24    0.24   1
   4 -13   3    0.10    0.17  -2
   0  13  -7    0.10    0.17   1
  -4 -13  -3    0.14    0.13  -2
   0  13   7    0.14    0.13   1
  -1  13  -7    0.28    0.29   1
  -1  13  -7    0.29    0.21   1
   4  14  -7    0.42    0.19   1
   4  14  -7    0.68    0.32   1
   3 -14  -7   -0.20    0.27   1
  -3 -14   7    0.15    0.19   1
   3  14  -7    0.15    0.17   1
   3  14  -7    0.42    0.28   1
  -3  14   7    0.19    0.21   1
  -2 -14   7    0.22    0.17   1
   2  14  -7    0.40    0.18   1
   2  14  -7    0.05    0.26   1
  -2  14   7    0.29    0.18   1
   1  14  -7    0.05    0.27   1
   1  14  -7    0.10    0.17   1
  -1  14   7    0.07    0.15   1
   4 -14   3    0.58    0.20  -2
   0  14  -7    0.58    0.20   1
  -4 -14  -3    0.33    0.14  -2
   0  14   7    0.33    0.14   1
   4 -14   3    0.11    0.25  -2
   0  14  -7    0.11    0.25   1
  -1  14  -7    0.56    0.23   1
  -1  14  -7    0.35    0.30   1
   4  15  -7    0.35    0.20   1
   4  15  -7    0.78    0.34   1
  -3 -15   7    0.98    0.26   1
   3  15  -7    1.16    0.24   1
  -3  15   7    0.93    0.24   1
   3  15  -7    1.31    0.35   1
   2 -15  -7    0.05    0.30   1
  -2 -15   7    0.04    0.17   1
  -2  15   7    0.08    0.17   1
   2  15  -7    0.24    0.18   1
   2  15  -7   -0.26    0.26   1
  -1 -15   7    0.17    0.16   1
  -1  15   7   -0.11    0.14   1
   1  15  -7    0.23    0.19   1
   1  15  -7    0.16    0.27   1
   4 -15   3    0.30    0.29  -2
   0  15  -7    0.30    0.29   1
  -4 -15  -3    0.33    0.15  -2
   0  15   7    0.33    0.15   1
   4 -15   3    0.15    0.19  -2
   0  15  -7    0.15    0.19   1
  -1  15  -7    0.32    0.30   1
   1  15   7    0.44    0.14   1
   4  16  -7    0.11    0.19   1
  -3 -16   7   -0.24    0.17   1
   3  16  -7   -0.14    0.25   1
   3  16  -7    0.09    0.19   1
  -2 -16   7   -0.13    0.17   1
   2  16  -7    0.11    0.28   1
  -2  16   7    0.14    0.18   1
   2  16  -7    0.08    0.17   1
  -1 -16   7    2.38    0.29   1
  -1  16   7    2.20    0.28   1
   1  16  -7    2.34    0.45   1
  -4  16  -3    0.26    0.14  -2
   0 -16   7    0.26    0.14   1
   4 -16   3    0.41    0.30  -2
   0  16  -7    0.41    0.30   1
   4 -16   3    0.36    0.21  -2
   0  16  -7    0.36    0.21   1
  -4 -16  -3    0.33    0.16  -2
   0  16   7    0.33    0.16   1
   1  16   7    0.11    0.14   1
  -1  16  -7    0.15    0.29   1
   4  17  -7    0.20    0.21   1
  -3 -17   7    0.02    0.20   1
  -3  17   7    0.05    0.20   1
   3  17  -7   -0.03    0.26   1
   3  17  -7    0.00    0.19   1
  -2 -17   7    0.24    0.19   1
  -2  17   7    0.04    0.18   1
   2  17  -7    0.13    0.29   1
   2  17  -7    0.05    0.19   1
  -1 -17   7   -0.03    0.16   1
   1  17  -7    0.16    0.27   1
  -1  17   7    0.19    0.17   1
   1  17  -7   -0.01    0.19   1
  -4  17  -3    0.14    0.14  -2
   0 -17   7    0.14    0.14   1
   4 -17   3    0.17    0.20  -2
   0  17  -7    0.17    0.20   1
  -4 -17  -3    0.21    0.16  -2
   0  17   7    0.21    0.16   1
   4 -17   3    0.26    0.29  -2
   0  17  -7    0.26    0.29   1
   1  17   7    0.04    0.15   1
  -1  17  -7    0.65    0.26   1
   4  18  -7    0.08    0.20   1
  -3 -18   7    0.15    0.21   1
   3  18  -7    0.11    0.21   1
   3  18  -7    0.20    0.29   1
  -2 -18   7    0.52    0.21   1
  -2  18   7    0.25    0.20   1
   2  18  -7    0.39    0.21   1
   2  18  -7    0.59    0.33   1
  -1 -18   7    0.03    0.16   1
  -1  18   7    0.05    0.18   1
   1  18  -7    0.06    0.21   1
   1  18  -7    0.29    0.30   1
  -4  18  -3   -0.12    0.13  -2
   0 -18   7   -0.12    0.13   1
   4 -18   3   -0.03    0.28  -2
   0  18  -7   -0.03    0.28   1
   4 -18   3    0.06    0.20  -2
   0  18  -7    0.06    0.20   1
  -4 -18  -3   -0.16    0.15  -2
   0  18   7   -0.16    0.15   1
   1  18   7    0.02    0.15   1
   3  19  -7   -0.24    0.20   1
   3  19  -7   -0.12    0.28   1
  -2 -19   7    0.20    0.20   1
   2 -19  -7    0.37    0.35   1
   2  19  -7   -0.11    0.19   1
  -2  19   7   -0.12    0.19   1
   2  19  -7   -0.10    0.28   1
  -1 -19   7    0.12    0.17   1
   1  19  -7    0.41    0.24   1
   1  19  -7    0.15    0.30   1
  -1  19   7    0.15    0.19   1
  -4  19  -3   -0.09    0.14  -2
   0 -19   7   -0.09    0.14   1
  -4 -19  -3   -0.04    0.17  -2
   0  19   7   -0.04    0.17   1
   1  19   7    0.12    0.16   1
   3  20  -7   -0.16    0.21   1
  -2 -20   7    0.45    0.22   1
   2  20  -7    0.37    0.22   1
   2  20  -7    0.51    0.34   1
  -1 -20   7    1.26    0.24   1
   1  20  -7    1.08    0.29   1
   1  20  -7    1.32    0.39   1
  -1  20   7    1.27    0.26   1
  -4  20  -3    0.09    0.16  -2
   0 -20   7    0.09    0.16   1
  -4 -20  -3   -0.12    0.17  -2
   0  20   7   -0.12    0.17   1
   1  20   7    2.09    0.27   1
   2  21  -7    0.34    0.22   1
  -1 -21   7    0.13    0.18   1
  -4  21  -3    0.64    0.19  -2
   0 -21   7    0.64    0.19   1
  -4 -21  -3    0.42    0.21  -2
   0  21   7    0.42    0.21   1
   1  21   7    1.22    0.24   1
  -4  22  -3    3.52    0.36  -2
   0 -22   7    3.52    0.36   1
   4   0  -8    1.72    0.43   1
   3   0  -8    1.29    0.39   1
  -3   0   8    0.98    0.21   1
   2   0  -8    1.46    0.37   1
  -2   0   8    1.37    0.21   1
   5   0   2    9.09    0.77  -2
   1   0  -8    9.09    0.77   1
  -1   0  -8    0.09    0.18   1
  -2   0  -8    0.13    0.22   1
   4  -1  -8    0.67    0.35   1
  -4  -1   8    0.30    0.19   1
  -4   1   8    0.27    0.20   1
   4   1  -8    0.56    0.35   1
   3  -1  -8    0.20    0.28   1
  -3   1   8    0.19    0.16   1
   3   1  -8   -0.03    0.27   1
  -2  -1   8    0.60    0.16   1
   2  -1  -8    0.50    0.29   1
  -2   1   8    0.65    0.16   1
   2   1  -8    0.76    0.31   1
   5  -1   2    4.29    0.47  -2
   1   1  -8    4.29    0.47   1
  -5  -1  -2    3.07    0.23  -2
  -1   1   8    3.07    0.23   1
   0  -1  -8   -0.05    0.24   1
  -1   1  -8    0.11    0.18   1
  -2  -1  -8   -0.12    0.20   1
  -2   1  -8    0.27    0.23   1
   4  -2  -8    1.15    0.39   1
   4   2  -8    0.86    0.38   1
  -4   2   8    0.49    0.22   1
  -3  -2   8    0.49    0.18   1
   3  -2  -8    0.21    0.30   1
   3   2  -8    0.71    0.35   1
  -3   2   8    0.71    0.20   1
  -2  -2   8    1.29    0.19   1
   2  -2  -8    1.18    0.34   1
   2   2  -8    1.70    0.39   1
  -2   2   8    1.53    0.21   1
  -5  -2  -2    1.50    0.17  -2
  -1   2   8    1.50    0.17   1
   5  -2   2    1.27    0.33  -2
   1   2  -8    1.27    0.33   1
   0  -2  -8    0.33    0.27   1
   0   2  -8    0.34    0.28   1
  -1   2  -8    0.26    0.29   1
  -1   2  -8    0.54    0.19   1
  -2  -2  -8    0.24    0.22   1
  -2   2  -8    0.41    0.22   1
  -2   2  -8    0.25    0.24   1
   4  -3  -8    0.29    0.34   1
   4   3  -8    0.29    0.33   1
   3  -3  -8    0.03    0.28   1
   3   3  -8    0.05    0.26   1
  -3   3   8   -0.07    0.15   1
   2  -3  -8    0.23    0.27   1
   2   3  -8    0.13    0.26   1
   5   3   2    0.95    0.30  -2
   1  -3  -8    0.95    0.30   1
  -5  -3  -2    1.38    0.17  -2
  -1   3   8    1.38    0.17   1
   5  -3   2    1.60    0.35  -2
   1   3  -8    1.60    0.35   1
   0   3  -8    0.49    0.28   1
  -1   3  -8    0.56    0.20   1
  -2  -3  -8    0.14    0.23   1
  -2   3  -8    0.73    0.26   1
   4  -4  -8   -0.24    0.30   1
   4   4  -8    0.13    0.31   1
   3   4  -8    0.01    0.25   1
  -3   4   8   -0.04    0.16   1
   2  -4  -8    0.04    0.26   1
   2   4  -8    0.39    0.29   1
  -5  -4  -2    0.90    0.13  -2
  -1   4   8    0.90    0.13   1
   5  -4   2    0.97    0.33  -2
   1   4  -8    0.97    0.33   1
   0   4  -8    0.13    0.15   1
  -2  -4  -8    0.30    0.23   1
  -2  -4  -8    0.40    0.33   1
  -2   4  -8    0.35    0.23   1
   4   5  -8    0.20    0.33   1
  -3   5   8   -0.02    0.16   1
   3   5  -8   -0.02    0.27   1
   2  -5  -8   -0.07    0.25   1
   2   5  -8    0.08    0.25   1
  -2  -5  -8   -0.18    0.29   1
   4  -6  -8   -0.07    0.31   1
   4   6  -8   -0.02    0.32   1
   3  -6  -8   -0.13    0.26   1
  -3   6   8    0.16    0.17   1
   3   6  -8   -0.49    0.24   1
  -2  -6   8    0.41    0.15   1
   2   6  -8    0.39    0.29   1
  -2   6   8    0.42    0.16   1
   5   6   2    0.27    0.23  -2
   1  -6  -8    0.27    0.23   1
   5  -6   2    0.16    0.28  -2
   1   6  -8    0.16    0.28   1
  -5  -6  -2    0.17    0.11  -2
  -1   6   8    0.17    0.11   1
   5  -6   2    0.17    0.13  -2
   1   6  -8    0.17    0.13   1
   0  -6  -8    0.34    0.23   1
   0   6  -8    0.63    0.20   1
   4  -7  -8   -0.14    0.31   1
   4   7  -8    0.41    0.34   1
   3  -7  -8    0.41    0.30   1
   3   7  -8    0.38    0.31   1
   2   7  -8    1.16    0.35   1
  -2   7   8    1.46    0.23   1
   5   7   2    0.68    0.27  -2
   1  -7  -8    0.68    0.27   1
   5  -7   2    0.90    0.32  -2
   1   7  -8    0.90    0.32   1
   5  -7   2    0.62    0.17  -2
   1   7  -8    0.62    0.17   1
  -5  -7  -2    0.46    0.13  -2
  -1   7   8    0.46    0.13   1
   0   7  -8    0.42    0.19   1
   0   7  -8    0.61    0.31   1
  -1   7  -8    0.48    0.23   1
  -1   7  -8    0.37    0.29   1
   4  -8  -8    0.18    0.34   1
   3   8  -8    0.07    0.29   1
  -3   8   8    0.39    0.19   1
  -2  -8   8    0.15    0.14   1
   2   8  -8    0.46    0.30   1
   5  -8   2    0.60    0.17  -2
   1   8  -8    0.60    0.17   1
   5  -8   2    0.50    0.31  -2
   1   8  -8    0.50    0.31   1
  -5  -8  -2    0.21    0.13  -2
  -1   8   8    0.21    0.13   1
   0   8  -8   -0.01    0.17   1
   0   8  -8    0.12    0.27   1
   3   9  -8   -0.07    0.29   1
   2  -9  -8   -0.02    0.23   1
   2  -9  -8    0.11    0.30   1
   2   9  -8    0.13    0.29   1
   5   9   2    0.24    0.20  -2
   1  -9  -8    0.24    0.20   1
  -5  -9  -2    0.14    0.12  -2
  -1   9   8    0.14    0.12   1
   5  -9   2    0.12    0.15  -2
   1   9  -8    0.12    0.15   1
   5  -9   2    0.46    0.29  -2
   1   9  -8    0.46    0.29   1
   0   9  -8    0.20    0.27   1
   0   9  -8    0.00    0.17   1
  -1   9  -8    0.11    0.29   1
  -1   9  -8    0.14    0.21   1
   3 -10  -8   -0.01    0.28   1
   3  10  -8   -0.12    0.28   1
  -2  10   8    0.19    0.17   1
   2  10  -8    0.15    0.27   1
   5  10   2    0.26    0.34  -2
   1 -10  -8    0.26    0.34   1
   5 -10   2    0.06    0.27  -2
   1  10  -8    0.06    0.27   1
  -5 -10  -2    0.06    0.13  -2
  -1  10   8    0.06    0.13   1
   5 -10   2   -0.05    0.15  -2
   1  10  -8   -0.05    0.15   1
   0  10  -8    0.10    0.18   1
   0  10  -8    0.15    0.28   1
   3  11  -8    0.03    0.30   1
   2 -11  -8    0.53    0.38   1
   2  11  -8    0.89    0.32   1
   2  11  -8    0.28    0.17   1
  -5 -11  -2    0.12    0.14  -2
  -1  11   8    0.12    0.14   1
   5 -11   2    0.50    0.30  -2
   1  11  -8    0.50    0.30   1
   5 -11   2    0.11    0.16  -2
   1  11  -8    0.11    0.16   1
   0  11  -8    0.04    0.26   1
   0  11  -8    0.18    0.20   1
  -1  11  -8    0.29    0.23   1
   3  12  -8    0.31    0.32   1
   2 -12  -8    0.23    0.25   1
   2  12  -8    0.16    0.29   1
  -2  12   8    0.07    0.16   1
   2  12  -8    0.27    0.17   1
  -5 -12  -2    0.01    0.14  -2
  -1  12   8    0.01    0.14   1
   5 -12   2    0.15    0.28  -2
   1  12  -8    0.15    0.28   1
   0  12  -8    0.28    0.29   1
   4 -13  -8   -0.47    0.33   1
   2  13  -8    0.17    0.28   1
   2  13  -8    0.00    0.16   1
   5  13   2    0.15    0.35  -2
   1 -13  -8    0.15    0.35   1
   5 -13   2    0.05    0.28  -2
   1  13  -8    0.05    0.28   1
  -5 -13  -2   -0.07    0.14  -2
  -1  13   8   -0.07    0.14   1
   5 -13   2    0.00    0.17  -2
   1  13  -8    0.00    0.17   1
   0  13  -8    0.07    0.29   1
   0  13  -8    0.13    0.20   1
  -2  14   8   -0.12    0.17   1
   2  14  -8   -0.11    0.16   1
   2  14  -8   -0.01    0.28   1
   5 -14   2    0.04    0.28  -2
   1  14  -8    0.04    0.28   1
   5 -14   2    0.36    0.20  -2
   1  14  -8    0.36    0.20   1
  -5 -14  -2    0.11    0.16  -2
  -1  14   8    0.11    0.16   1
   2  15  -8    0.18    0.19   1
  -5 -15  -2    0.33    0.18  -2
  -1  15   8    0.33    0.18   1
   2  16  -8    0.38    0.22   1
   5 -16   2   -0.04    0.20  -2
   1  16  -8   -0.04    0.20   1
   2  17  -8    0.46    0.23   1
  -5 -17  -2    0.28    0.19  -2
  -1  17   8    0.28    0.19   1
   5 -17   2    0.39    0.24  -2
   1  17  -8    0.39    0.24   1
   3   0  -9   -0.21    0.31   1
   2   0  -9    0.67    0.32   1
   1   1  -9    0.99    0.35   1
  -2  -2   9    0.27    0.14   1
   2   2  -9    0.22    0.32   1
   1  -2  -9    0.21    0.28   1
   3  -3  -9    0.03    0.30   1
   2   3  -9    0.57    0.34   1
   1  -3  -9   -0.06    0.26   1
   1  -4  -9    0.03    0.25   1
   1   4  -9    0.02    0.28   1
  -3   5   9    0.30    0.19   1
   1   6  -9    0.10    0.31   1
   3  -9  -9   -0.18    0.30   1
   0   0   0    0.00    0.00
;
_shelx_hkl_checksum              18601
_shelx_res_file
;
DRAVIDA.res created by SHELXL-2014/7
TITL DRAVIDA in P2
CELL  0.71073   4.9667  23.7014   7.1113   90.000  104.189   90.000
ZERR     2.00   0.0006   0.0030   0.0008    0.000    0.004    0.000
LATT   1
SYMM  - X, 1/2 + Y, 1/2 - Z
SFAC  C    H    N    O    CL
UNIT  32   28   4    4    4
MERG   0
OMIT    -3.00  50.00
EQIV $1 x+1, y, z
HTAB N1 O1_$1
FMAP   2
PLAN   25
SIZE     0.20   0.25   0.30
ACTA
BOND   $H
CONF
L.S.   4
WGHT    0.000000    1.315200
BASF   0.18654
FVAR       0.25939
C1    1    0.585708   -0.008741    0.598953    11.00000    0.03403    0.04554 =
         0.04752   -0.01349    0.00940    0.00374
AFIX  23
H1A   2    0.484314   -0.036740    0.653592    11.00000   -1.20000
H1B   2    0.757421   -0.025859    0.585548    11.00000   -1.20000
AFIX   0
C2    1    0.465906    0.060926    0.817339    11.00000    0.02555    0.04349 =
         0.04065   -0.00487    0.00857    0.00145
C3    1    0.571375    0.106882    0.959365    11.00000    0.03252    0.03914 =
         0.04413   -0.00558    0.01809   -0.00431
C4    1    0.810128    0.098687    1.105623    11.00000    0.04489    0.05029 =
         0.05373   -0.00832    0.00559   -0.00052
AFIX  43
H4    2    0.908779    0.065202    1.108902    11.00000   -1.20000
AFIX   0
C5    1    0.904640    0.138657    1.245574    11.00000    0.06721    0.07138 =
         0.05595   -0.01824   -0.00376   -0.01488
AFIX  43
H5    2    1.063491    0.132115    1.343890    11.00000   -1.20000
AFIX   0
C6    1    0.760888    0.188694    1.238533    11.00000    0.08812    0.05899 =
         0.08135   -0.03667    0.01436   -0.02374
AFIX  43
H6    2    0.823466    0.215988    1.333104    11.00000   -1.20000
AFIX   0
C7    1    0.528466    0.198645    1.094858    11.00000    0.08606    0.04213 =
         0.08540   -0.01640    0.02811   -0.00217
AFIX  43
H7    2    0.433859    0.232671    1.090442    11.00000   -1.20000
AFIX   0
C8    1    0.434499    0.157887    0.955996    11.00000    0.05215    0.04140 =
         0.05011   -0.00146    0.01453   -0.00025
N1    3    0.649445    0.039129    0.729786    11.00000    0.02145    0.05574 =
         0.04470   -0.01651    0.00764   -0.00401
O1    4    0.227751    0.043157    0.788219    11.00000    0.02350    0.06124 =
         0.08897   -0.02765    0.02223   -0.01066
CL1   5    0.143352    0.172959    0.771116    11.00000    0.07336    0.06524 =
         0.09134    0.00988    0.00875    0.02197
H1    2    0.821868    0.053719    0.760991    11.00000    0.06924
HKLF 5
REM  DRAVIDA in P2
REM R1 =  0.0641 for    9881 Fo > 4sig(Fo)  and  0.0735 for all   11558 data
REM    105 parameters refined using      0 restraints
END
;
_shelx_res_checksum              46141
loop_
_space_group_symop_operation_xyz
'x, y, z'
'-x, y+1/2, -z+1/2'
'-x, -y, -z'
'x, -y-1/2, z-1/2'
loop_
_atom_site_type_symbol
_atom_site_label
_atom_site_fract_x
_atom_site_fract_y
_atom_site_fract_z
_atom_site_U_iso_or_equiv
_atom_site_adp_type
_atom_site_calc_flag
_atom_site_occupancy
C C1 0.5857(8) -0.00874(16) 0.5990(6) 0.0425(11) Uani d 1
H H1A 0.4843 -0.0367 0.6536 0.051 Uiso calc 1
H H1B 0.7574 -0.0259 0.5855 0.051 Uiso calc 1
C C2 0.4659(8) 0.06093(16) 0.8173(6) 0.0365(10) Uani d 1
C C3 0.5714(8) 0.10688(16) 0.9594(6) 0.0371(10) Uani d 1
C C4 0.8101(9) 0.09869(18) 1.1056(7) 0.0508(12) Uani d 1
H H4 0.9088 0.0652 1.1089 0.061 Uiso calc 1
C C5 0.9046(11) 0.1387(2) 1.2456(7) 0.0681(15) Uani d 1
H H5 1.0635 0.1321 1.3439 0.082 Uiso calc 1
C C6 0.7609(13) 0.1887(2) 1.2385(9) 0.0773(17) Uani d 1
H H6 0.8235 0.2160 1.3331 0.093 Uiso calc 1
C C7 0.5285(12) 0.1986(2) 1.0949(9) 0.0700(16) Uani d 1
H H7 0.4339 0.2327 1.0904 0.084 Uiso calc 1
C C8 0.4345(9) 0.15789(17) 0.9560(7) 0.0475(11) Uani d 1
N N1 0.6494(7) 0.03913(15) 0.7298(5) 0.0407(9) Uani d 1
O O1 0.2278(6) 0.04316(12) 0.7882(5) 0.0564(9) Uani d 1
Cl Cl1 0.1434(3) 0.17296(5) 0.7711(2) 0.0786(6) Uani d 1
H H1 0.822(10) 0.0537(18) 0.761(7) 0.069(15) Uiso d 1
loop_
_atom_site_aniso_label
_atom_site_aniso_U_11
_atom_site_aniso_U_22
_atom_site_aniso_U_33
_atom_site_aniso_U_12
_atom_site_aniso_U_13
_atom_site_aniso_U_23
C1 0.034(2) 0.046(2) 0.048(3) 0.0037(19) 0.0094(19) -0.013(2)
C2 0.026(2) 0.043(2) 0.041(3) 0.0015(17) 0.0086(19) -0.0049(19)
C3 0.033(2) 0.039(2) 0.044(3) -0.0043(18) 0.018(2) -0.0056(19)
C4 0.045(3) 0.050(3) 0.054(3) -0.001(2) 0.006(2) -0.008(2)
C5 0.067(4) 0.071(4) 0.056(4) -0.015(3) -0.004(3) -0.018(3)
C6 0.088(4) 0.059(4) 0.081(5) -0.024(3) 0.014(4) -0.037(3)
C7 0.086(4) 0.042(3) 0.085(5) -0.002(3) 0.028(4) -0.016(3)
C8 0.052(3) 0.041(2) 0.050(3) 0.000(2) 0.015(2) -0.001(2)
N1 0.0215(18) 0.056(2) 0.045(2) -0.0040(16) 0.0076(16) -0.0165(17)
O1 0.0235(16) 0.0612(19) 0.089(3) -0.0107(14) 0.0222(16) -0.0276(17)
Cl1 0.0734(10) 0.0652(9) 0.0913(12) 0.0220(7) 0.0088(8) 0.0099(8)
loop_
_atom_type_symbol
_atom_type_description
_atom_type_scat_dispersion_real
_atom_type_scat_dispersion_imag
_atom_type_scat_source
C C 0.0033 0.0016 'International Tables Vol C Tables 4.2.6.8 and 6.1.1.4'
H H 0.0000 0.0000 'International Tables Vol C Tables 4.2.6.8 and 6.1.1.4'
N N 0.0061 0.0033 'International Tables Vol C Tables 4.2.6.8 and 6.1.1.4'
O O 0.0106 0.0060 'International Tables Vol C Tables 4.2.6.8 and 6.1.1.4'
Cl Cl 0.1484 0.1585 'International Tables Vol C Tables 4.2.6.8 and 6.1.1.4'
loop_
_geom_angle_atom_site_label_1
_geom_angle_atom_site_label_2
_geom_angle_atom_site_label_3
_geom_angle_site_symmetry_1
_geom_angle_site_symmetry_3
_geom_angle
N1 C1 C1 . 3_656 111.5(4)
N1 C1 H1A . . 109.3
C1 C1 H1A 3_656 . 109.3
N1 C1 H1B . . 109.3
C1 C1 H1B 3_656 . 109.3
H1A C1 H1B . . 108.0
O1 C2 N1 . . 122.2(4)
O1 C2 C3 . . 122.0(3)
N1 C2 C3 . . 115.7(3)
C8 C3 C4 . . 117.5(4)
C8 C3 C2 . . 122.5(4)
C4 C3 C2 . . 120.0(4)
C5 C4 C3 . . 121.7(4)
C5 C4 H4 . . 119.1
C3 C4 H4 . . 119.1
C4 C5 C6 . . 119.1(5)
C4 C5 H5 . . 120.5
C6 C5 H5 . . 120.5
C7 C6 C5 . . 120.8(5)
C7 C6 H6 . . 119.6
C5 C6 H6 . . 119.6
C6 C7 C8 . . 119.5(5)
C6 C7 H7 . . 120.3
C8 C7 H7 . . 120.3
C7 C8 C3 . . 121.4(5)
C7 C8 Cl1 . . 118.1(4)
C3 C8 Cl1 . . 120.5(3)
C2 N1 C1 . . 122.5(3)
C2 N1 H1 . . 117(3)
C1 N1 H1 . . 120(3)
loop_
_geom_bond_atom_site_label_1
_geom_bond_atom_site_label_2
_geom_bond_site_symmetry_2
_geom_bond_distance
C1 N1 . 1.452(5)
C1 C1 3_656 1.513(8)
C1 H1A . 0.9700
C1 H1B . 0.9700
C2 O1 . 1.224(4)
C2 N1 . 1.328(5)
C2 C3 . 1.490(5)
C3 C8 . 1.384(5)
C3 C4 . 1.386(6)
C4 C5 . 1.371(6)
C4 H4 . 0.9300
C5 C6 . 1.379(7)
C5 H5 . 0.9300
C6 C7 . 1.362(8)
C6 H6 . 0.9300
C7 C8 . 1.378(6)
C7 H7 . 0.9300
C8 Cl1 . 1.736(5)
N1 H1 . 0.90(5)
loop_
_geom_hbond_atom_site_label_D
_geom_hbond_atom_site_label_H
_geom_hbond_atom_site_label_A
_geom_hbond_site_symmetry_A
_geom_hbond_distance_DH
_geom_hbond_distance_HA
_geom_hbond_distance_DA
_geom_hbond_angle_DHA
N1 H1 O1 1_655 0.90(5) 1.99(5) 2.801(4) 149(4)
loop_
_geom_torsion_atom_site_label_1
_geom_torsion_atom_site_label_2
_geom_torsion_atom_site_label_3
_geom_torsion_atom_site_label_4
_geom_torsion_site_symmetry_1
_geom_torsion
O1 C2 C3 C8 . -52.3(6)
N1 C2 C3 C8 . 130.1(4)
O1 C2 C3 C4 . 125.5(5)
N1 C2 C3 C4 . -52.1(5)
C8 C3 C4 C5 . 1.8(7)
C2 C3 C4 C5 . -176.2(4)
C3 C4 C5 C6 . -1.1(7)
C4 C5 C6 C7 . -0.1(8)
C5 C6 C7 C8 . 0.7(8)
C6 C7 C8 C3 . 0.0(8)
C6 C7 C8 Cl1 . -178.1(4)
C4 C3 C8 C7 . -1.2(6)
C2 C3 C8 C7 . 176.7(4)
C4 C3 C8 Cl1 . 176.9(3)
C2 C3 C8 Cl1 . -5.2(5)
O1 C2 N1 C1 . -2.5(6)
C3 C2 N1 C1 . 175.2(4)
C1 C1 N1 C2 3_656 78.1(6)

_cod_database_fobs_code 1543740
