#------------------------------------------------------------------------------
#$Date: 2016-06-18 04:41:13 +0300 (Sat, 18 Jun 2016) $
#$Revision: 183693 $
#$URL: file:///home/coder/svn-repositories/cod/cif/1/54/34/1543481.cif $
#------------------------------------------------------------------------------
#
# This file is available in the Crystallography Open Database (COD),
# http://www.crystallography.net/. The original data for this entry
# were provided by IUCr Journals, http://journals.iucr.org/.
#
# The file may be used within the scientific community so long as
# proper attribution is given to the journal article from which the
# data were obtained.
#
data_1543481
loop_
_publ_author_name
'Knight, Kyle S.'
'Orick, Michael C.'
_publ_section_title
;
 4-[(<i>E</i>)-4-Hydroxybut-2-en-1-yl]-2-methoxyphenol
;
_journal_coeditor_code           SJ4039
_journal_issue                   6
_journal_name_full               IUCrData
_journal_page_first              x160936
_journal_paper_doi               10.1107/S2414314616009366
_journal_volume                  1
_journal_year                    2016
_chemical_formula_iupac          'C11 H14 O3'
_chemical_formula_moiety         'C11 H14 O3'
_chemical_formula_sum            'C11 H14 O3'
_chemical_formula_weight         194.22
_chemical_name_systematic
;
4-[(<i>E</i>)-4-Hydroxybut-2-en-1-yl]-2-methoxyphenol
;
_space_group_crystal_system      triclinic
_space_group_IT_number           2
_space_group_name_Hall           '-P 1'
_space_group_name_H-M_alt        'P -1'
_symmetry_space_group_name_Hall  '-P 1'
_symmetry_space_group_name_H-M   'P -1'
_atom_sites_solution_hydrogens   geom
_audit_creation_method
;
Olex2 1.2
(compiled 2015.09.30 svn.r3233 for OlexSys, GUI svn.r5103)
;
_cell_angle_alpha                81.579(6)
_cell_angle_beta                 88.020(6)
_cell_angle_gamma                71.167(6)
_cell_formula_units_Z            2
_cell_length_a                   5.7659(11)
_cell_length_b                   8.5396(17)
_cell_length_c                   10.804(2)
_cell_measurement_reflns_used    3014
_cell_measurement_temperature    200(2)
_cell_measurement_theta_max      24.82
_cell_measurement_theta_min      2.54
_cell_volume                     498.02(17)
_computing_cell_refinement
;
SAINT (Bruker, 2009)
;
_computing_data_collection
;
APEX2 (Bruker, 2009)
;
_computing_data_reduction
;
SAINT (Bruker, 2009)
;
_computing_molecular_graphics
;
<i>OLEX2</i> (Dolomanov <i>et al.</i>, 2009) and
Mercury (Macrae <i>et al.</i>, 2008)
;
_computing_publication_material
;
<i>OLEX2</i> (Dolomanov <i>et al.</i>,  2009)
;
_computing_structure_refinement
;
SHELXL2014 (Sheldrick, 2015)
;
_computing_structure_solution
;
SHELXS97 (Sheldrick, 2008)
;
_diffrn_ambient_temperature      200.15
_diffrn_measured_fraction_theta_full 0.989
_diffrn_measured_fraction_theta_max 0.989
_diffrn_measurement_device_type  'Bruker APEXII CCD'
_diffrn_measurement_method       '\f and \w scans'
_diffrn_radiation_monochromator  graphite
_diffrn_radiation_type           MoK\a
_diffrn_radiation_wavelength     0.71073
_diffrn_reflns_av_R_equivalents  0.0422
_diffrn_reflns_limit_h_max       6
_diffrn_reflns_limit_h_min       -6
_diffrn_reflns_limit_k_max       10
_diffrn_reflns_limit_k_min       -10
_diffrn_reflns_limit_l_max       12
_diffrn_reflns_limit_l_min       -12
_diffrn_reflns_number            9408
_diffrn_reflns_theta_full        25.000
_diffrn_reflns_theta_max         25.000
_diffrn_reflns_theta_min         2.955
_diffrn_standards_number         0
_exptl_absorpt_coefficient_mu    0.093
_exptl_absorpt_correction_type   none
_exptl_crystal_colour            colorless
_exptl_crystal_density_diffrn    1.295
_exptl_crystal_description       plate
_exptl_crystal_F_000             208
_exptl_crystal_size_max          0.6
_exptl_crystal_size_mid          0.4
_exptl_crystal_size_min          0.05
_refine_diff_density_max         0.489
_refine_diff_density_min         -0.183
_refine_ls_extinction_method     none
_refine_ls_goodness_of_fit_ref   1.067
_refine_ls_hydrogen_treatment    constr
_refine_ls_matrix_type           full
_refine_ls_number_parameters     130
_refine_ls_number_reflns         1736
_refine_ls_number_restraints     0
_refine_ls_restrained_S_all      1.067
_refine_ls_R_factor_all          0.0551
_refine_ls_R_factor_gt           0.0456
_refine_ls_shift/su_max          0.000
_refine_ls_shift/su_mean         0.000
_refine_ls_structure_factor_coef Fsqd
_refine_ls_weighting_details
'w=1/[\s^2^(Fo^2^)+(0.0440P)^2^+0.2128P] where P=(Fo^2^+2Fc^2^)/3'
_refine_ls_weighting_scheme      calc
_refine_ls_wR_factor_gt          0.1085
_refine_ls_wR_factor_ref         0.1135
_reflns_number_gt                1487
_reflns_number_total             1736
_reflns_threshold_expression     'I > 2\s(I)'
_cod_data_source_file            sj4039sup1.cif
_cod_data_source_block           I
_cod_original_cell_volume        498.03(17)
_cod_database_code               1543481
_shelx_space_group_comment
;
The symmetry employed for this shelxl refinement is uniquely defined
by the following loop, which should always be used as a source of
symmetry information in preference to the above space-group names.
They are only intended as comments.
;
_shelx_estimated_absorpt_t_min   0.946
_shelx_estimated_absorpt_t_max   0.995
_shelx_hkl_file
;
  -1   0   0   45.15    2.42
  -1   0   0   42.44    2.14
  -1   0   0   44.63    2.27
  -1   0   0   44.91    2.44
  -1   0   0   43.47    2.61
   1   0   0   45.56    2.42
   1   0   0   44.93    2.14
   1   0   0   43.41    2.27
   1   0   0   44.16    2.44
   1   0   0   42.88    2.62
  -2   0   0    9.84    0.55
  -2   0   0   10.26    0.60
  -2   0   0    9.98    0.52
  -2   0   0   10.80    0.60
  -2   0   0    9.74    0.62
   2   0   0    9.34    0.64
   2   0   0    9.92    0.61
   2   0   0    9.64    0.52
   2   0   0    9.83    0.56
   2   0   0   10.71    0.61
  -3   0   0    4.98    0.35
  -3   0   0    4.56    0.28
  -3   0   0    4.97    0.33
   3   0   0    4.15    0.35
   3   0   0    4.66    0.35
   3   0   0    4.79    0.32
  -4   0   0    1.13    0.14
  -4   0   0    0.79    0.12
   4   0   0    1.62    0.21
   4   0   0    1.07    0.20
   4   0   0    1.22    0.17
  -5   0   0    0.19    0.09
  -5   0   0    0.25    0.10
  -5   0   0    0.16    0.08
   5   0   0    0.37    0.17
   5   0   0    0.52    0.18
  -6   0   0    0.46    0.14
  -6   0   0    0.61    0.13
   6   0   0    0.54    0.22
   6  -1   0    0.12    0.19
  -6   1   0   -0.05    0.09
  -6   1   0    0.04    0.10
   5  -1   0    0.23    0.17
   5  -1   0    0.59    0.20
  -5   1   0    0.30    0.10
  -5   1   0    0.49    0.14
   4  -1   0    3.42    0.34
   4  -1   0    2.27    0.26
   4  -1   0    2.55    0.32
  -4   1   0    2.99    0.22
  -4   1   0    2.82    0.25
   3  -1   0    0.32    0.10
   3  -1   0    0.49    0.14
   3  -1   0    0.54    0.11
   3  -1   0    0.43    0.07
   3  -1   0    0.43    0.12
  -3   1   0    0.36    0.09
  -3   1   0    0.30    0.07
   2  -1   0    3.18    0.24
   2  -1   0    3.77    0.27
   2  -1   0    3.61    0.27
   2  -1   0    3.90    0.29
   2  -1   0    3.17    0.26
   2  -1   0    3.76    0.28
  -2   1   0    3.91    0.25
  -2   1   0    3.61    0.26
  -2   1   0    3.42    0.22
   1  -1   0  250.31   12.98
   1  -1   0  252.03   17.64
   1  -1   0  250.93   15.01
   1  -1   0  251.94   13.98
   1  -1   0  249.41   13.84
  -1   1   0  263.34   13.97
  -1   1   0  254.15   17.64
  -1   1   0  254.25   15.01
  -1   1   0  263.62   12.97
  -1   1   0  246.17   12.30
  -1   1   0  266.07   13.83
   0  -1   0    0.51    0.08
   0  -1   0    0.77    0.09
   0  -1   0    0.70    0.09
   0  -1   0    0.79    0.10
   0   1   0    0.62    0.11
   0   1   0    0.92    0.13
   0   1   0    0.33    0.08
   0   1   0    0.62    0.08
  -1  -1   0  221.35   11.64
  -1  -1   0  208.23   11.51
  -1  -1   0  209.07   10.23
  -1  -1   0  217.00   10.79
  -1  -1   0  213.81   14.69
  -1  -1   0  211.04   12.48
   1   1   0  206.46   12.48
   1   1   0  207.56   11.51
   1   1   0  211.63   14.69
   1   1   0  218.92   11.64
   1   1   0  210.74   10.23
  -2  -1   0  121.53    7.83
  -2  -1   0  135.78    7.23
  -2  -1   0  137.99    9.18
  -2  -1   0  135.77    6.77
  -2  -1   0  137.50    7.30
  -2  -1   0  135.38    6.41
   2   1   0  128.86    9.18
   2   1   0  129.32    6.77
   2   1   0  127.19    7.22
   2   1   0  136.46    7.31
  -3  -1   0    0.42    0.07
  -3  -1   0    0.64    0.14
  -3  -1   0    0.61    0.09
   3   1   0    0.69    0.11
   3   1   0    0.44    0.10
   3   1   0    0.49    0.13
   3   1   0    0.49    0.17
  -4  -1   0    5.88    0.34
  -4  -1   0    6.09    0.40
   4   1   0    5.09    0.52
   4   1   0    6.06    0.41
   4   1   0    5.60    0.45
  -5  -1   0    1.49    0.16
  -5  -1   0    1.20    0.15
  -5  -1   0    1.40    0.17
   5   1   0    1.13    0.19
   5   1   0    1.22    0.26
  -6  -1   0    0.25    0.11
  -6  -1   0    0.14    0.10
   6   1   0    0.05    0.17
   5  -2   0    0.27    0.16
   5  -2   0    0.05    0.20
  -5   2   0    0.10    0.12
  -5   2   0    0.26    0.10
   4  -2   0    0.10    0.12
   4  -2   0    0.30    0.16
   4  -2   0    0.19    0.10
  -4   2   0    0.03    0.10
  -4   2   0    0.14    0.08
   3  -2   0    1.57    0.18
   3  -2   0    1.78    0.22
   3  -2   0    1.30    0.20
   3  -2   0    1.33    0.17
   3  -2   0    1.36    0.20
  -3   2   0    1.79    0.16
  -3   2   0    1.68    0.19
   2  -2   0   66.83    4.48
   2  -2   0   61.13    3.58
   2  -2   0   63.00    3.55
   2  -2   0   64.93    3.33
  -2   2   0   65.05    4.48
  -2   2   0   65.50    3.83
  -2   2   0   62.63    3.14
   1  -2   0  143.05    7.74
   1  -2   0  137.85    7.25
   1  -2   0  141.65    8.39
   1  -2   0  147.02    6.88
   1  -2   0  136.71    7.81
   1  -2   0  141.79    9.86
  -1   2   0  138.06    9.86
  -1   2   0  139.00    6.87
  -1   2   0  145.05    7.25
  -1   2   0  145.16    7.81
  -1   2   0  151.65    7.73
  -1   2   0  137.64    8.39
   0  -2   0  217.93   10.44
   0  -2   0  211.18   15.00
   0  -2   0  220.59   11.75
   0  -2   0  219.30   12.75
   0  -2   0  219.93   11.86
   0  -2   0  216.81   11.01
   0   2   0  209.53   15.00
   0   2   0  214.95   11.86
   0   2   0  209.37   10.44
   0   2   0  218.94   11.01
   0   2   0  210.39   12.75
   0   2   0  229.15   11.75
  -1  -2   0    8.75    0.50
  -1  -2   0    8.90    0.43
  -1  -2   0    8.74    0.50
  -1  -2   0    8.83    0.49
  -1  -2   0    8.75    0.45
  -1  -2   0    8.87    0.54
  -1  -2   0    7.98    0.64
   1   2   0    8.57    0.54
   1   2   0    8.46    0.43
   1   2   0    8.63    0.64
   1   2   0    8.84    0.49
   1   2   0    8.87    0.45
  -2  -2   0    1.49    0.09
  -2  -2   0    1.51    0.12
  -2  -2   0    1.28    0.15
  -2  -2   0    1.46    0.16
  -2  -2   0    1.57    0.15
  -2  -2   0    1.55    0.11
  -2  -2   0    1.49    0.10
  -2  -2   0    1.41    0.09
   2   2   0    1.61    0.17
   2   2   0    1.60    0.15
   2   2   0    1.54    0.12
   2   2   0    1.63    0.12
  -3  -2   0    0.02    0.03
  -3  -2   0    0.02    0.06
  -3  -2   0    0.05    0.04
  -3  -2   0    0.02    0.10
  -3  -2   0    0.03    0.09
  -3  -2   0   -0.01    0.04
  -3  -2   0   -0.02    0.03
   3   2   0    0.08    0.05
   3   2   0    0.11    0.09
   3   2   0    0.04    0.05
  -4  -2   0   16.48    0.83
  -4  -2   0   15.91    0.98
  -4  -2   0   15.57    0.87
  -4  -2   0   16.03    0.99
   4   2   0   15.41    0.93
   4   2   0   17.10    1.02
  -5  -2   0    7.68    0.44
  -5  -2   0    7.36    0.47
   5   2   0    7.83    0.60
   5   2   0    7.56    0.49
  -6  -2   0   -0.04    0.08
  -6  -2   0    0.14    0.09
   6   2   0   -0.05    0.19
   5  -3   0    0.38    0.24
   5  -3   0    0.41    0.20
  -5   3   0   -0.10    0.13
  -5   3   0    0.03    0.09
  -5   3   0    0.13    0.11
   4  -3   0    0.57    0.18
   4  -3   0    0.62    0.16
   4  -3   0    0.69    0.22
  -4   3   0    1.00    0.15
  -4   3   0    1.19    0.20
   3  -3   0    3.61    0.37
   3  -3   0    3.17    0.34
   3  -3   0    2.83    0.29
   3  -3   0    4.16    0.33
  -3   3   0    3.48    0.31
  -3   3   0    3.41    0.24
   2  -3   0    3.20    0.26
   2  -3   0    3.03    0.25
   2  -3   0    3.02    0.23
  -2   3   0    2.84    0.26
  -2   3   0    2.96    0.29
  -2   3   0    2.90    0.21
   1  -3   0    0.05    0.05
   1  -3   0    0.10    0.10
   1  -3   0    0.00    0.06
   1  -3   0    0.09    0.05
  -1   3   0    0.03    0.04
  -1   3   0    0.06    0.08
  -1   3   0    0.11    0.07
   0  -3   0   18.56    1.18
   0  -3   0   19.00    0.95
   0  -3   0   19.76    1.09
   0  -3   0   19.00    1.38
   0  -3   0   18.76    1.00
   0  -3   0   18.84    1.08
   0   3   0   20.08    1.08
   0   3   0   19.88    1.08
   0   3   0   18.51    1.38
   0   3   0   18.76    0.95
   0   3   0   19.54    1.00
   0   3   0   18.91    1.18
  -1  -3   0   40.39    1.93
  -1  -3   0   39.45    2.03
  -1  -3   0   40.71    2.81
  -1  -3   0   39.45    2.38
  -1  -3   0   39.76    2.19
  -1  -3   0   41.25    2.20
   1   3   0   38.47    2.80
   1   3   0   39.43    2.02
   1   3   0   38.50    1.93
   1   3   0   41.19    2.20
   1   3   0   38.84    2.38
  -2  -3   0  106.31    6.05
  -2  -3   0  109.04    6.09
  -2  -3   0  114.67    5.66
  -2  -3   0  112.27    6.13
  -2  -3   0  112.38    5.36
  -2  -3   0  113.73    5.65
   2   3   0  110.27    6.56
   2   3   0  112.43    7.73
   2   3   0  108.09    5.36
  -3  -3   0    0.65    0.09
  -3  -3   0    0.86    0.09
  -3  -3   0    0.63    0.09
  -3  -3   0    0.83    0.07
  -3  -3   0    0.41    0.12
  -3  -3   0    0.81    0.07
  -3  -3   0    0.71    0.08
   3   3   0    0.68    0.12
   3   3   0    0.81    0.10
   3   3   0    0.85    0.09
  -4  -3   0    0.11    0.05
  -4  -3   0    0.22    0.11
  -4  -3   0    0.06    0.05
  -4  -3   0    0.15    0.12
  -4  -3   0    0.10    0.06
   4   3   0    0.03    0.10
   4   3   0    0.14    0.07
  -5  -3   0    0.09    0.06
  -5  -3   0    0.26    0.08
   5   3   0    0.35    0.10
   5   3   0    0.08    0.15
  -6  -3   0    2.12    0.21
  -6  -3   0    2.42    0.24
   6   3   0    2.11    0.35
   5  -4   0    0.02    0.19
  -5   4   0    0.06    0.11
  -5   4   0    0.07    0.15
  -5   4   0    0.13    0.12
   4  -4   0    0.09    0.11
   4  -4   0    0.03    0.14
   4  -4   0    0.46    0.21
  -4   4   0    0.09    0.13
  -4   4   0    0.32    0.11
   3  -4   0    2.67    0.35
   3  -4   0    1.51    0.23
   3  -4   0    1.61    0.22
   3  -4   0    2.17    0.28
  -3   4   0    2.33    0.21
  -3   4   0    2.40    0.28
   2  -4   0   12.47    0.74
   2  -4   0   12.25    0.79
   2  -4   0   12.02    0.79
  -2   4   0   12.51    0.68
  -2   4   0   13.62    0.98
  -2   4   0   12.88    0.85
   1  -4   0   15.27    0.91
   1  -4   0   14.53    0.84
   1  -4   0   15.51    0.91
  -1   4   0   16.04    0.79
  -1   4   0   14.57    0.98
  -1   4   0   15.81    1.15
   0  -4   0   14.12    0.75
   0  -4   0   14.20    0.83
   0  -4   0   15.00    0.83
   0   4   0   13.64    0.90
   0   4   0   13.96    1.06
   0   4   0   13.73    0.72
  -1  -4   0   63.50    3.52
  -1  -4   0   63.83    3.25
  -1  -4   0   65.98    3.09
  -1  -4   0   62.35    3.51
   1   4   0   64.57    3.24
   1   4   0   62.12    3.09
   1   4   0   63.86    3.81
   1   4   0   61.27    4.48
   1   4   0   65.89    3.52
  -2  -4   0    8.96    0.55
  -2  -4   0    9.24    0.48
  -2  -4   0    9.23    0.48
  -2  -4   0    9.65    0.54
  -2  -4   0    9.70    0.61
  -2  -4   0    9.39    0.46
   2   4   0    9.45    0.61
   2   4   0    9.41    0.72
   2   4   0    8.90    0.54
   2   4   0    9.13    0.46
  -3  -4   0   38.55    1.86
  -3  -4   0   37.94    2.13
  -3  -4   0   37.74    1.86
  -3  -4   0   38.79    1.98
  -3  -4   0   38.74    1.97
  -3  -4   0   39.25    2.12
   3   4   0   36.94    2.30
   3   4   0   38.22    2.72
  -4  -4   0    1.47    0.11
  -4  -4   0    1.37    0.11
  -4  -4   0    1.37    0.15
  -4  -4   0    1.43    0.13
  -4  -4   0    1.35    0.13
  -4  -4   0    1.10    0.25
   4   4   0    1.30    0.15
   4   4   0    1.33    0.19
  -5  -4   0    0.15    0.06
  -5  -4   0    0.22    0.07
  -5  -4   0    0.20    0.07
   5   4   0    0.37    0.10
  -6  -4   0    0.07    0.07
   4  -5   0    0.20    0.19
   4  -5   0    0.04    0.19
  -4   5   0    0.06    0.11
  -4   5   0    0.12    0.16
   3  -5   0    0.62    0.15
   3  -5   0    0.68    0.26
   3  -5   0    0.22    0.12
   3  -5   0    0.63    0.20
  -3   5   0    0.32    0.11
  -3   5   0    0.13    0.13
   2  -5   0    6.05    0.45
   2  -5   0    5.82    0.45
   2  -5   0    5.40    0.40
  -2   5   0    5.69    0.37
  -2   5   0    6.14    0.54
  -2   5   0    6.50    0.49
   1  -5   0    1.89    0.21
   1  -5   0    1.67    0.21
   1  -5   0    1.50    0.17
  -1   5   0    1.90    0.17
  -1   5   0    2.15    0.28
  -1   5   0    1.67    0.22
   0  -5   0    0.67    0.13
   0  -5   0    0.90    0.12
   0  -5   0    1.08    0.11
   0   5   0    1.14    0.20
   0   5   0    1.12    0.17
   0   5   0    0.87    0.10
   0   5   0    0.99    0.10
  -1  -5   0   31.60    1.51
  -1  -5   0   31.35    1.72
  -1  -5   0   31.01    1.57
  -1  -5   0   29.05    1.72
   1   5   0   31.47    1.56
   1   5   0   29.77    1.88
   1   5   0   29.95    1.50
   1   5   0   29.39    2.21
  -2  -5   0   47.33    2.58
  -2  -5   0   48.50    2.25
  -2  -5   0   45.78    2.58
   2   5   0   46.53    3.30
   2   5   0   44.80    2.25
   2   5   0   45.02    2.80
  -3  -5   0    0.09    0.07
  -3  -5   0    0.12    0.03
  -3  -5   0    0.17    0.04
  -3  -5   0    0.14    0.03
  -3  -5   0    0.07    0.05
   3   5   0    0.21    0.12
   3   5   0    0.16    0.03
   3   5   0    0.20    0.08
  -4  -5   0   13.79    0.78
  -4  -5   0   13.95    0.67
  -4  -5   0   12.77    0.71
  -4  -5   0   13.09    0.79
   4   5   0   13.86    1.03
   4   5   0   13.20    0.85
  -5  -5   0    1.08    0.13
  -5  -5   0    0.95    0.15
  -5  -5   0    1.18    0.13
  -6  -5   0    0.09    0.07
   3  -6   0    0.04    0.14
   3  -6   0    0.07    0.12
   3  -6   0   -0.03    0.23
   3  -6   0    0.20    0.19
  -3   6   0    0.11    0.10
  -3   6   0    0.10    0.14
   2  -6   0    0.15    0.10
   2  -6   0    0.26    0.14
   2  -6   0    0.15    0.12
  -2   6   0    0.15    0.08
  -2   6   0    0.24    0.14
  -2   6   0    0.28    0.18
   1  -6   0    0.73    0.15
   1  -6   0    0.62    0.14
   1  -6   0    0.82    0.13
  -1   6   0    0.74    0.21
  -1   6   0    0.52    0.10
  -1   6   0    1.05    0.18
   0  -6   0    5.36    0.39
   0  -6   0    5.57    0.33
   0  -6   0    4.88    0.36
   0   6   0    5.16    0.49
   0   6   0    5.00    0.31
   0   6   0    4.88    0.41
  -1  -6   0    4.52    0.31
  -1  -6   0    4.40    0.33
  -1  -6   0    4.21    0.25
   1   6   0    4.38    0.26
   1   6   0    4.39    0.24
   1   6   0    3.97    0.42
   1   6   0    3.83    0.35
  -2  -6   0    0.19    0.07
  -2  -6   0    0.31    0.05
  -2  -6   0    0.23    0.10
   2   6   0    0.21    0.05
   2   6   0    0.27    0.14
   2   6   0    0.22    0.10
  -3  -6   0    0.76    0.10
  -3  -6   0    0.65    0.12
   3   6   0    0.67    0.06
   3   6   0    0.39    0.16
   3   6   0    0.74    0.14
  -4  -6   0    1.67    0.19
  -4  -6   0    1.60    0.15
   4   6   0    1.37    0.25
   4   6   0    1.42    0.18
  -5  -6   0    2.67    0.21
  -5  -6   0    2.69    0.27
   5   6   0    3.04    0.36
   3  -7   0    1.00    0.28
   3  -7   0    0.77    0.24
  -3   7   0    0.51    0.21
  -3   7   0    1.13    0.19
   2  -7   0    0.05    0.12
   2  -7   0   -0.02    0.11
   2  -7   0    0.22    0.17
  -2   7   0    0.02    0.09
  -2   7   0   -0.07    0.18
  -2   7   0   -0.06    0.13
   1  -7   0    1.74    0.24
   1  -7   0    1.78    0.21
   1  -7   0    1.72    0.25
  -1   7   0    1.57    0.25
  -1   7   0    1.44    0.18
  -1   7   0    1.93    0.33
   0  -7   0   11.03    0.72
   0  -7   0   11.65    0.71
   0  -7   0   11.30    0.64
   0   7   0   10.74    0.93
   0   7   0   11.19    0.61
   0   7   0   10.52    0.79
  -1  -7   0    0.10    0.08
  -1  -7   0    0.10    0.06
  -1  -7   0    0.05    0.09
   1   7   0    0.14    0.07
   1   7   0    0.09    0.14
   1   7   0    0.10    0.10
  -2  -7   0    1.48    0.21
  -2  -7   0    1.80    0.19
   2   7   0    1.73    0.24
   2   7   0    2.04    0.32
   2   7   0    1.81    0.13
  -3  -7   0    0.04    0.10
  -3  -7   0    0.07    0.07
   3   7   0    0.20    0.16
   3   7   0    0.21    0.11
  -4  -7   0    0.35    0.08
  -4  -7   0    0.43    0.12
   4   7   0    0.52    0.19
   4   7   0    0.30    0.12
  -5  -7   0    0.09    0.11
   5   7   0    0.22    0.20
   2  -8   0    0.19    0.21
   2  -8   0    0.01    0.15
  -2   8   0    0.15    0.11
  -2   8   0    0.04    0.10
  -2   8   0    0.16    0.18
   1  -8   0    5.89    0.51
   1  -8   0    6.87    0.51
  -1   8   0    6.37    0.42
  -1   8   0    6.79    0.66
  -1   8   0    5.85    0.54
   0  -8   0   -0.10    0.10
   0  -8   0    0.09    0.11
   0   8   0   -0.02    0.17
   0   8   0    0.23    0.16
   0   8   0    0.04    0.08
  -1  -8   0   -0.02    0.10
  -1  -8   0    0.03    0.08
   1   8   0    0.05    0.17
   1   8   0    0.04    0.12
   1   8   0    0.12    0.08
  -2  -8   0    2.25    0.23
  -2  -8   0    2.15    0.26
   2   8   0    2.13    0.35
   2   8   0    2.02    0.28
  -3  -8   0    1.80    0.20
  -3  -8   0    1.66    0.23
   3   8   0    2.08    0.35
   3   8   0    2.02    0.27
  -4  -8   0    0.89    0.13
  -4  -8   0    0.84    0.18
   4   8   0    0.79    0.25
   4   8   0    0.85    0.18
  -5  -8   0    1.19    0.21
   5   8   0    1.21    0.30
   0  -9   0    0.88    0.20
   0  -9   0    0.59    0.21
   0   9   0    0.92    0.29
   0   9   0    1.11    0.25
   0   9   0    1.17    0.16
  -1  -9   0    2.11    0.26
  -1  -9   0    1.23    0.23
   1   9   0    1.87    0.31
   1   9   0    1.64    0.34
  -2  -9   0    2.07    0.28
  -2  -9   0    2.40    0.26
   2   9   0    1.96    0.31
   2   9   0    2.22    0.40
  -3  -9   0    0.19    0.11
  -3  -9   0    0.03    0.11
   3   9   0   -0.03    0.13
   3   9   0    0.14    0.21
  -4  -9   0    0.16    0.14
   4   9   0    0.31    0.15
   4   9   0    0.54    0.28
  -2 -10   0    0.05    0.16
  -2 -10   0   -0.13    0.12
   2  10   0    0.08    0.18
   4   9  -1    1.21    0.34
   4   9  -1    1.38    0.25
  -4  -9   1    1.47    0.25
   3   9  -1    1.68    0.29
   3   9  -1    1.86    0.38
  -3  -9   1    1.96    0.23
  -3  -9   1    2.08    0.28
   2   9  -1    1.16    0.32
   2   9  -1    1.11    0.23
  -2  -9   1    1.26    0.18
  -2  -9   1    0.61    0.18
   1   9  -1    0.06    0.21
   1   9  -1    0.24    0.17
  -1  -9   1    0.19    0.13
  -1  -9   1    0.07    0.13
   0   9  -1    0.25    0.18
   0   9  -1    0.08    0.21
   0   9  -1    0.12    0.11
   0  -9   1    0.11    0.15
   0  -9   1    0.16    0.13
   5   8  -1    0.17    0.24
  -5  -8   1    0.15    0.13
   4   8  -1    0.12    0.20
   4   8  -1    0.25    0.14
  -4  -8   1    0.05    0.08
  -4  -8   1    0.13    0.12
   3   8  -1    0.25    0.19
   3   8  -1    0.25    0.14
  -3  -8   1    0.38    0.10
  -3  -8   1    0.45    0.15
   2   8  -1    0.39    0.15
   2   8  -1    0.33    0.20
  -2  -8   1    0.60    0.12
  -2  -8   1    0.36    0.13
   1   8  -1    0.46    0.10
   1   8  -1    0.42    0.21
   1   8  -1    0.49    0.16
  -1  -8   1    0.63    0.16
  -1  -8   1    0.75    0.14
   0   8  -1    1.95    0.35
   0   8  -1    1.75    0.27
   0   8  -1    1.59    0.17
   0  -8   1    1.50    0.23
   0  -8   1    1.34    0.23
  -1   8  -1    0.86    0.28
  -1   8  -1    0.64    0.13
  -1   8  -1    0.69    0.20
   1  -8   1    0.48    0.14
   1  -8   1    0.58    0.18
   1  -8   1    0.26    0.16
  -2   8  -1    0.08    0.12
  -2   8  -1   -0.06    0.16
   2  -8   1    0.12    0.13
   2  -8   1    0.14    0.16
   2  -8   1    0.12    0.20
   5   7  -1    0.12    0.20
  -5  -7   1    0.18    0.09
  -5  -7   1    0.29    0.13
   4   7  -1    0.01    0.15
   4   7  -1    0.11    0.09
  -4  -7   1   -0.05    0.09
  -4  -7   1   -0.01    0.06
   3   7  -1    0.98    0.23
   3   7  -1    1.02    0.18
  -3  -7   1    1.09    0.18
  -3  -7   1    0.92    0.14
   2   7  -1   10.37    0.52
   2   7  -1    9.48    0.70
   2   7  -1   10.22    0.85
  -2  -7   1    9.57    0.62
  -2  -7   1   10.05    0.65
   1   7  -1    0.87    0.11
   1   7  -1    1.10    0.20
   1   7  -1    1.02    0.24
  -1  -7   1    1.01    0.17
  -1  -7   1    0.78    0.14
  -1  -7   1    1.06    0.11
   0   7  -1    7.88    0.45
   0   7  -1    7.99    0.71
   0   7  -1    8.05    0.61
   0  -7   1    7.52    0.54
   0  -7   1    8.04    0.48
   0  -7   1    7.91    0.54
  -1   7  -1    8.89    0.82
  -1   7  -1    9.72    0.54
  -1   7  -1    9.90    0.71
   1  -7   1    8.60    0.63
   1  -7   1    8.78    0.57
   1  -7   1    9.77    0.64
  -2   7  -1    0.14    0.10
  -2   7  -1    0.24    0.22
  -2   7  -1    0.13    0.16
   2  -7   1    0.15    0.12
   2  -7   1    0.31    0.17
   2  -7   1    0.32    0.15
  -3   7  -1    0.36    0.14
  -3   7  -1    0.35    0.20
   3  -7   1    0.74    0.22
   3  -7   1    0.42    0.22
   3  -7   1    0.62    0.18
  -6  -6   1    0.00    0.08
   5   6  -1    0.29    0.16
  -5  -6   1    0.09    0.07
  -5  -6   1    0.02    0.09
   4   6  -1    0.25    0.15
   4   6  -1   -0.01    0.07
  -4  -6   1   -0.06    0.07
  -4  -6   1    0.05    0.06
   3   6  -1    9.38    0.64
   3   6  -1    9.22    0.78
  -3  -6   1    9.75    0.49
  -3  -6   1    9.43    0.57
  -3  -6   1    8.55    0.59
   2   6  -1    0.09    0.08
   2   6  -1    0.02    0.02
   2   6  -1    0.08    0.03
   2   6  -1    0.19    0.14
  -2  -6   1    0.09    0.07
  -2  -6   1    0.01    0.03
  -2  -6   1    0.05    0.06
  -2  -6   1    0.11    0.04
   1   6  -1   14.03    0.71
   1   6  -1   13.12    0.69
   1   6  -1   13.82    0.90
   1   6  -1   13.04    1.06
  -1  -6   1   12.92    0.72
  -1  -6   1   13.64    0.81
  -1  -6   1   13.51    0.82
   0   6  -1   14.20    0.75
   0   6  -1   14.52    0.96
   0   6  -1   14.34    1.12
   0  -6   1   15.15    0.79
   0  -6   1   13.08    0.87
   0  -6   1   14.18    0.87
  -1   6  -1    0.26    0.17
  -1   6  -1    0.04    0.07
  -1   6  -1    0.29    0.12
   1  -6   1    0.13    0.09
   1  -6   1    0.04    0.07
   1  -6   1    0.10    0.11
  -2   6  -1    0.09    0.08
  -2   6  -1    0.12    0.17
  -2   6  -1    0.04    0.12
   2  -6   1    0.13    0.10
   2  -6   1   -0.05    0.09
   2  -6   1    0.24    0.13
  -3   6  -1    3.24    0.40
  -3   6  -1    3.99    0.33
  -3   6  -1    4.35    0.49
   3  -6   1    2.99    0.34
   3  -6   1    3.99    0.42
   3  -6   1    2.91    0.38
   6   5  -1    0.16    0.11
  -6  -5   1    0.02    0.07
   5   5  -1    0.04    0.08
   5   5  -1    0.12    0.11
  -5  -5   1    0.01    0.04
  -5  -5   1   -0.03    0.05
   4   5  -1    6.13    0.55
   4   5  -1    6.36    0.43
  -4  -5   1    6.13    0.40
  -4  -5   1    6.73    0.36
   3   5  -1    0.20    0.12
   3   5  -1    0.19    0.08
  -3  -5   1    0.20    0.06
  -3  -5   1    0.08    0.07
  -3  -5   1    0.16    0.06
  -3  -5   1    0.20    0.04
   2   5  -1    0.10    0.03
   2   5  -1   -0.03    0.09
   2   5  -1    0.11    0.07
   2   5  -1    0.11    0.03
  -2  -5   1    0.08    0.02
  -2  -5   1    0.11    0.03
  -2  -5   1    0.07    0.05
  -2  -5   1    0.10    0.07
   1   5  -1    5.68    0.43
   1   5  -1    6.05    0.32
   1   5  -1    6.04    0.52
   1   5  -1    5.95    0.32
  -1  -5   1    5.82    0.33
  -1  -5   1    5.94    0.32
  -1  -5   1    5.57    0.39
  -1  -5   1    6.16    0.38
   0   5  -1    5.69    0.34
   0   5  -1    6.58    0.46
   0   5  -1    5.95    0.53
   0  -5   1    6.11    0.41
   0  -5   1    6.11    0.40
   0  -5   1    5.87    0.36
  -1   5  -1    1.35    0.14
  -1   5  -1    1.49    0.24
  -1   5  -1    1.24    0.19
   1  -5   1    1.34    0.18
   1  -5   1    1.31    0.17
   1  -5   1    0.96    0.13
  -2   5  -1    8.55    0.63
  -2   5  -1    8.77    0.73
  -2   5  -1    8.98    0.50
   2  -5   1    8.94    0.59
   2  -5   1    8.49    0.54
   2  -5   1    7.60    0.57
  -3   5  -1    5.60    0.45
  -3   5  -1    4.67    0.33
  -3   5  -1    5.01    0.48
   3  -5   1    4.81    0.38
   3  -5   1    4.11    0.44
   3  -5   1    4.55    0.41
  -4   5  -1    0.64    0.22
  -4   5  -1    0.68    0.15
   4  -5   1    0.64    0.20
   4  -5   1    1.01    0.21
   4  -5   1    1.08    0.27
  -6  -4   1    2.42    0.23
  -6  -4   1    2.42    0.25
   5   4  -1    5.65    0.44
   5   4  -1    4.92    0.35
  -5  -4   1    4.59    0.32
  -5  -4   1    5.03    0.29
  -5  -4   1    5.05    0.35
   4   4  -1    2.02    0.18
   4   4  -1    1.89    0.24
  -4  -4   1    2.22    0.15
  -4  -4   1    2.10    0.27
  -4  -4   1    2.11    0.17
  -4  -4   1    2.23    0.17
  -4  -4   1    2.00    0.13
  -4  -4   1    1.95    0.13
   3   4  -1   16.54    1.03
   3   4  -1   16.98    1.24
   3   4  -1   15.87    0.96
  -3  -4   1   17.37    0.90
  -3  -4   1   16.88    1.03
  -3  -4   1   16.18    0.96
  -3  -4   1   17.21    0.88
   2   4  -1    0.09    0.10
   2   4  -1    0.00    0.05
   2   4  -1    0.02    0.02
  -2  -4   1    0.16    0.06
  -2  -4   1    0.08    0.06
  -2  -4   1    0.04    0.04
  -2  -4   1    0.01    0.02
   1   4  -1    3.66    0.21
   1   4  -1    3.86    0.21
   1   4  -1    3.86    0.29
   1   4  -1    3.93    0.35
  -1  -4   1    3.78    0.27
  -1  -4   1    4.11    0.26
  -1  -4   1    3.90    0.22
  -1  -4   1    3.75    0.21
   0   4  -1    0.03    0.03
   0   4  -1   -0.05    0.08
   0   4  -1   -0.02    0.05
   0   4  -1   -0.01    0.04
   0  -4   1    0.05    0.06
   0  -4   1    0.00    0.03
   0  -4   1    0.05    0.05
   0  -4   1    0.00    0.04
  -1   4  -1    0.65    0.13
  -1   4  -1    0.58    0.14
  -1   4  -1    0.53    0.09
   1  -4   1    0.70    0.12
   1  -4   1    0.86    0.13
   1  -4   1    0.69    0.10
  -2   4  -1    8.09    0.45
  -2   4  -1    7.77    0.56
  -2   4  -1    7.49    0.63
   2  -4   1    7.46    0.52
   2  -4   1    7.83    0.48
   2  -4   1    7.40    0.51
  -3   4  -1   12.26    0.87
  -3   4  -1   11.68    0.70
  -3   4  -1   13.28    0.98
   3  -4   1   11.86    0.81
   3  -4   1   13.93    0.78
   3  -4   1   12.73    0.83
  -4   4  -1    0.18    0.15
  -4   4  -1    0.31    0.11
   4  -4   1    0.52    0.21
   4  -4   1    0.48    0.17
   4  -4   1    0.26    0.13
  -5   4  -1    0.03    0.17
  -5   4  -1    0.03    0.11
   5  -4   1    0.05    0.18
   5  -4   1    0.08    0.15
   6   3  -1    0.52    0.24
  -6  -3   1    0.11    0.08
   5   3  -1    0.52    0.13
   5   3  -1    0.68    0.21
  -5  -3   1    0.51    0.09
  -5  -3   1    0.55    0.10
   4   3  -1   21.18    1.21
   4   3  -1   20.83    1.50
   4   3  -1   21.89    1.30
  -4  -3   1   20.88    1.26
  -4  -3   1   20.77    1.05
  -4  -3   1   20.31    1.12
  -4  -3   1   21.35    1.04
  -4  -3   1   20.69    1.54
   3   3  -1   24.09    1.76
   3   3  -1   24.16    1.47
   3   3  -1   24.40    1.39
  -3  -3   1   25.16    1.20
  -3  -3   1   24.99    1.21
  -3  -3   1   24.48    1.28
  -3  -3   1   25.68    1.31
  -3  -3   1   24.01    1.39
  -3  -3   1   24.75    1.47
   2   3  -1    6.76    0.42
   2   3  -1    6.73    0.44
   2   3  -1    6.92    0.54
   2   3  -1    6.87    0.37
  -2  -3   1    7.15    0.41
  -2  -3   1    6.93    0.37
  -2  -3   1    6.97    0.44
  -2  -3   1    6.69    0.46
   1   3  -1   25.20    1.55
   1   3  -1   25.13    1.32
   1   3  -1   25.37    1.25
   1   3  -1   25.68    1.43
   1   3  -1   25.05    1.83
  -1  -3   1   25.15    1.43
  -1  -3   1   26.24    1.43
  -1  -3   1   26.89    1.55
  -1  -3   1   26.49    1.43
  -1  -3   1   25.82    1.32
  -1  -3   1   25.43    1.25
   0   3  -1   12.40    0.59
   0   3  -1   11.54    0.62
   0   3  -1   10.98    0.74
   0   3  -1   10.96    0.87
   0   3  -1   11.85    0.68
   0  -3   1   11.92    0.59
   0  -3   1   11.68    0.62
   0  -3   1   11.86    0.68
   0  -3   1   11.53    0.68
  -1   3  -1  227.27   10.99
  -1   3  -1  229.28   13.43
  -1   3  -1  232.08   15.79
   1  -3   1  226.42   12.37
   1  -3   1  229.66   11.60
   1  -3   1  220.15   12.49
  -2   3  -1   93.05    6.43
  -2   3  -1   91.52    5.49
  -2   3  -1   91.71    4.49
   2  -3   1   92.55    5.12
   2  -3   1   90.80    5.05
   2  -3   1   92.44    4.75
  -3   3  -1    4.17    0.37
  -3   3  -1    4.24    0.35
  -3   3  -1    4.11    0.28
   3  -3   1    3.69    0.31
   3  -3   1    3.66    0.33
   3  -3   1    4.04    0.34
  -4   3  -1    0.83    0.14
  -4   3  -1    0.59    0.16
   4  -3   1    0.23    0.12
   4  -3   1    0.56    0.17
   4  -3   1    0.37    0.17
  -5   3  -1    0.45    0.14
  -5   3  -1    0.48    0.19
   5  -3   1    0.40    0.17
   5  -3   1    0.86    0.24
   6   2  -1   13.09    0.92
  -6  -2   1   12.31    0.72
  -6  -2   1   11.52    0.67
   5   2  -1    0.30    0.19
   5   2  -1    0.86    0.16
  -5  -2   1    0.80    0.12
  -5  -2   1    0.43    0.09
   4   2  -1    1.48    0.14
   4   2  -1    1.69    0.19
   4   2  -1    1.19    0.22
  -4  -2   1    1.40    0.14
  -4  -2   1    1.13    0.23
  -4  -2   1    1.37    0.11
  -4  -2   1    1.07    0.12
   3   2  -1    4.00    0.31
   3   2  -1    3.70    0.29
   3   2  -1    3.62    0.26
  -3  -2   1    3.59    0.22
  -3  -2   1    3.21    0.23
  -3  -2   1    3.27    0.20
  -3  -2   1    3.24    0.22
  -3  -2   1    3.50    0.20
   2   2  -1   11.87    0.61
   2   2  -1   11.66    0.69
   2   2  -1   11.07    0.84
   2   2  -1   11.30    0.67
  -2  -2   1   11.35    0.66
  -2  -2   1   11.75    0.57
  -2  -2   1   11.98    0.71
  -2  -2   1   11.14    0.69
  -2  -2   1   11.34    0.57
  -2  -2   1   11.07    0.68
  -2  -2   1   11.43    0.61
   1   2  -1  145.53   10.85
   1   2  -1  160.18    7.96
   1   2  -1  159.72    8.50
   1   2  -1  158.84    9.22
   1   2  -1  155.02    8.58
  -1  -2   1  152.59    7.96
  -1  -2   1  157.93    8.51
  -1  -2   1  162.18    9.22
  -1  -2   1  156.39    8.58
   0   2  -1  188.69   11.04
   0   2  -1  203.15    9.72
   0   2  -1  208.07   10.94
   0   2  -1  199.30   11.87
   0   2  -1  202.90   13.97
   0   2  -1  203.24   10.24
   0  -2   1  202.47    9.72
   0  -2   1  204.32   13.97
   0  -2   1  205.93   11.87
   0  -2   1  199.21   10.94
   0  -2   1  199.07   11.04
   0  -2   1  201.63   10.25
  -1   2  -1    2.90    0.20
  -1   2  -1    2.55    0.20
  -1   2  -1    3.06    0.26
  -1   2  -1    2.85    0.19
  -1   2  -1    2.79    0.23
  -1   2  -1    2.89    0.19
   1  -2   1    3.06    0.20
   1  -2   1    2.72    0.19
   1  -2   1    2.69    0.20
   1  -2   1    2.60    0.24
   1  -2   1    3.11    0.27
   1  -2   1    2.57    0.21
  -2   2  -1  110.83    6.62
  -2   2  -1  113.99    7.77
  -2   2  -1  108.78    5.43
   2  -2   1  110.28    6.18
   2  -2   1  113.63    6.11
   2  -2   1  109.33    5.74
   2  -2   1  114.67    7.77
  -3   2  -1    4.92    0.31
  -3   2  -1    5.21    0.40
  -3   2  -1    4.94    0.38
   3  -2   1    5.28    0.42
   3  -2   1    4.64    0.34
   3  -2   1    4.13    0.36
   3  -2   1    5.01    0.38
  -4   2  -1    1.73    0.19
  -4   2  -1    2.53    0.26
   4  -2   1    1.55    0.22
   4  -2   1    2.46    0.28
   4  -2   1    1.82    0.26
  -5   2  -1    1.95    0.27
  -5   2  -1    1.84    0.21
   5  -2   1    1.26    0.26
   5  -2   1    1.51    0.25
   6   1  -1    0.10    0.18
  -6  -1   1    0.13    0.09
  -6  -1   1    0.02    0.08
   5   1  -1    9.27    0.65
   5   1  -1    8.79    0.70
  -5  -1   1   10.22    0.58
  -5  -1   1    9.96    0.55
   4   1  -1    0.34    0.13
   4   1  -1    0.45    0.18
   4   1  -1    0.03    0.13
  -4  -1   1    0.10    0.05
  -4  -1   1    0.18    0.05
  -4  -1   1    0.09    0.06
   3   1  -1    6.01    0.41
   3   1  -1    5.97    0.44
   3   1  -1    5.83    0.34
   3   1  -1    6.78    0.45
  -3  -1   1    5.71    0.50
  -3  -1   1    5.85    0.35
  -3  -1   1    5.93    0.33
  -3  -1   1    6.34    0.38
   2   1  -1    0.23    0.08
   2   1  -1    0.03    0.08
   2   1  -1    0.15    0.05
   2   1  -1    0.13    0.04
  -2  -1   1    0.30    0.10
  -2  -1   1    0.07    0.09
  -2  -1   1    0.11    0.04
  -2  -1   1    0.36    0.11
  -2  -1   1    0.28    0.07
  -2  -1   1    0.20    0.04
   1   1  -1   20.81    1.46
   1   1  -1   21.18    1.07
   1   1  -1   20.14    1.23
   1   1  -1   20.86    1.16
   1   1  -1   20.48    1.01
  -1  -1   1   20.12    1.01
  -1  -1   1   21.50    1.47
  -1  -1   1   20.35    1.16
  -1  -1   1   21.39    1.16
  -1  -1   1   20.76    1.18
  -1  -1   1   20.23    1.07
  -1  -1   1   20.80    1.23
   0   1  -1   25.13    1.46
   0   1  -1   26.20    1.28
   0   1  -1   26.19    1.57
   0   1  -1   25.72    1.35
   0   1  -1   26.73    1.28
   0   1  -1   25.05    1.45
   0   1  -1   27.04    1.85
   0  -1   1   26.71    1.58
   0  -1   1   24.72    1.46
   0  -1   1   27.00    1.85
   0  -1   1   26.32    1.35
   0  -1   1   25.17    1.45
  -1   1  -1 1000.00   55.50
  -1   1  -1  876.66   45.46
  -1   1  -1  936.28   47.95
  -1   1  -1  970.97   51.65
  -1   1  -1  994.04   51.13
   1  -1   1  898.53   51.65
   1  -1   1  958.30   51.13
   1  -1   1  904.99   47.95
   1  -1   1  949.92   55.50
   1  -1   1  938.16   65.27
   1  -1   1  956.19   45.47
  -2   1  -1   23.37    1.16
  -2   1  -1   23.15    1.63
  -2   1  -1   24.88    1.29
  -2   1  -1   23.29    1.41
   2  -1   1   22.94    1.30
   2  -1   1   23.39    1.33
   2  -1   1   23.77    1.23
   2  -1   1   22.43    1.63
   2  -1   1   20.89    1.43
  -3   1  -1    0.16    0.08
  -3   1  -1    0.05    0.06
  -3   1  -1    0.17    0.06
  -3   1  -1    0.33    0.09
   3  -1   1    0.17    0.07
   3  -1   1    0.02    0.09
   3  -1   1    0.21    0.10
   3  -1   1    0.20    0.11
  -4   1  -1    0.13    0.09
  -4   1  -1    0.27    0.08
   4  -1   1    0.31    0.13
   4  -1   1    0.27    0.11
   4  -1   1   -0.06    0.10
  -5   1  -1    0.29    0.10
  -5   1  -1    0.29    0.12
   5  -1   1    0.28    0.18
   5  -1   1    0.05    0.12
   5  -1   1    0.00    0.09
  -6   1  -1   -0.07    0.09
   6  -1   1    0.30    0.22
   6   0  -1    5.70    0.61
  -6   0   1    5.96    0.43
  -6   0   1    6.03    0.40
   5   0  -1    0.34    0.17
   5   0  -1    0.02    0.13
  -5   0   1    0.00    0.07
  -5   0   1    0.03    0.07
   4   0  -1    1.22    0.24
   4   0  -1    1.22    0.22
   4   0  -1    1.98    0.25
  -4   0   1    1.57    0.16
  -4   0   1    1.28    0.15
  -4   0   1    1.42    0.14
   3   0  -1    0.11    0.09
   3   0  -1    0.12    0.10
   3   0  -1    0.12    0.10
  -3   0   1    0.05    0.04
  -3   0   1   -0.02    0.04
  -3   0   1    0.08    0.05
   2   0  -1   54.29    4.24
   2   0  -1   59.63    3.60
   2   0  -1   63.72    3.37
   2   0  -1   60.36    2.96
   2   0  -1   60.27    3.40
  -2   0   1   58.79    2.96
  -2   0   1   65.70    4.24
  -2   0   1   60.04    3.59
  -2   0   1   65.99    3.37
  -2   0   1   60.20    3.14
  -2   0   1   64.36    3.40
  -2   0   1   57.94    3.12
   1   0  -1    8.09    0.71
   1   0  -1    9.72    0.57
   1   0  -1   10.62    0.58
   1   0  -1    9.89    0.48
   1   0  -1    9.79    0.58
   1   0  -1   10.33    0.51
  -1   0   1    8.87    0.72
  -1   0   1    9.67    0.51
  -1   0   1    9.41    0.58
  -1   0   1    9.89    0.48
  -1   0   1   10.71    0.58
   0   0  -1   -0.02    0.03
   0   0  -1   -0.04    0.01
   0   0  -1   -0.03    0.00
   0   0  -1   -0.04    0.00
   0   0  -1   -0.05    0.02
   0   0  -1   -0.06    0.04
   0   0   1   -0.03    0.01
   0   0   1   -0.03    0.01
   0   0   1   -0.03    0.03
   0   0   1   -0.02    0.02
   0   0   1   -0.03    0.03
  -1   0  -1    2.22    0.14
  -1   0  -1    2.35    0.19
  -1   0  -1    2.30    0.15
  -1   0  -1    2.20    0.13
  -1   0  -1    2.23    0.13
  -1   0  -1    2.09    0.20
   1   0   1    2.35    0.14
   1   0   1    1.61    0.21
   1   0   1    2.17    0.14
   1   0   1    2.05    0.20
   1   0   1    2.27    0.15
  -2   0  -1    0.58    0.07
  -2   0  -1    0.40    0.08
  -2   0  -1    0.39    0.07
  -2   0  -1    0.39    0.05
  -2   0  -1    0.37    0.06
  -2   0  -1    0.35    0.06
  -2   0  -1    0.40    0.06
   2   0   1    0.44    0.08
   2   0   1    0.56    0.13
   2   0   1    0.33    0.06
   2   0   1    0.31    0.08
   2   0   1    0.48    0.09
  -3   0  -1   77.03    3.83
  -3   0  -1   76.34    4.67
  -3   0  -1   83.26    4.29
   3   0   1   75.76    4.06
   3   0   1   79.54    4.37
   3   0   1   78.50    4.31
  -4   0  -1    2.06    0.21
  -4   0  -1    1.64    0.17
   4   0   1    1.53    0.23
   4   0   1    2.16    0.23
   4   0   1    1.35    0.18
  -5   0  -1    0.84    0.15
  -5   0  -1    1.03    0.15
   5   0   1    0.78    0.17
   5   0   1    0.70    0.17
   5   0   1    0.63    0.18
  -6   0  -1    0.23    0.11
   6   0   1    0.22    0.21
   6  -1  -1    0.83    0.27
  -6   1   1    0.76    0.15
  -6   1   1    0.72    0.16
   5  -1  -1    0.23    0.16
   5  -1  -1    0.27    0.21
  -5   1   1    0.01    0.08
  -5   1   1    0.03    0.06
   4  -1  -1    0.31    0.14
   4  -1  -1    0.30    0.16
  -4   1   1    0.19    0.08
  -4   1   1    0.12    0.07
  -4   1   1    0.11    0.07
   3  -1  -1    5.64    0.40
   3  -1  -1    5.40    0.40
   3  -1  -1    4.28    0.45
   3  -1  -1    5.63    0.40
   3  -1  -1    4.88    0.41
  -3   1   1    5.66    0.32
  -3   1   1    5.40    0.37
   2  -1  -1    5.24    0.37
   2  -1  -1    5.60    0.36
   2  -1  -1    5.20    0.44
   2  -1  -1    4.89    0.38
   2  -1  -1    5.38    0.41
  -2   1   1    5.30    0.36
  -2   1   1    6.04    0.38
  -2   1   1    5.40    0.30
   1  -1  -1  305.98   17.41
   1  -1  -1  338.91   15.46
   1  -1  -1  324.71   22.20
   1  -1  -1  318.17   18.86
   1  -1  -1  313.19   17.57
  -1   1   1  321.36   16.31
  -1   1   1  307.78   16.30
  -1   1   1  343.52   17.41
  -1   1   1  313.87   15.45
  -1   1   1  308.35   18.86
  -1   1   1  331.36   17.57
   0  -1  -1   83.15    4.08
   0  -1  -1   86.26    5.88
   0  -1  -1   80.60    4.64
   0  -1  -1   85.43    4.60
   0  -1  -1   84.48    4.30
   0  -1  -1   83.75    4.99
   0   1   1   82.90    4.99
   0   1   1   82.48    4.08
   0   1   1   84.21    4.64
   0   1   1   90.45    5.88
   0   1   1   88.48    4.60
   0   1   1   82.29    4.30
  -1  -1  -1   58.72    2.86
  -1  -1  -1   58.55    3.01
  -1  -1  -1   61.68    4.11
  -1  -1  -1   58.60    3.20
  -1  -1  -1   58.44    3.49
  -1  -1  -1   57.97    3.20
  -1  -1  -1   58.43    3.24
   1   1   1   56.21    3.49
   1   1   1   58.22    3.01
   1   1   1   63.57    4.11
   1   1   1   57.18    2.86
   1   1   1   61.15    3.24
  -2  -1  -1   24.87    1.24
  -2  -1  -1   25.29    1.74
  -2  -1  -1   24.57    1.40
  -2  -1  -1   26.20    1.39
  -2  -1  -1   23.85    1.55
  -2  -1  -1   24.73    1.76
  -2  -1  -1   25.96    1.23
  -2  -1  -1   24.97    1.30
   2   1   1   25.14    1.31
   2   1   1   23.54    1.57
   2   1   1   24.11    1.37
   2   1   1   25.93    1.41
  -3  -1  -1    2.85    0.26
  -3  -1  -1    3.18    0.20
  -3  -1  -1    3.34    0.24
   3   1   1    2.69    0.36
   3   1   1    3.76    0.24
   3   1   1    2.86    0.21
   3   1   1    3.05    0.26
  -4  -1  -1    6.41    0.42
  -4  -1  -1    6.41    0.43
  -4  -1  -1    6.21    0.36
   4   1   1    6.36    0.39
   4   1   1    5.28    0.39
   4   1   1    5.14    0.44
  -5  -1  -1    0.07    0.07
  -5  -1  -1   -0.08    0.07
   5   1   1    0.08    0.10
   5   1   1    0.06    0.10
   5   1   1    0.19    0.15
  -6  -1  -1    1.06    0.16
  -6  -1  -1    1.15    0.18
   6   1   1    0.58    0.23
   5  -2  -1    1.15    0.28
   5  -2  -1    0.42    0.21
  -5   2   1    0.62    0.14
  -5   2   1    0.66    0.13
  -5   2   1    0.71    0.17
   4  -2  -1    0.32    0.18
   4  -2  -1    0.07    0.12
  -4   2   1    0.13    0.10
  -4   2   1    0.22    0.09
  -4   2   1    0.07    0.07
   3  -2  -1    0.97    0.14
   3  -2  -1    0.63    0.15
   3  -2  -1    0.56    0.17
   3  -2  -1    0.77    0.18
  -3   2   1    0.68    0.10
  -3   2   1    0.66    0.12
   2  -2  -1    0.08    0.07
   2  -2  -1    0.02    0.06
   2  -2  -1    0.00    0.08
   2  -2  -1   -0.01    0.09
   2  -2  -1    0.10    0.08
  -2   2   1    0.04    0.04
  -2   2   1    0.02    0.05
   1  -2  -1    6.62    0.42
   1  -2  -1    7.03    0.53
   1  -2  -1    6.17    0.51
   1  -2  -1    6.54    0.44
   1  -2  -1    6.83    0.36
   1  -2  -1    7.05    0.43
   1  -2  -1    6.25    0.38
  -1   2   1    6.23    0.44
  -1   2   1    6.63    0.36
  -1   2   1    7.17    0.42
  -1   2   1    6.81    0.38
  -1   2   1    6.82    0.41
   0  -2  -1    2.90    0.20
   0  -2  -1    3.05    0.23
   0  -2  -1    2.72    0.26
   0  -2  -1    3.21    0.21
   0  -2  -1    2.78    0.18
   0   2   1    3.19    0.21
   0   2   1    3.22    0.19
   0   2   1    3.12    0.18
   0   2   1    3.16    0.23
   0   2   1    2.99    0.18
   0   2   1    3.00    0.26
   0   2   1    3.35    0.20
  -1  -2  -1   11.78    0.87
  -1  -2  -1   12.33    0.61
  -1  -2  -1   12.22    0.68
  -1  -2  -1   12.18    0.60
  -1  -2  -1   11.82    0.74
  -1  -2  -1   12.19    0.67
   1   2   1   11.79    0.67
   1   2   1   12.03    0.62
   1   2   1   11.69    0.74
   1   2   1   11.87    0.87
   1   2   1   12.36    0.67
   1   2   1   11.79    0.59
  -2  -2  -1   10.69    0.61
  -2  -2  -1   10.89    0.56
  -2  -2  -1    9.93    0.60
  -2  -2  -1   11.16    0.78
  -2  -2  -1   10.24    0.65
  -2  -2  -1   10.34    0.53
  -2  -2  -1   10.58    0.76
   2   2   1   10.17    0.53
   2   2   1   10.10    0.65
   2   2   1   10.86    0.57
   2   2   1   10.87    0.62
  -3  -2  -1  144.78    7.73
  -3  -2  -1  133.21    9.82
  -3  -2  -1  144.96    6.87
  -3  -2  -1  149.00    9.85
  -3  -2  -1  141.66    8.37
  -3  -2  -1  147.86    7.81
  -3  -2  -1  122.41    8.42
   3   2   1  143.13    7.26
   3   2   1  152.73    7.84
   3   2   1  137.92    7.70
  -4  -2  -1   11.47    0.65
  -4  -2  -1   13.64    0.77
  -4  -2  -1   12.90    0.79
  -4  -2  -1   12.10    0.82
   4   2   1   12.18    0.71
   4   2   1   12.42    0.80
   4   2   1   11.54    0.71
  -5  -2  -1    1.54    0.17
  -5  -2  -1    1.66    0.19
   5   2   1    1.64    0.16
   5   2   1    1.29    0.25
  -6  -2  -1    2.58    0.24
  -6  -2  -1    2.67    0.26
   6   2   1    2.11    0.35
   5  -3  -1    0.57    0.23
   5  -3  -1    0.62    0.25
  -5   3   1    0.39    0.13
  -5   3   1   -0.04    0.10
  -5   3   1    0.32    0.16
   4  -3  -1    2.77    0.35
   4  -3  -1    2.70    0.37
  -4   3   1    3.35    0.34
  -4   3   1    3.45    0.27
  -4   3   1    2.82    0.26
   3  -3  -1    0.58    0.19
   3  -3  -1    0.56    0.15
   3  -3  -1    0.56    0.17
  -3   3   1    0.72    0.14
  -3   3   1    0.66    0.11
   2  -3  -1    1.12    0.15
   2  -3  -1    1.18    0.17
   2  -3  -1    1.67    0.24
   2  -3  -1    1.70    0.21
  -2   3   1    1.23    0.17
  -2   3   1    1.27    0.13
   1  -3  -1    0.03    0.05
   1  -3  -1   -0.04    0.06
   1  -3  -1    0.07    0.06
   1  -3  -1    0.17    0.10
  -1   3   1    0.06    0.08
  -1   3   1    0.09    0.07
  -1   3   1    0.12    0.04
   0  -3  -1   35.64    2.26
   0  -3  -1   38.46    2.09
   0  -3  -1   38.30    2.09
   0  -3  -1   38.81    1.84
   0  -3  -1   37.67    2.66
   0   3   1   36.35    1.84
   0   3   1   35.05    2.66
   0   3   1   38.36    2.09
   0   3   1   39.28    1.94
   0   3   1   35.02    2.26
   0   3   1   39.95    2.09
  -1  -3  -1    0.05    0.05
  -1  -3  -1    0.06    0.04
  -1  -3  -1    0.03    0.03
  -1  -3  -1    0.04    0.03
  -1  -3  -1    0.09    0.08
   1   3   1    0.08    0.03
   1   3   1    0.07    0.05
   1   3   1    0.09    0.05
   1   3   1    0.08    0.03
   1   3   1    0.07    0.07
  -2  -3  -1   40.14    2.21
  -2  -3  -1   39.94    1.95
  -2  -3  -1   40.48    2.21
  -2  -3  -1   40.85    2.24
  -2  -3  -1   40.61    2.05
  -2  -3  -1   39.13    2.21
  -2  -3  -1   40.07    2.41
  -2  -3  -1   39.42    2.83
   2   3   1   40.01    2.83
   2   3   1   40.26    2.40
   2   3   1   40.34    1.95
  -3  -3  -1    8.53    0.53
  -3  -3  -1    8.46    0.55
  -3  -3  -1    8.04    0.65
  -3  -3  -1    8.73    0.44
  -3  -3  -1    8.34    0.47
   3   3   1    8.84    0.55
   3   3   1    8.54    0.48
  -4  -3  -1    7.55    0.59
  -4  -3  -1    6.43    0.57
  -4  -3  -1    7.14    0.51
  -4  -3  -1    7.51    0.49
  -4  -3  -1    7.46    0.41
   4   3   1    7.08    0.44
   4   3   1    8.18    0.53
  -5  -3  -1    1.24    0.20
  -5  -3  -1    1.18    0.15
  -5  -3  -1    1.03    0.13
   5   3   1    0.97    0.12
   5   3   1    0.97    0.22
  -6  -3  -1    0.13    0.08
  -6  -3  -1    0.18    0.10
   6   3   1    0.26    0.21
   5  -4  -1    0.48    0.24
   5  -4  -1    0.83    0.31
  -5   4   1    0.85    0.22
  -5   4   1    0.98    0.19
  -5   4   1    0.76    0.17
   4  -4  -1    0.27    0.20
   4  -4  -1    0.11    0.15
  -4   4   1    0.00    0.08
  -4   4   1    0.14    0.09
  -4   4   1    0.18    0.14
   3  -4  -1    6.27    0.49
   3  -4  -1    6.09    0.58
   3  -4  -1    5.47    0.49
  -3   4   1    6.56    0.50
  -3   4   1    6.91    0.40
   2  -4  -1    0.33    0.09
   2  -4  -1    0.22    0.13
   2  -4  -1    0.39    0.17
   2  -4  -1    0.17    0.09
  -2   4   1    0.39    0.12
  -2   4   1    0.43    0.09
   1  -4  -1    3.04    0.25
   1  -4  -1    2.93    0.21
   1  -4  -1    2.50    0.22
  -1   4   1    2.56    0.28
  -1   4   1    2.65    0.25
  -1   4   1    2.72    0.19
   0  -4  -1   15.74    0.91
   0  -4  -1   14.98    0.91
   0   4   1   16.80    0.83
   0   4   1   16.03    0.80
   0   4   1   16.25    1.17
   0   4   1   13.80    0.99
  -1  -4  -1   44.28    2.48
  -1  -4  -1   46.42    2.19
  -1  -4  -1   43.61    2.48
   1   4   1   42.49    2.70
   1   4   1   44.05    2.19
   1   4   1   43.19    3.18
   1   4   1   46.38    2.48
   1   4   1   47.73    2.28
  -2  -4  -1   35.30    1.95
  -2  -4  -1   35.79    1.72
  -2  -4  -1   36.19    1.95
   2   4   1   34.82    1.71
   2   4   1   33.67    1.94
   2   4   1   35.00    2.50
   2   4   1   35.17    2.13
  -3  -4  -1    0.84    0.08
  -3  -4  -1    1.05    0.08
  -3  -4  -1    0.88    0.08
  -3  -4  -1    1.03    0.09
  -3  -4  -1    0.94    0.11
  -3  -4  -1    0.93    0.15
   3   4   1    0.82    0.15
   3   4   1    0.96    0.13
   3   4   1    0.91    0.08
  -4  -4  -1    1.53    0.14
  -4  -4  -1    1.04    0.11
  -4  -4  -1    1.31    0.29
  -4  -4  -1    1.45    0.24
  -4  -4  -1    1.29    0.12
  -4  -4  -1    1.28    0.12
  -5  -4  -1    0.16    0.17
  -5  -4  -1    0.19    0.07
  -5  -4  -1    0.23    0.07
  -6  -4  -1    0.16    0.09
   6   4   1    0.78    0.25
   4  -5  -1    0.76    0.26
   4  -5  -1    0.53    0.21
  -4   5   1    0.98    0.18
  -4   5   1    0.94    0.22
  -4   5   1    1.33    0.20
   3  -5  -1    0.18    0.16
   3  -5  -1    0.25    0.15
   3  -5  -1    0.19    0.22
  -3   5   1    0.23    0.10
  -3   5   1    0.01    0.08
  -3   5   1    0.23    0.13
   2  -5  -1    0.06    0.10
   2  -5  -1    0.15    0.14
   2  -5  -1    0.02    0.18
  -2   5   1    0.09    0.07
  -2   5   1    0.01    0.09
   1  -5  -1    0.16    0.11
   1  -5  -1    0.32    0.09
   1  -5  -1    0.42    0.11
  -1   5   1    0.45    0.09
  -1   5   1    0.37    0.11
  -1   5   1    0.53    0.15
   0  -5  -1   14.81    0.88
   0  -5  -1   14.36    0.89
   0   5   1   15.19    1.14
   0   5   1   14.50    0.77
   0   5   1   16.30    0.80
   0   5   1   14.23    0.97
  -1  -5  -1    1.58    0.15
  -1  -5  -1    1.85    0.19
   1   5   1    1.95    0.26
   1   5   1    1.59    0.13
   1   5   1    1.88    0.11
   1   5   1    1.98    0.11
   1   5   1    1.78    0.21
  -2  -5  -1    5.41    0.32
  -2  -5  -1    4.72    0.34
  -2  -5  -1    5.24    0.28
   2   5   1    5.09    0.28
   2   5   1    4.81    0.38
   2   5   1    4.67    0.45
   2   5   1    5.28    0.31
  -3  -5  -1    0.90    0.17
  -3  -5  -1    1.18    0.11
  -3  -5  -1    1.29    0.08
  -3  -5  -1    1.35    0.10
  -3  -5  -1    1.31    0.08
  -3  -5  -1    1.10    0.14
   3   5   1    1.22    0.20
   3   5   1    1.25    0.09
   3   5   1    1.12    0.15
  -4  -5  -1    5.68    0.32
  -4  -5  -1    5.64    0.32
  -4  -5  -1    5.87    0.35
  -4  -5  -1    5.91    0.38
   4   5   1    5.37    0.41
  -5  -5  -1    0.78    0.10
  -5  -5  -1    0.62    0.10
  -5  -5  -1    0.64    0.09
  -5  -5  -1    0.66    0.22
  -5  -5  -1    0.79    0.12
   3  -6  -1    1.49    0.31
   3  -6  -1    1.82    0.37
   3  -6  -1    1.62    0.28
  -3   6   1    1.73    0.21
  -3   6   1    1.80    0.21
  -3   6   1    1.45    0.26
   2  -6  -1    1.05    0.30
   2  -6  -1    0.87    0.19
   2  -6  -1    1.00    0.21
  -2   6   1    1.23    0.22
  -2   6   1    1.31    0.16
  -2   6   1    1.02    0.14
   1  -6  -1    0.66    0.14
   1  -6  -1    0.97    0.18
  -1   6   1    0.91    0.13
  -1   6   1    0.62    0.15
  -1   6   1    0.97    0.21
   0  -6  -1    0.44    0.13
   0  -6  -1    0.65    0.13
   0   6   1    0.70    0.10
   0   6   1    0.39    0.16
   0   6   1    0.63    0.09
   0   6   1    0.67    0.15
  -1  -6  -1   23.52    1.37
  -1  -6  -1   23.97    1.36
   1   6   1   23.24    1.19
   1   6   1   24.13    1.22
   1   6   1   23.61    1.76
   1   6   1   23.12    1.49
  -2  -6  -1    0.62    0.12
  -2  -6  -1    0.67    0.09
  -2  -6  -1    0.80    0.09
   2   6   1    0.76    0.18
   2   6   1    0.51    0.07
   2   6   1    0.62    0.14
  -3  -6  -1    0.80    0.10
  -3  -6  -1    1.00    0.09
  -3  -6  -1    0.87    0.14
   3   6   1    0.82    0.14
   3   6   1    0.73    0.20
   3   6   1    0.82    0.08
  -4  -6  -1    0.05    0.05
  -4  -6  -1    0.12    0.08
   4   6   1    0.12    0.09
   4   6   1    0.05    0.13
  -5  -6  -1    0.06    0.09
  -5  -6  -1    0.00    0.19
  -5  -6  -1    0.00    0.05
   3  -7  -1    0.00    0.16
   3  -7  -1    0.63    0.25
  -3   7   1    0.22    0.13
  -3   7   1    0.18    0.17
  -3   7   1    0.03    0.10
   2  -7  -1    0.42    0.16
   2  -7  -1    0.82    0.24
   2  -7  -1    1.10    0.35
  -2   7   1    0.81    0.16
  -2   7   1    0.54    0.12
  -2   7   1    0.63    0.18
   1  -7  -1    3.98    0.42
   1  -7  -1    4.60    0.38
  -1   7   1    4.26    0.42
  -1   7   1    4.66    0.32
  -1   7   1    5.31    0.50
  -1   7   1    4.72    0.31
   0  -7  -1    4.40    0.36
   0  -7  -1    3.94    0.33
   0   7   1    3.80    0.38
   0   7   1    3.73    0.44
   0   7   1    4.66    0.27
   0   7   1    4.11    0.28
  -1  -7  -1    0.99    0.17
  -1  -7  -1    0.98    0.14
   1   7   1    1.01    0.24
   1   7   1    1.03    0.12
   1   7   1    1.10    0.09
   1   7   1    0.92    0.19
  -2  -7  -1    3.86    0.32
  -2  -7  -1    4.00    0.28
   2   7   1    3.90    0.24
   2   7   1    4.01    0.35
   2   7   1    3.62    0.41
  -3  -7  -1    3.32    0.28
  -3  -7  -1    3.58    0.25
   3   7   1    3.22    0.42
   3   7   1    3.35    0.20
   3   7   1    4.01    0.34
  -4  -7  -1    7.36    0.55
  -4  -7  -1    9.14    0.53
   4   7   1    7.90    0.73
   4   7   1    9.66    0.62
  -5  -7  -1    1.56    0.38
  -5  -7  -1    1.89    0.23
   2  -8  -1    0.74    0.36
   2  -8  -1    0.61    0.22
   2  -8  -1    0.42    0.24
  -2   8   1    0.52    0.13
  -2   8   1    0.40    0.19
  -2   8   1    0.58    0.16
   1  -8  -1    0.15    0.14
   1  -8  -1    0.39    0.18
  -1   8   1    0.56    0.13
  -1   8   1    0.40    0.10
  -1   8   1    0.57    0.18
   0  -8  -1    3.07    0.34
   0  -8  -1    3.27    0.32
   0   8   1    1.88    0.30
   0   8   1    3.30    0.43
   0   8   1    2.70    0.24
  -1  -8  -1    0.62    0.16
  -1  -8  -1    0.67    0.15
   1   8   1    0.73    0.19
   1   8   1    0.69    0.22
   1   8   1    0.53    0.10
  -2  -8  -1    1.60    0.18
  -2  -8  -1    1.52    0.22
   2   8   1    1.34    0.14
   2   8   1    2.09    0.34
   2   8   1    1.55    0.25
  -3  -8  -1    6.68    0.48
  -3  -8  -1    6.24    0.43
   3   8   1    6.62    0.52
   3   8   1    6.48    0.63
  -4  -8  -1    0.91    0.18
   4   8   1    1.05    0.20
   4   8   1    0.96    0.27
  -5  -8  -1    1.08    0.19
   1  -9  -1    1.28    0.25
   1  -9  -1    1.46    0.32
  -1   9   1    1.36    0.20
  -1   9   1    1.17    0.27
   0  -9  -1    0.83    0.22
   0  -9  -1    0.70    0.19
   0   9   1    0.80    0.15
   0   9   1    1.11    0.31
   0   9   1    0.83    0.21
  -1  -9  -1    0.68    0.17
  -1  -9  -1    0.66    0.18
   1   9   1    0.72    0.21
   1   9   1    0.78    0.13
   1   9   1    1.01    0.29
  -2  -9  -1    0.17    0.11
  -2  -9  -1   -0.09    0.12
   2   9   1   -0.03    0.13
   2   9   1    0.12    0.18
  -3  -9  -1    1.32    0.22
   3   9   1    1.35    0.25
   3   9   1    1.99    0.36
  -4  -9  -1    8.88    0.62
   4   9   1    8.71    0.68
   4   9   1    9.00    0.84
  -2 -10  -1    0.69    0.22
   2  10   1    0.56    0.21
   2  10   1    1.01    0.33
  -3 -10  -1    0.66    0.21
   3  10   1    0.82    0.23
   4   9  -2    0.19    0.26
  -4  -9   2    0.09    0.10
  -4  -9   2    0.15    0.14
   3   9  -2    0.26    0.16
   3   9  -2    0.06    0.20
  -3  -9   2    0.20    0.12
  -3  -9   2    0.29    0.15
   2   9  -2    0.67    0.26
   2   9  -2    0.77    0.21
  -2  -9   2    0.79    0.19
  -2  -9   2    0.47    0.14
   1   9  -2    0.03    0.23
   1   9  -2    0.16    0.17
  -1  -9   2    0.42    0.14
  -1  -9   2    0.23    0.15
   0   9  -2    0.39    0.18
   0   9  -2    0.34    0.25
   0  -9   2    0.24    0.18
   0  -9   2    0.28    0.16
   5   8  -2    0.49    0.25
  -5  -8   2    0.32    0.15
  -5  -8   2    0.43    0.13
   4   8  -2    0.48    0.23
  -4  -8   2    0.56    0.15
  -4  -8   2    0.21    0.10
   3   8  -2    0.23    0.19
   3   8  -2    0.13    0.13
  -3  -8   2    0.21    0.10
  -3  -8   2    0.41    0.14
   2   8  -2    0.42    0.17
   2   8  -2    0.80    0.25
  -2  -8   2    0.63    0.13
  -2  -8   2    0.55    0.16
   1   8  -2    1.06    0.22
   1   8  -2    0.44    0.23
  -1  -8   2    0.69    0.15
  -1  -8   2    0.75    0.18
   0   8  -2    0.05    0.08
   0   8  -2    0.19    0.20
   0   8  -2   -0.05    0.14
   0  -8   2    0.11    0.11
   0  -8   2   -0.02    0.12
  -1   8  -2    0.33    0.18
  -1   8  -2    1.08    0.29
  -1   8  -2    0.68    0.14
   1  -8   2    0.63    0.16
   1  -8   2    0.68    0.20
   1  -8   2    0.47    0.16
   5   7  -2    0.12    0.19
  -5  -7   2    0.14    0.12
  -5  -7   2    0.07    0.08
   4   7  -2    0.02    0.17
   4   7  -2   -0.04    0.08
  -4  -7   2    0.14    0.11
  -4  -7   2    0.06    0.08
   3   7  -2    0.20    0.15
   3   7  -2    0.09    0.10
  -3  -7   2    0.14    0.11
  -3  -7   2    0.26    0.09
   2   7  -2    0.34    0.13
   2   7  -2    0.31    0.19
  -2  -7   2    0.50    0.11
  -2  -7   2    0.36    0.12
   1   7  -2    2.14    0.34
   1   7  -2    1.67    0.25
   1   7  -2    1.89    0.16
  -1  -7   2    1.99    0.15
  -1  -7   2    1.59    0.20
  -1  -7   2    1.86    0.23
   0   7  -2    0.29    0.15
   0   7  -2    0.27    0.20
   0   7  -2    0.42    0.09
   0  -7   2    0.16    0.10
   0  -7   2    0.47    0.14
   0  -7   2    0.16    0.07
  -1   7  -2    1.32    0.16
  -1   7  -2    1.29    0.28
  -1   7  -2    0.92    0.21
   1  -7   2    0.81    0.15
   1  -7   2    1.03    0.19
   1  -7   2    1.22    0.21
  -2   7  -2    0.01    0.20
  -2   7  -2   -0.07    0.12
  -2   7  -2    0.00    0.09
   2  -7   2    0.09    0.13
   2  -7   2    0.16    0.15
   2  -7   2    0.06    0.11
  -6  -6   2    0.54    0.13
   5   6  -2    0.98    0.23
  -5  -6   2    0.74    0.13
   4   6  -2    0.60    0.12
   4   6  -2    0.65    0.21
  -4  -6   2    0.64    0.07
  -4  -6   2    0.67    0.11
  -4  -6   2    0.53    0.13
   3   6  -2    8.30    0.72
   3   6  -2    8.28    0.59
  -3  -6   2    8.53    0.53
  -3  -6   2    8.77    0.45
  -3  -6   2    7.79    0.54
   2   6  -2    0.44    0.12
   2   6  -2    0.50    0.06
   2   6  -2    0.62    0.19
   2   6  -2    0.53    0.05
  -2  -6   2    0.65    0.12
  -2  -6   2    0.55    0.06
  -2  -6   2    0.52    0.11
   1   6  -2    4.04    0.35
   1   6  -2    3.05    0.39
   1   6  -2    3.86    0.23
  -1  -6   2    4.08    0.29
  -1  -6   2    3.43    0.30
  -1  -6   2    4.44    0.25
   0   6  -2    6.39    0.36
   0   6  -2    6.38    0.49
   0   6  -2    5.97    0.58
   0  -6   2    6.03    0.44
   0  -6   2    6.33    0.38
   0  -6   2    6.21    0.43
  -1   6  -2    0.53    0.14
  -1   6  -2    0.32    0.18
  -1   6  -2    0.38    0.09
   1  -6   2    0.29    0.10
   1  -6   2    0.34    0.13
   1  -6   2    0.31    0.12
  -2   6  -2    0.12    0.17
  -2   6  -2    0.03    0.07
  -2   6  -2    0.13    0.13
   2  -6   2    0.03    0.11
   2  -6   2    0.10    0.09
   2  -6   2    0.12    0.10
  -3   6  -2    9.65    0.58
  -3   6  -2    9.85    0.74
  -3   6  -2    9.79    0.82
   3  -6   2    8.80    0.68
   3  -6   2    9.73    0.64
   3  -6   2    8.03    0.67
   6   5  -2    1.86    0.23
  -6  -5   2    1.54    0.19
   5   5  -2   14.24    0.87
   5   5  -2   14.57    1.10
  -5  -5   2   13.70    0.86
  -5  -5   2   14.76    0.79
   4   5  -2    0.16    0.08
   4   5  -2    0.39    0.08
   4   5  -2    0.43    0.16
  -4  -5   2    0.44    0.09
  -4  -5   2    0.37    0.07
   3   5  -2    1.13    0.10
   3   5  -2    1.21    0.21
   3   5  -2    1.12    0.15
  -3  -5   2    1.17    0.13
  -3  -5   2    0.90    0.09
   2   5  -2    1.75    0.21
   2   5  -2    2.36    0.29
   2   5  -2    2.17    0.14
  -2  -5   2    1.74    0.16
  -2  -5   2    2.17    0.13
  -2  -5   2    2.17    0.19
   1   5  -2    0.28    0.13
   1   5  -2    0.25    0.05
   1   5  -2    0.17    0.09
   1   5  -2    0.28    0.05
  -1  -5   2    0.25    0.05
  -1  -5   2    0.20    0.08
  -1  -5   2    0.23    0.06
  -1  -5   2    0.22    0.07
   0   5  -2    3.24    0.28
   0   5  -2    3.00    0.33
   0   5  -2    3.00    0.20
   0  -5   2    3.05    0.24
   0  -5   2    3.33    0.22
   0  -5   2    3.20    0.26
  -1   5  -2    2.74    0.29
  -1   5  -2    2.78    0.34
  -1   5  -2    2.08    0.20
   1  -5   2    2.25    0.24
   1  -5   2    2.52    0.22
   1  -5   2    2.64    0.20
  -2   5  -2    0.92    0.14
  -2   5  -2    1.10    0.23
  -2   5  -2    1.21    0.21
   2  -5   2    0.81    0.14
   2  -5   2    1.27    0.20
   2  -5   2    0.78    0.16
  -3   5  -2    2.33    0.25
  -3   5  -2    2.57    0.33
  -3   5  -2    3.51    0.40
   3  -5   2    2.44    0.27
   3  -5   2    2.82    0.33
   3  -5   2    2.26    0.30
  -4   5  -2   14.81    0.98
  -4   5  -2   12.96    0.78
   4  -5   2   13.05    0.86
   4  -5   2   11.59    0.91
   4  -5   2   13.89    0.94
   6   4  -2    1.50    0.21
  -6  -4   2    1.23    0.17
  -6  -4   2    1.28    0.16
   5   4  -2    4.41    0.40
   5   4  -2    4.24    0.33
  -5  -4   2    4.28    0.29
  -5  -4   2    4.24    0.31
   4   4  -2   17.93    1.25
   4   4  -2   17.57    0.99
  -4  -4   2   16.86    0.82
  -4  -4   2   15.30    0.97
  -4  -4   2   17.79    0.90
  -4  -4   2   14.88    1.03
   3   4  -2    0.12    0.05
   3   4  -2    0.09    0.05
   3   4  -2    0.08    0.07
   3   4  -2    0.10    0.09
  -3  -4   2    0.04    0.05
  -3  -4   2    0.08    0.03
  -3  -4   2    0.05    0.06
   2   4  -2    6.42    0.41
   2   4  -2    5.96    0.53
   2   4  -2    6.56    0.35
   2   4  -2    5.94    0.43
  -2  -4   2    6.31    0.39
  -2  -4   2    6.64    0.44
  -2  -4   2    6.64    0.35
   1   4  -2    1.62    0.17
   1   4  -2    1.57    0.11
   1   4  -2    1.35    0.10
   1   4  -2    1.42    0.21
   1   4  -2    1.55    0.10
  -1  -4   2    1.49    0.16
  -1  -4   2    1.41    0.10
  -1  -4   2    1.41    0.13
   0   4  -2    3.26    0.20
   0   4  -2    3.45    0.34
   0   4  -2    3.65    0.29
   0  -4   2    3.32    0.24
   0  -4   2    3.32    0.21
   0  -4   2    3.24    0.25
  -1   4  -2    4.05    0.32
  -1   4  -2    4.02    0.37
  -1   4  -2    3.66    0.24
   1  -4   2    3.33    0.25
   1  -4   2    3.59    0.28
   1  -4   2    3.78    0.28
  -2   4  -2   49.30    2.37
  -2   4  -2   48.14    3.38
  -2   4  -2   45.61    2.90
   2  -4   2   47.92    2.50
   2  -4   2   46.65    2.70
   2  -4   2   47.22    2.66
  -3   4  -2   23.86    1.30
  -3   4  -2   25.90    1.83
  -3   4  -2   25.06    1.60
   3  -4   2   25.07    1.50
   3  -4   2   24.57    1.39
   3  -4   2   24.98    1.48
  -4   4  -2    0.20    0.11
  -4   4  -2    0.44    0.17
   4  -4   2    0.24    0.18
   4  -4   2    0.46    0.17
   4  -4   2   -0.01    0.11
   6   3  -2    0.35    0.23
   6   3  -2    0.45    0.15
  -6  -3   2    0.37    0.11
   5   3  -2   60.68    3.45
   5   3  -2   59.00    3.31
  -5  -3   2   60.65    2.91
  -5  -3   2   57.09    3.08
   4   3  -2   10.05    0.79
   4   3  -2   10.18    0.65
  -4  -3   2   10.44    0.54
  -4  -3   2   10.48    0.59
  -4  -3   2   10.96    0.54
   3   3  -2    9.44    0.56
   3   3  -2    8.94    0.70
   3   3  -2    9.56    0.58
  -3  -3   2    8.86    0.55
  -3  -3   2    9.14    0.46
  -3  -3   2    9.37    0.46
  -3  -3   2    9.01    0.51
  -3  -3   2    9.51    0.56
   2   3  -2    2.17    0.23
   2   3  -2    2.17    0.14
   2   3  -2    2.42    0.17
   2   3  -2    2.40    0.18
  -2  -3   2    2.03    0.14
  -2  -3   2    2.37    0.18
  -2  -3   2    2.19    0.16
   1   3  -2   37.09    2.08
   1   3  -2   37.32    1.82
   1   3  -2   37.09    1.93
   1   3  -2   36.50    2.25
   1   3  -2   36.00    2.66
   1   3  -2   37.88    1.82
  -1  -3   2   38.22    1.93
  -1  -3   2   38.25    2.26
  -1  -3   2   39.31    2.09
   0   3  -2    9.22    0.68
   0   3  -2    8.80    0.57
   0   3  -2    8.42    0.45
   0   3  -2    8.95    0.47
   0  -3   2    8.12    0.47
   0  -3   2    8.79    0.52
   0  -3   2    9.04    0.52
  -1   3  -2    1.55    0.14
  -1   3  -2    1.81    0.19
  -1   3  -2    1.90    0.22
   1  -3   2    2.00    0.15
   1  -3   2    1.94    0.16
   1  -3   2    1.22    0.15
  -2   3  -2    3.18    0.31
  -2   3  -2    2.88    0.27
  -2   3  -2    2.69    0.21
   2  -3   2    3.12    0.26
   2  -3   2    3.19    0.23
   2  -3   2    3.39    0.24
  -3   3  -2   15.96    1.02
  -3   3  -2   16.30    0.84
  -3   3  -2   15.99    1.16
   3  -3   2   14.89    0.89
   3  -3   2   14.27    0.94
   3  -3   2   15.63    0.97
  -4   3  -2    0.03    0.08
  -4   3  -2   -0.03    0.11
   4  -3   2    0.02    0.11
   4  -3   2    0.16    0.15
   4  -3   2    0.07    0.09
  -5   3  -2    1.57    0.21
  -5   3  -2    1.81    0.28
   5  -3   2    1.54    0.25
   5  -3   2    0.70    0.22
   6   2  -2    4.11    0.39
   6   2  -2    3.95    0.48
  -6  -2   2    3.21    0.27
  -6  -2   2    4.03    0.31
   5   2  -2    0.18    0.17
   5   2  -2    0.31    0.14
  -5  -2   2   -0.02    0.06
   4   2  -2   16.24    1.00
   4   2  -2   17.51    1.19
   4   2  -2   17.37    1.07
  -4  -2   2   16.98    0.84
  -4  -2   2   13.46    1.27
  -4  -2   2   16.69    0.90
   3   2  -2    6.70    0.49
   3   2  -2    6.47    0.35
   3   2  -2    6.61    0.44
   3   2  -2    6.48    0.50
  -3  -2   2    6.69    0.38
  -3  -2   2    6.48    0.58
  -3  -2   2    6.25    0.34
   2   2  -2   23.08    1.67
   2   2  -2   23.24    1.39
   2   2  -2   23.48    1.14
   2   2  -2   23.31    1.22
   2   2  -2   23.63    1.33
  -2  -2   2   24.18    1.40
  -2  -2   2   22.80    1.69
  -2  -2   2   24.14    1.22
  -2  -2   2   23.62    1.14
  -2  -2   2   22.92    1.32
   1   2  -2   17.30    0.91
   1   2  -2   17.15    0.85
   1   2  -2   17.66    1.26
   1   2  -2   18.25    0.98
   1   2  -2   16.97    1.05
   1   2  -2   17.08    0.99
  -1  -2   2   17.18    0.98
  -1  -2   2   16.48    0.99
  -1  -2   2   17.74    0.90
  -1  -2   2   17.63    0.85
  -1  -2   2   18.00    1.27
  -1  -2   2   17.70    1.06
   0   2  -2  106.14    6.13
   0   2  -2  102.89    5.69
   0   2  -2  104.61    5.01
   0   2  -2  103.18    5.01
   0   2  -2  102.48    7.21
   0   2  -2  105.43    5.28
   0  -2   2  105.08    7.22
   0  -2   2  104.16    5.70
   0  -2   2  103.27    5.28
   0  -2   2   98.40    5.64
   0  -2   2  108.55    6.14
   0  -2   2   98.60    5.64
  -1   2  -2   49.24    2.96
  -1   2  -2   50.07    3.47
  -1   2  -2   49.49    2.42
  -1   2  -2   50.44    2.71
   1  -2   2   49.91    2.72
   1  -2   2   48.80    2.55
   1  -2   2   49.07    3.48
   1  -2   2   48.70    2.75
  -2   2  -2   51.26    2.47
  -2   2  -2   51.11    2.76
  -2   2  -2   51.42    3.02
  -2   2  -2   51.56    3.52
   2  -2   2   48.90    3.53
   2  -2   2   49.23    2.81
   2  -2   2   48.66    2.76
   2  -2   2   49.01    2.61
  -3   2  -2    0.07    0.09
  -3   2  -2   -0.04    0.07
  -3   2  -2   -0.03    0.05
   3  -2   2    0.17    0.09
   3  -2   2    0.29    0.16
   3  -2   2    0.09    0.09
   3  -2   2    0.01    0.06
  -4   2  -2    0.00    0.10
  -4   2  -2   -0.02    0.07
   4  -2   2   -0.01    0.08
   4  -2   2    0.24    0.14
   4  -2   2    0.24    0.12
  -5   2  -2    1.10    0.18
  -5   2  -2    1.41    0.24
   5  -2   2    0.61    0.20
   5  -2   2    0.81    0.19
   6   1  -2   13.00    0.91
  -6  -1   2   13.78    0.82
  -6  -1   2   14.68    0.77
   5   1  -2    6.48    0.55
   5   1  -2    6.61    0.51
  -5  -1   2    7.35    0.41
  -5  -1   2    6.16    0.42
   4   1  -2    2.66    0.29
   4   1  -2    2.44    0.31
   4   1  -2    2.39    0.21
  -4  -1   2    2.81    0.30
  -4  -1   2    2.08    0.18
  -4  -1   2    2.40    0.17
   3   1  -2    3.09    0.19
   3   1  -2    2.82    0.24
   3   1  -2    2.72    0.30
   3   1  -2    3.22    0.26
  -3  -1   2    2.80    0.36
  -3  -1   2    2.90    0.18
  -3  -1   2    2.78    0.20
   2   1  -2   18.99    0.97
   2   1  -2   18.73    0.91
   2   1  -2   19.30    1.32
   2   1  -2   17.90    1.09
   2   1  -2   18.39    1.07
  -2  -1   2   18.07    0.90
  -2  -1   2   15.70    1.35
  -2  -1   2   19.19    1.09
  -2  -1   2   18.30    0.96
   1   1  -2  113.29    7.68
   1   1  -2  111.65    6.03
   1   1  -2  114.62    6.51
   1   1  -2  116.46    5.33
   1   1  -2  115.63    5.63
  -1  -1   2   96.02    6.52
  -1  -1   2  114.57    5.33
  -1  -1   2  108.67    6.03
  -1  -1   2  108.35    6.06
  -1  -1   2  106.44    5.62
  -1  -1   2  113.41    6.10
  -1  -1   2  103.09    7.69
   0   1  -2    0.00    0.02
   0   1  -2    0.04    0.02
   0   1  -2    0.09    0.07
   0   1  -2    0.06    0.02
   0   1  -2    0.04    0.05
   0   1  -2    0.02    0.04
   0  -1   2    0.00    0.02
   0  -1   2    0.06    0.03
   0  -1   2    0.01    0.09
   0  -1   2    0.05    0.02
   0  -1   2    0.03    0.04
   0  -1   2   -0.01    0.06
  -1   1  -2   30.40    1.49
  -1   1  -2   30.45    2.03
  -1   1  -2   29.37    1.61
  -1   1  -2   28.41    1.42
  -1   1  -2   31.09    1.75
   1  -1   2   26.94    1.77
   1  -1   2   29.34    1.50
   1  -1   2   28.32    1.61
   1  -1   2   28.92    1.58
   1  -1   2   23.91    2.04
   1  -1   2   28.87    1.58
  -2   1  -2    8.76    0.55
  -2   1  -2    8.00    0.59
  -2   1  -2    8.00    0.46
  -2   1  -2    8.50    0.44
   2  -1   2    8.33    0.47
   2  -1   2    7.68    0.46
   2  -1   2    7.99    0.49
   2  -1   2    6.61    0.62
  -3   1  -2    0.25    0.08
  -3   1  -2    0.23    0.07
  -3   1  -2    0.00    0.07
  -3   1  -2    0.14    0.06
   3  -1   2    0.13    0.08
   3  -1   2    0.16    0.09
   3  -1   2    0.53    0.17
   3  -1   2    0.23    0.08
  -4   1  -2   22.00    1.12
  -4   1  -2   21.53    1.35
   4  -1   2   21.23    1.26
   4  -1   2   20.24    1.29
   4  -1   2   21.79    1.21
  -5   1  -2    4.45    0.39
  -5   1  -2    4.14    0.31
   5  -1   2    3.89    0.42
   5  -1   2    4.51    0.37
  -6   1  -2    0.48    0.16
   6  -1   2    0.64    0.19
   6  -1   2    0.19    0.20
   6   0  -2    0.15    0.20
   6   0  -2   -0.02    0.21
  -6   0   2    0.11    0.10
  -6   0   2    0.13    0.10
   5   0  -2    0.45    0.19
   5   0  -2    0.65    0.20
  -5   0   2    0.67    0.12
  -5   0   2    0.51    0.11
   4   0  -2    0.13    0.14
   4   0  -2    0.62    0.17
   4   0  -2    0.22    0.14
  -4   0   2    0.38    0.08
  -4   0   2    0.17    0.07
  -4   0   2    0.35    0.08
   3   0  -2   13.31    0.89
   3   0  -2   14.24    0.89
   3   0  -2   14.19    0.87
   3   0  -2   13.74    1.04
  -3   0   2   14.42    0.86
  -3   0   2   13.53    0.77
  -3   0   2   13.51    0.73
  -3   0   2   16.27    1.06
   2   0  -2    0.27    0.05
   2   0  -2    0.29    0.10
   2   0  -2    0.16    0.10
   2   0  -2    0.28    0.14
   2   0  -2    0.33    0.04
  -2   0   2    0.33    0.15
  -2   0   2    0.33    0.05
  -2   0   2    0.17    0.11
  -2   0   2    0.24    0.05
  -2   0   2    0.33    0.05
   1   0  -2    5.43    0.35
   1   0  -2    5.47    0.37
   1   0  -2    5.17    0.37
   1   0  -2    4.29    0.47
   1   0  -2    5.43    0.29
   1   0  -2    5.25    0.31
  -1   0   2    5.18    0.35
  -1   0   2    5.22    0.31
  -1   0   2    5.50    0.29
  -1   0   2    4.56    0.49
  -1   0   2    5.52    0.38
   0   0  -2    7.34    0.70
   0   0  -2    9.24    0.51
   0   0  -2    7.47    0.60
   0   0  -2    8.79    0.45
   0   0  -2    8.70    0.53
   0   0  -2    9.32    0.48
   0   0   2    8.45    0.45
   0   0   2    8.70    0.53
   0   0   2    8.72    0.51
   0   0   2    9.04    0.48
   0   0   2    8.57    0.61
   0   0   2    7.17    0.71
  -1   0  -2   14.34    0.77
  -1   0  -2   14.66    0.72
  -1   0  -2   13.30    1.01
  -1   0  -2   13.78    0.89
  -1   0  -2   13.73    0.68
   1   0   2   13.95    0.68
   1   0   2   11.15    0.89
   1   0   2   14.46    0.75
   1   0   2   13.80    0.77
   1   0   2   11.25    1.02
   1   0   2   14.13    0.72
   1   0   2   13.55    0.75
  -2   0  -2   33.08    1.87
  -2   0  -2   30.79    1.69
  -2   0  -2   31.38    2.13
  -2   0  -2   31.50    1.65
  -2   0  -2   31.26    1.51
   2   0   2   31.32    1.70
   2   0   2   30.23    1.58
   2   0   2   31.37    1.66
   2   0   2   25.04    1.88
   2   0   2   25.53    2.15
  -3   0  -2    0.43    0.12
  -3   0  -2    0.63    0.07
  -3   0  -2    0.43    0.08
  -3   0  -2    0.55    0.08
   3   0   2    0.57    0.13
   3   0   2    0.36    0.10
   3   0   2    0.44    0.09
   3   0   2    0.45    0.10
  -4   0  -2    1.76    0.21
  -4   0  -2    1.83    0.18
  -4   0  -2    1.58    0.15
   4   0   2    1.72    0.19
   4   0   2    1.31    0.18
   4   0   2    1.47    0.21
  -5   0  -2    0.93    0.15
  -5   0  -2    1.51    0.20
   5   0   2    0.76    0.17
   5   0   2    0.99    0.21
  -6   0  -2    1.10    0.18
   6   0   2    1.00    0.22
   6   0   2    0.55    0.22
   6  -1  -2    1.20    0.33
  -6   1   2    1.98    0.24
  -6   1   2    2.32    0.25
   5  -1  -2    0.10    0.18
   5  -1  -2    0.23    0.19
  -5   1   2    0.11    0.08
  -5   1   2   -0.05    0.06
   4  -1  -2    8.39    0.66
   4  -1  -2    9.91    0.65
   4  -1  -2    8.38    0.63
  -4   1   2    8.34    0.49
  -4   1   2    8.65    0.52
  -4   1   2    8.45    0.57
   3  -1  -2    5.78    0.58
   3  -1  -2    6.85    0.50
   3  -1  -2    7.08    0.45
   3  -1  -2    6.87    0.49
  -3   1   2    6.77    0.40
  -3   1   2    6.26    0.38
  -3   1   2    6.98    0.45
   2  -1  -2   25.84    1.55
   2  -1  -2   26.17    1.55
   2  -1  -2   24.20    1.94
   2  -1  -2   28.13    1.61
  -2   1   2   30.48    1.92
  -2   1   2   27.24    1.33
  -2   1   2   24.32    1.40
  -2   1   2   26.91    1.61
   1  -1  -2  103.81    5.88
   1  -1  -2  106.13    6.29
   1  -1  -2   98.34    5.84
   1  -1  -2  110.26    5.44
   1  -1  -2  104.10    5.16
   1  -1  -2  103.73    7.44
  -1   1   2  102.01    5.44
  -1   1   2  102.80    6.29
  -1   1   2  113.80    5.89
  -1   1   2  103.17    5.16
  -1   1   2  119.42    7.44
  -1   1   2  111.87    5.85
   0  -1  -2   -0.16    0.03
   0  -1  -2   -0.09    0.06
   0  -1  -2   -0.17    0.03
   0  -1  -2   -0.14    0.04
   0  -1  -2   -0.21    0.09
   0  -1  -2   -0.19    0.02
   0   1   2   -0.10    0.10
   0   1   2   -0.16    0.03
   0   1   2   -0.16    0.02
   0   1   2   -0.13    0.04
   0   1   2   -0.13    0.06
   0   1   2   -0.16    0.03
  -1  -1  -2   48.73    3.30
  -1  -1  -2   54.82    2.64
  -1  -1  -2   55.56    2.97
  -1  -1  -2   56.15    2.99
  -1  -1  -2   55.36    2.78
  -1  -1  -2   49.99    3.83
  -1  -1  -2   54.91    3.24
   1   1   2   58.79    3.83
   1   1   2   54.01    2.64
   1   1   2   53.02    2.99
   1   1   2   54.79    2.78
   1   1   2   56.33    2.96
  -2  -1  -2   18.47    0.90
  -2  -1  -2   18.26    1.02
  -2  -1  -2   16.98    1.18
  -2  -1  -2   15.82    1.32
  -2  -1  -2   19.12    0.95
   2   1   2   18.08    0.96
   2   1   2   17.91    0.91
   2   1   2   19.27    1.31
   2   1   2   16.56    1.20
   2   1   2   19.27    1.03
  -3  -1  -2   10.83    0.59
  -3  -1  -2    9.81    0.81
  -3  -1  -2   11.42    0.61
  -3  -1  -2   11.40    0.76
   3   1   2   11.26    0.62
   3   1   2   11.45    0.67
   3   1   2   10.75    0.61
  -4  -1  -2   17.30    0.91
  -4  -1  -2   17.97    0.97
  -4  -1  -2   18.62    1.13
   4   1   2   16.37    0.97
   4   1   2   16.31    0.97
   4   1   2   17.69    1.06
  -5  -1  -2    2.22    0.22
  -5  -1  -2    2.94    0.29
   5   1   2    2.09    0.30
   5   1   2    2.29    0.27
  -6  -1  -2    0.28    0.11
   6   1   2    0.27    0.21
   6   1   2    0.15    0.14
   5  -2  -2    0.30    0.19
   5  -2  -2    0.61    0.23
  -5   2   2    0.30    0.11
  -5   2   2    0.22    0.11
   4  -2  -2    0.99    0.23
   4  -2  -2    0.63    0.18
   4  -2  -2    0.94    0.24
  -4   2   2    0.90    0.15
  -4   2   2    0.86    0.13
  -4   2   2    0.66    0.12
   3  -2  -2   11.38    0.74
   3  -2  -2   12.28    0.84
   3  -2  -2   10.05    0.74
   3  -2  -2   10.55    0.90
  -3   2   2   12.10    0.73
  -3   2   2   10.69    0.64
  -3   2   2   10.62    0.61
   2  -2  -2    0.33    0.08
   2  -2  -2    0.19    0.10
   2  -2  -2    0.36    0.16
   2  -2  -2    0.18    0.08
   2  -2  -2    0.28    0.12
  -2   2   2    0.24    0.07
  -2   2   2    0.17    0.05
  -2   2   2    0.19    0.06
   1  -2  -2   10.41    0.78
   1  -2  -2   10.19    0.64
   1  -2  -2    9.62    0.62
   1  -2  -2    9.98    0.61
   1  -2  -2    9.39    0.52
  -1   2   2    9.61    0.64
  -1   2   2    9.81    0.54
  -1   2   2   10.32    0.52
  -1   2   2   10.77    0.61
  -1   2   2   10.27    0.57
   0  -2  -2   16.62    0.98
   0  -2  -2   16.79    1.26
   0  -2  -2   16.71    0.86
   0  -2  -2   16.66    0.97
   0  -2  -2   18.05    0.89
   0  -2  -2   17.30    1.06
   0   2   2   15.88    1.05
   0   2   2   16.16    0.89
   0   2   2   16.35    0.85
   0   2   2   19.39    1.27
   0   2   2   17.32    0.97
   0   2   2   17.97    0.97
  -1  -2  -2    2.88    0.29
  -1  -2  -2    2.80    0.16
  -1  -2  -2    2.68    0.22
  -1  -2  -2    2.73    0.19
  -1  -2  -2    2.92    0.17
   1   2   2    2.67    0.18
   1   2   2    2.55    0.16
   1   2   2    2.66    0.21
   1   2   2    2.73    0.16
   1   2   2    3.42    0.29
  -2  -2  -2    3.18    0.19
  -2  -2  -2    3.42    0.19
  -2  -2  -2    3.25    0.19
  -2  -2  -2    3.25    0.25
  -2  -2  -2    3.21    0.20
  -2  -2  -2    2.73    0.36
  -2  -2  -2    3.31    0.32
  -2  -2  -2    3.30    0.28
  -2  -2  -2    3.21    0.20
   2   2   2    3.21    0.20
   2   2   2    3.33    0.19
   2   2   2    3.44    0.22
  -3  -2  -2    1.00    0.13
  -3  -2  -2    0.75    0.07
  -3  -2  -2    0.96    0.11
  -3  -2  -2    0.94    0.11
  -3  -2  -2    0.82    0.19
  -3  -2  -2    0.73    0.20
   3   2   2    0.72    0.12
   3   2   2    0.77    0.10
  -4  -2  -2    1.70    0.17
  -4  -2  -2    2.12    0.18
  -4  -2  -2    1.74    0.24
  -4  -2  -2    2.47    0.31
  -4  -2  -2    2.26    0.17
   4   2   2    2.04    0.24
   4   2   2    1.98    0.13
   4   2   2    2.07    0.20
  -5  -2  -2    0.60    0.17
  -5  -2  -2    0.46    0.10
   5   2   2    0.47    0.18
   5   2   2    0.55    0.13
  -6  -2  -2    0.05    0.10
   6   2   2    0.20    0.21
   6   2   2    0.07    0.12
   5  -3  -2    0.93    0.30
   5  -3  -2    0.78    0.25
  -5   3   2    1.53    0.21
  -5   3   2    1.37    0.19
   4  -3  -2    0.38    0.15
   4  -3  -2    0.34    0.18
  -4   3   2    0.28    0.10
  -4   3   2    0.21    0.12
  -4   3   2    0.01    0.08
   3  -3  -2    1.14    0.26
   3  -3  -2    1.24    0.25
   3  -3  -2    0.96    0.19
  -3   3   2    1.23    0.18
  -3   3   2    1.01    0.14
  -3   3   2    1.19    0.15
   2  -3  -2    7.77    0.56
   2  -3  -2    8.18    0.58
   2  -3  -2    9.01    0.71
  -2   3   2    8.67    0.58
  -2   3   2    8.39    0.49
  -2   3   2    8.84    0.48
   1  -3  -2    0.16    0.13
   1  -3  -2    0.13    0.09
   1  -3  -2    0.11    0.07
  -1   3   2    0.22    0.05
  -1   3   2    0.18    0.08
  -1   3   2    0.22    0.05
   0  -3  -2   14.46    0.70
   0  -3  -2   14.64    1.04
   0  -3  -2   13.15    0.79
   0  -3  -2   13.51    0.80
   0   3   2   12.98    0.71
   0   3   2   13.49    0.86
   0   3   2   13.18    0.69
   0   3   2   14.05    0.78
   0   3   2   13.76    0.73
  -1  -3  -2    0.58    0.16
  -1  -3  -2    1.19    0.10
  -1  -3  -2    0.92    0.13
  -1  -3  -2    1.03    0.06
  -1  -3  -2    0.89    0.08
  -1  -3  -2    1.06    0.16
  -1  -3  -2    0.84    0.11
   1   3   2    0.94    0.12
   1   3   2    0.93    0.06
   1   3   2    1.17    0.12
   1   3   2    0.87    0.07
   1   3   2    0.93    0.08
  -2  -3  -2   55.85    4.40
  -2  -3  -2   62.92    3.43
  -2  -3  -2   63.26    3.46
  -2  -3  -2   63.08    3.75
  -2  -3  -2   63.71    3.20
  -2  -3  -2   63.91    3.06
  -2  -3  -2   63.24    3.45
  -2  -3  -2   64.40    4.43
   2   3   2   64.28    3.05
   2   3   2   64.26    3.21
   2   3   2   62.26    3.75
  -3  -3  -2   53.80    3.64
  -3  -3  -2   50.04    2.81
  -3  -3  -2   47.07    3.18
  -3  -3  -2   51.74    3.61
  -3  -3  -2   51.33    2.64
  -3  -3  -2   49.87    2.85
   3   3   2   49.77    2.51
   3   3   2   56.36    2.87
   3   3   2   51.81    2.65
  -4  -3  -2    1.23    0.11
  -4  -3  -2    1.36    0.28
  -4  -3  -2    1.35    0.17
  -4  -3  -2    1.40    0.14
  -4  -3  -2    1.19    0.18
  -4  -3  -2    0.94    0.23
   4   3   2    1.16    0.14
   4   3   2    1.54    0.21
  -5  -3  -2    1.59    0.17
  -5  -3  -2    2.06    0.29
   5   3   2    1.28    0.19
   5   3   2    2.01    0.28
  -6  -3  -2    1.08    0.16
  -6  -3  -2    0.48    0.13
   6   3   2    1.06    0.27
   5  -4  -2    3.72    0.52
   5  -4  -2    4.72    0.55
  -5   4   2    4.76    0.36
  -5   4   2    4.66    0.37
   4  -4  -2    0.17    0.15
   4  -4  -2    0.08    0.19
  -4   4   2    0.14    0.14
  -4   4   2    0.06    0.08
  -4   4   2    0.04    0.08
   3  -4  -2    0.03    0.10
   3  -4  -2    0.34    0.19
   3  -4  -2    0.30    0.21
  -3   4   2    0.03    0.07
  -3   4   2    0.06    0.07
  -3   4   2   -0.01    0.10
   2  -4  -2    1.59    0.25
   2  -4  -2    1.84    0.24
   2  -4  -2    2.24    0.32
  -2   4   2    2.00    0.23
  -2   4   2    1.84    0.18
  -2   4   2    1.81    0.17
   1  -4  -2    0.08    0.08
   1  -4  -2    0.37    0.16
   1  -4  -2    0.36    0.12
  -1   4   2    0.12    0.06
  -1   4   2    0.12    0.07
  -1   4   2    0.15    0.05
   0  -4  -2   25.67    1.53
   0  -4  -2   27.14    1.54
   0  -4  -2   28.56    2.00
   0   4   2   26.33    1.35
   0   4   2   30.02    1.42
   0   4   2   25.18    1.66
   0   4   2   26.85    1.40
  -1  -4  -2    8.30    0.44
  -1  -4  -2    8.32    0.49
  -1  -4  -2    8.70    0.51
   1   4   2    8.07    0.44
   1   4   2    8.40    0.48
   1   4   2    7.92    0.56
   1   4   2    7.85    0.43
   1   4   2    8.38    0.44
  -2  -4  -2    1.53    0.12
  -2  -4  -2    1.57    0.25
  -2  -4  -2    1.57    0.15
  -2  -4  -2    1.40    0.10
   2   4   2    1.41    0.17
   2   4   2    1.41    0.10
   2   4   2    1.56    0.10
   2   4   2    1.33    0.09
  -3  -4  -2    0.47    0.08
  -3  -4  -2    0.43    0.05
  -3  -4  -2    0.45    0.16
  -3  -4  -2    0.40    0.09
  -3  -4  -2    0.50    0.05
  -3  -4  -2    0.37    0.08
   3   4   2    0.54    0.07
   3   4   2    0.56    0.07
   3   4   2    0.43    0.10
  -4  -4  -2    0.96    0.09
  -4  -4  -2    1.00    0.16
  -4  -4  -2    0.49    0.23
  -4  -4  -2    0.69    0.12
  -4  -4  -2    0.76    0.22
  -4  -4  -2    0.84    0.11
   4   4   2    0.55    0.11
  -5  -4  -2    2.93    0.41
  -5  -4  -2    2.80    0.21
  -5  -4  -2    2.80    0.22
   5   4   2    2.66    0.32
  -6  -4  -2    3.21    0.25
  -6  -4  -2    3.00    0.25
   4  -5  -2    1.73    0.35
   4  -5  -2    1.24    0.26
  -4   5   2    0.95    0.17
  -4   5   2    0.92    0.17
  -4   5   2    1.50    0.27
   3  -5  -2    0.47    0.22
   3  -5  -2    0.85    0.28
   3  -5  -2    0.60    0.18
  -3   5   2    0.62    0.13
  -3   5   2    0.54    0.12
  -3   5   2    0.62    0.18
   2  -5  -2   12.10    0.78
   2  -5  -2   10.94    0.78
   2  -5  -2   11.09    0.97
  -2   5   2   10.71    0.64
  -2   5   2   13.12    0.82
  -2   5   2   11.69    0.67
   1  -5  -2    0.29    0.19
   1  -5  -2    0.39    0.11
   1  -5  -2    0.59    0.15
  -1   5   2    0.43    0.09
  -1   5   2    0.50    0.08
  -1   5   2    0.66    0.14
   0  -5  -2    0.44    0.10
   0  -5  -2    0.30    0.10
   0   5   2    0.50    0.12
   0   5   2    0.60    0.07
   0   5   2    0.39    0.08
   0   5   2    0.37    0.08
  -1  -5  -2    2.17    0.22
  -1  -5  -2    2.33    0.18
   1   5   2    2.19    0.28
   1   5   2    2.55    0.14
   1   5   2    2.39    0.17
   1   5   2    2.19    0.13
   1   5   2    1.92    0.15
   1   5   2    2.42    0.25
  -2  -5  -2    0.20    0.05
  -2  -5  -2    0.25    0.08
   2   5   2    0.23    0.05
   2   5   2    0.09    0.07
   2   5   2    0.26    0.05
  -3  -5  -2    0.83    0.13
  -3  -5  -2    0.66    0.11
  -3  -5  -2    0.81    0.06
  -3  -5  -2    0.78    0.08
  -3  -5  -2    0.85    0.05
  -3  -5  -2    1.20    0.24
   3   5   2    0.69    0.08
   3   5   2    0.70    0.13
  -4  -5  -2    4.02    0.29
  -4  -5  -2    4.31    0.48
  -4  -5  -2    4.13    0.25
  -4  -5  -2    4.27    0.26
   4   5   2    4.19    0.25
   4   5   2    4.38    0.34
  -5  -5  -2    1.23    0.35
  -5  -5  -2    1.58    0.32
  -5  -5  -2    2.02    0.18
  -5  -5  -2    2.00    0.16
  -5  -5  -2    2.09    0.18
   3  -6  -2    1.74    0.38
   3  -6  -2    1.21    0.29
   3  -6  -2    1.35    0.27
  -3   6   2    1.70    0.20
  -3   6   2    1.85    0.22
  -3   6   2    1.39    0.26
   2  -6  -2    1.83    0.30
   2  -6  -2    2.05    0.40
   2  -6  -2    2.03    0.27
  -2   6   2    2.57    0.31
  -2   6   2    2.88    0.21
  -2   6   2    1.81    0.21
   1  -6  -2    5.74    0.43
   1  -6  -2    5.76    0.45
   1  -6  -2    5.05    0.57
  -1   6   2    5.66    0.46
  -1   6   2    5.86    0.35
  -1   6   2    5.83    0.36
   0  -6  -2   17.21    1.08
   0  -6  -2   17.50    1.07
   0   6   2   18.60    0.95
   0   6   2   18.14    0.94
   0   6   2   18.15    1.18
  -1  -6  -2    0.55    0.13
  -1  -6  -2    0.83    0.12
   1   6   2    1.00    0.21
   1   6   2    0.78    0.16
   1   6   2    0.90    0.11
   1   6   2    0.74    0.06
  -2  -6  -2    2.05    0.15
  -2  -6  -2    1.59    0.19
   2   6   2    1.56    0.21
   2   6   2    1.71    0.14
   2   6   2    1.95    0.28
  -3  -6  -2    9.38    0.61
  -3  -6  -2    9.54    0.62
  -3  -6  -2    9.71    0.57
   3   6   2   10.43    0.51
   3   6   2   10.11    0.68
  -4  -6  -2    6.33    0.38
  -4  -6  -2    6.50    0.42
  -4  -6  -2    6.75    0.64
   4   6   2    6.07    0.35
   4   6   2    6.28    0.47
  -5  -6  -2    5.90    0.70
  -5  -6  -2    6.04    0.61
  -5  -6  -2    5.49    0.39
   3  -7  -2    0.29    0.20
   3  -7  -2    0.07    0.29
   3  -7  -2    0.36    0.23
  -3   7   2    0.03    0.12
  -3   7   2    0.10    0.10
  -3   7   2    0.09    0.18
   2  -7  -2    8.76    0.90
   2  -7  -2    8.32    0.67
   2  -7  -2    9.50    0.73
  -2   7   2    9.45    0.57
  -2   7   2    9.68    0.57
  -2   7   2   10.35    0.74
   1  -7  -2   -0.17    0.19
   1  -7  -2    0.08    0.11
   1  -7  -2    0.22    0.17
  -1   7   2    0.14    0.07
  -1   7   2    0.17    0.12
  -1   7   2    0.22    0.09
   0  -7  -2    1.95    0.22
   0  -7  -2    1.55    0.23
   0   7   2    1.58    0.13
   0   7   2    0.96    0.20
   0   7   2    2.03    0.18
  -1  -7  -2    2.67    0.28
  -1  -7  -2    2.32    0.22
   1   7   2    2.60    0.20
   1   7   2    3.27    0.40
   1   7   2    2.79    0.16
   1   7   2    2.67    0.31
  -2  -7  -2    4.14    0.29
  -2  -7  -2    3.54    0.31
   2   7   2    4.19    0.44
   2   7   2    4.70    0.38
   2   7   2    3.89    0.25
  -3  -7  -2    1.72    0.21
  -3  -7  -2    1.77    0.15
   3   7   2    1.57    0.13
   3   7   2    1.41    0.22
  -4  -7  -2    0.94    0.16
  -4  -7  -2    1.13    0.32
   4   7   2    0.86    0.17
  -5  -7  -2    2.25    0.40
  -5  -7  -2    1.88    0.22
   5   7   2    1.70    0.24
   2  -8  -2    1.31    0.41
   2  -8  -2    1.45    0.28
   2  -8  -2    1.39    0.34
  -2   8   2    1.56    0.30
  -2   8   2    2.13    0.25
  -2   8   2    1.41    0.19
   1  -8  -2    0.15    0.18
   1  -8  -2    0.02    0.13
   1  -8  -2    0.10    0.29
  -1   8   2    0.35    0.12
  -1   8   2    0.13    0.08
  -1   8   2    0.23    0.15
   0  -8  -2    2.92    0.35
   0  -8  -2    3.30    0.33
   0  -8  -2    3.45    0.53
   0   8   2    2.83    0.25
   0   8   2    2.84    0.36
  -1  -8  -2    1.36    0.23
  -1  -8  -2    2.12    0.23
   1   8   2    2.08    0.19
   1   8   2    1.98    0.29
  -2  -8  -2    0.19    0.12
  -2  -8  -2    0.13    0.10
   2   8   2    0.19    0.07
   2   8   2    0.59    0.17
  -3  -8  -2    2.31    0.26
   3   8   2    2.13    0.28
  -4  -8  -2    1.77    0.23
  -4  -8  -2    2.04    0.44
   4   8   2    1.69    0.25
  -5  -8  -2    3.86    0.60
  -5  -8  -2    3.11    0.33
   5   8   2    3.73    0.35
   1  -9  -2    0.23    0.24
   1  -9  -2    0.13    0.34
   1  -9  -2    0.12    0.16
  -1   9   2    0.16    0.13
  -1   9   2    0.18    0.18
   0  -9  -2    0.93    0.39
   0  -9  -2    0.35    0.19
   0  -9  -2    1.34    0.23
   0   9   2    0.74    0.21
   0   9   2    0.45    0.12
  -1  -9  -2    0.13    0.15
  -1  -9  -2    0.10    0.11
   1   9   2    0.06    0.08
   1   9   2    0.25    0.16
  -2  -9  -2    3.46    0.30
  -2  -9  -2    3.20    0.36
   2   9   2    3.70    0.42
  -3  -9  -2   -0.04    0.11
   3   9   2    0.21    0.15
  -4  -9  -2    0.31    0.15
  -4  -9  -2   -0.19    0.30
   4   9   2    0.16    0.14
  -2 -10  -2    0.63    0.20
  -2 -10  -2    0.48    0.39
   2  10   2    0.57    0.23
  -3 -10  -2    0.31    0.17
  -3 -10  -2    0.43    0.41
   3  10   2    0.22    0.17
   3   9  -3   -0.04    0.25
   3   9  -3    0.34    0.16
  -3  -9   3   -0.07    0.12
  -3  -9   3    0.09    0.11
   2   9  -3    0.90    0.24
   2   9  -3    0.84    0.31
  -2  -9   3    0.83    0.21
  -2  -9   3    0.61    0.16
   1   9  -3    1.47    0.29
   1   9  -3    1.68    0.37
  -1  -9   3    1.58    0.27
  -1  -9   3    0.89    0.20
  -5  -8   3    2.23    0.25
  -5  -8   3    2.11    0.28
   4   8  -3    0.42    0.23
  -4  -8   3    0.30    0.15
  -4  -8   3    0.07    0.10
   3   8  -3    0.77    0.19
   3   8  -3    1.60    0.33
  -3  -8   3    0.82    0.16
  -3  -8   3    0.83    0.18
   2   8  -3    0.28    0.21
   2   8  -3    0.23    0.15
  -2  -8   3    0.33    0.12
  -2  -8   3    0.38    0.14
   1   8  -3    0.25    0.22
   1   8  -3    0.23    0.17
  -1  -8   3    0.20    0.14
  -1  -8   3    0.04    0.11
   0   8  -3    3.28    0.41
   0   8  -3    3.59    0.26
   0   8  -3    4.28    0.54
   0  -8   3    4.13    0.38
   0  -8   3    2.81    0.35
  -1   8  -3    0.58    0.21
  -1   8  -3    0.80    0.30
  -1   8  -3    0.27    0.12
   1  -8   3    0.47    0.17
   1  -8   3    0.42    0.18
   1  -8   3    0.63    0.15
   5   7  -3    0.22    0.23
  -5  -7   3    0.01    0.11
  -5  -7   3    0.15    0.09
   4   7  -3    0.03    0.19
  -4  -7   3    0.02    0.08
  -4  -7   3   -0.01    0.10
   3   7  -3    2.77    0.31
   3   7  -3    3.03    0.41
  -3  -7   3    2.66    0.24
  -3  -7   3    3.36    0.29
   2   7  -3    1.69    0.24
   2   7  -3    1.40    0.30
  -2  -7   3    2.12    0.22
  -2  -7   3    1.57    0.22
   1   7  -3    0.14    0.11
   1   7  -3    0.15    0.16
   1   7  -3    0.05    0.05
  -1  -7   3    0.07    0.10
  -1  -7   3    0.15    0.09
  -1  -7   3    0.05    0.06
   0   7  -3    0.02    0.16
   0   7  -3    0.10    0.08
   0   7  -3   -0.06    0.11
   0  -7   3   -0.02    0.06
   0  -7   3   -0.06    0.07
   0  -7   3    0.05    0.11
  -1   7  -3    1.95    0.36
  -1   7  -3    1.31    0.25
  -1   7  -3    1.39    0.18
   1  -7   3    1.35    0.18
   1  -7   3    1.47    0.22
   1  -7   3    1.42    0.24
  -2   7  -3    0.25    0.11
  -2   7  -3    0.03    0.15
  -2   7  -3    0.25    0.22
   2  -7   3    0.02    0.09
   2  -7   3    0.15    0.14
   2  -7   3    0.03    0.14
   6   6  -3    0.10    0.13
  -6  -6   3   -0.02    0.09
   5   6  -3    3.76    0.44
   5   6  -3    3.53    0.34
  -5  -6   3    3.22    0.27
   4   6  -3   26.87    1.96
  -4  -6   3   26.29    1.38
  -4  -6   3   25.90    1.52
   3   6  -3   27.09    2.03
   3   6  -3   26.70    1.69
  -3  -6   3   25.68    1.58
  -3  -6   3   28.32    1.57
  -3  -6   3   28.59    1.42
   2   6  -3    1.73    0.22
   2   6  -3    1.56    0.10
   2   6  -3    1.68    0.28
  -2  -6   3    2.07    0.20
  -2  -6   3    1.39    0.19
  -2  -6   3    1.69    0.13
   1   6  -3    2.77    0.18
   1   6  -3    2.95    0.31
   1   6  -3    3.33    0.37
  -1  -6   3    2.66    0.20
  -1  -6   3    2.99    0.26
  -1  -6   3    2.85    0.24
   0   6  -3    1.40    0.14
   0   6  -3    1.49    0.27
   0   6  -3    1.22    0.21
   0  -6   3    1.07    0.13
   0  -6   3    1.42    0.19
   0  -6   3    1.19    0.17
  -1   6  -3    0.23    0.09
  -1   6  -3    0.31    0.14
  -1   6  -3    0.32    0.19
   1  -6   3    0.32    0.12
   1  -6   3    0.22    0.09
   1  -6   3    0.40    0.12
  -2   6  -3    0.03    0.12
  -2   6  -3    0.08    0.08
  -2   6  -3   -0.03    0.18
   2  -6   3    0.15    0.11
   2  -6   3    0.27    0.13
   2  -6   3    0.20    0.10
  -3   6  -3    0.09    0.16
  -3   6  -3    0.28    0.22
  -3   6  -3    0.29    0.12
   3  -6   3    0.08    0.17
   3  -6   3    0.04    0.12
   3  -6   3    0.12    0.15
   6   5  -3    5.37    0.41
  -6  -5   3    4.86    0.38
   5   5  -3    1.13    0.22
   5   5  -3    1.26    0.19
  -5  -5   3    1.23    0.16
  -5  -5   3    1.15    0.13
   4   5  -3    5.47    0.48
   4   5  -3    4.53    0.36
  -4  -5   3    4.68    0.29
  -4  -5   3    4.84    0.34
   3   5  -3   21.70    1.33
   3   5  -3   22.17    1.26
   3   5  -3   21.38    1.61
  -3  -5   3   21.86    1.13
  -3  -5   3   20.85    1.24
   2   5  -3    4.32    0.43
   2   5  -3    4.43    0.34
  -2  -5   3    4.40    0.25
  -2  -5   3    3.88    0.31
  -2  -5   3    4.54    0.30
   1   5  -3    1.48    0.11
   1   5  -3    1.68    0.12
   1   5  -3    1.55    0.19
   1   5  -3    1.15    0.24
  -1  -5   3    1.30    0.12
  -1  -5   3    1.34    0.17
  -1  -5   3    1.53    0.17
   0   5  -3    0.22    0.14
   0   5  -3    0.11    0.06
   0   5  -3   -0.02    0.08
   0  -5   3    0.10    0.05
   0  -5   3    0.14    0.08
   0  -5   3    0.06    0.08
  -1   5  -3    0.35    0.09
  -1   5  -3    0.58    0.14
  -1   5  -3    0.41    0.17
   1  -5   3    0.33    0.11
   1  -5   3    0.40    0.09
   1  -5   3    0.36    0.10
  -2   5  -3    1.31    0.16
  -2   5  -3    1.53    0.23
  -2   5  -3    1.24    0.26
   2  -5   3    1.18    0.19
   2  -5   3    0.91    0.15
   2  -5   3    1.36    0.19
  -3   5  -3    4.92    0.34
  -3   5  -3    5.11    0.49
  -3   5  -3    3.89    0.45
   3  -5   3    3.88    0.42
   3  -5   3    4.38    0.39
   3  -5   3    5.10    0.38
  -4   5  -3    1.37    0.29
  -4   5  -3    1.57    0.23
   4  -5   3    1.73    0.31
   4  -5   3    1.80    0.27
   6   4  -3    1.56    0.24
  -6  -4   3    1.75    0.19
  -6  -4   3    1.94    0.22
   5   4  -3    6.92    0.51
   5   4  -3    7.21    0.61
  -5  -4   3    7.54    0.44
  -5  -4   3    7.45    0.48
   4   4  -3   60.99    4.51
   4   4  -3   65.90    3.57
  -4  -4   3   64.76    3.30
  -4  -4   3   64.35    3.57
   3   4  -3    5.81    0.49
   3   4  -3    5.84    0.39
   3   4  -3    5.51    0.38
  -3  -4   3    5.46    0.37
  -3  -4   3    5.45    0.33
  -3  -4   3    5.93    0.39
   2   4  -3    6.12    0.41
   2   4  -3    5.90    0.42
   2   4  -3    5.86    0.52
  -2  -4   3    6.35    0.39
  -2  -4   3    6.27    0.34
   1   4  -3    2.21    0.20
   1   4  -3    2.11    0.27
   1   4  -3    2.25    0.14
  -1  -4   3    2.16    0.18
  -1  -4   3    2.24    0.18
  -1  -4   3    2.00    0.14
   0   4  -3   12.80    1.01
   0   4  -3   13.84    0.68
   0   4  -3   12.49    0.85
   0  -4   3   13.19    0.78
   0  -4   3   13.56    0.79
   0  -4   3   13.09    0.72
  -1   4  -3    2.02    0.23
  -1   4  -3    1.76    0.16
  -1   4  -3    1.75    0.26
   1  -4   3    1.85    0.20
   1  -4   3    1.89    0.16
   1  -4   3    1.78    0.19
  -2   4  -3    0.42    0.10
  -2   4  -3    0.40    0.16
  -2   4  -3    0.35    0.12
   2  -4   3    0.21    0.09
   2  -4   3    0.55    0.12
   2  -4   3    0.42    0.12
  -3   4  -3    5.69    0.44
  -3   4  -3    5.32    0.35
  -3   4  -3    4.96    0.47
   3  -4   3    4.63    0.38
   3  -4   3    4.15    0.38
   3  -4   3    4.54    0.36
  -4   4  -3    1.39    0.20
  -4   4  -3    1.22    0.25
   4  -4   3    0.75    0.18
   4  -4   3    1.02    0.25
   4  -4   3    1.79    0.27
   6   3  -3    1.61    0.36
   6   3  -3    1.71    0.26
  -6  -3   3    1.64    0.19
   5   3  -3    0.21    0.13
  -5  -3   3   -0.06    0.05
  -5  -3   3   -0.01    0.06
   4   3  -3    3.91    0.36
   4   3  -3    4.44    0.33
  -4  -3   3    3.95    0.29
  -4  -3   3    4.08    0.23
  -4  -3   3    3.81    0.26
   3   3  -3    9.45    0.45
   3   3  -3    9.16    0.55
   3   3  -3    9.33    0.71
   3   3  -3    9.45    0.59
  -3  -3   3    8.14    0.58
  -3  -3   3    9.12    0.45
  -3  -3   3    9.04    0.55
  -3  -3   3    8.89    0.50
   2   3  -3   53.63    2.99
   2   3  -3   53.37    2.77
   2   3  -3   54.90    3.80
   2   3  -3   53.34    3.20
  -2  -3   3   54.60    3.22
  -2  -3   3   53.95    2.77
  -2  -3   3   53.52    2.99
   1   3  -3    1.72    0.11
   1   3  -3    1.82    0.16
   1   3  -3    1.89    0.13
   1   3  -3    1.87    0.12
   1   3  -3    2.00    0.23
   1   3  -3    1.62    0.16
  -1  -3   3    1.94    0.12
  -1  -3   3    1.69    0.14
  -1  -3   3    1.89    0.20
   0   3  -3    8.34    0.55
   0   3  -3    8.26    0.44
   0   3  -3    8.05    0.43
   0   3  -3    8.22    0.65
   0  -3   3    8.50    0.50
   0  -3   3    7.88    0.45
   0  -3   3    8.16    0.50
  -1   3  -3    2.58    0.27
  -1   3  -3    2.93    0.19
  -1   3  -3    2.22    0.23
   1  -3   3    2.41    0.18
   1  -3   3    2.51    0.20
   1  -3   3    2.90    0.21
  -2   3  -3    3.77    0.26
  -2   3  -3    3.88    0.36
  -2   3  -3    3.76    0.32
   2  -3   3    3.57    0.27
   2  -3   3    3.67    0.29
   2  -3   3    3.94    0.27
  -3   3  -3    3.70    0.27
  -3   3  -3    3.72    0.33
  -3   3  -3    3.59    0.35
   3  -3   3    2.88    0.28
   3  -3   3    3.83    0.29
   3  -3   3    3.39    0.30
  -4   3  -3    0.01    0.08
  -4   3  -3   -0.02    0.11
   4  -3   3    0.22    0.11
   4  -3   3    0.24    0.13
   4  -3   3    0.32    0.16
  -5   3  -3   -0.01    0.11
  -5   3  -3   -0.04    0.15
   5  -3   3    0.68    0.22
   5  -3   3   -0.02    0.11
   6   2  -3    9.06    0.84
   6   2  -3   11.35    0.75
  -6  -2   3   11.40    0.67
   5   2  -3   26.05    1.56
  -5  -2   3   26.17    1.32
  -5  -2   3   26.14    1.41
   4   2  -3    8.30    0.62
   4   2  -3    7.61    0.61
   4   2  -3    8.17    0.57
  -4  -2   3    7.91    0.47
  -4  -2   3    8.15    0.44
   3   2  -3   12.40    0.60
   3   2  -3   11.06    0.74
   3   2  -3   11.77    0.89
  -3  -2   3   11.57    0.65
  -3  -2   3   12.24    0.60
   2   2  -3   22.10    1.31
   2   2  -3   22.81    1.35
   2   2  -3   23.82    1.11
   2   2  -3   25.01    1.64
  -2  -2   3   22.21    1.18
  -2  -2   3   19.08    1.38
  -2  -2   3   23.02    1.11
  -2  -2   3   23.05    1.28
   1   2  -3   10.18    0.52
   1   2  -3    9.47    0.58
   1   2  -3    9.27    0.60
   1   2  -3    9.56    0.74
   1   2  -3    9.61    0.48
  -1  -2   3    9.29    0.51
  -1  -2   3    8.80    0.63
  -1  -2   3    9.89    0.48
  -1  -2   3    9.77    0.56
   0   2  -3   12.87    0.67
   0   2  -3   11.32    0.63
   0   2  -3   13.32    0.94
   0   2  -3   12.57    0.73
   0   2  -3   13.20    0.80
   0  -2   3   12.28    0.73
   0  -2   3   12.00    0.83
   0  -2   3   12.94    0.64
   0  -2   3   12.38    0.67
   0  -2   3   12.91    0.73
  -1   2  -3    4.44    0.26
  -1   2  -3    4.33    0.36
  -1   2  -3    4.13    0.33
   1  -2   3    4.04    0.28
   1  -2   3    4.49    0.28
   1  -2   3    4.22    0.26
   1  -2   3    4.17    0.28
  -2   2  -3    0.23    0.09
  -2   2  -3    0.07    0.06
  -2   2  -3    0.16    0.09
   2  -2   3    0.15    0.06
   2  -2   3    0.19    0.07
   2  -2   3    0.19    0.06
  -3   2  -3   -0.03    0.10
  -3   2  -3    0.24    0.11
  -3   2  -3    0.00    0.06
   3  -2   3    0.01    0.07
   3  -2   3    0.15    0.09
   3  -2   3    0.13    0.09
  -4   2  -3    0.10    0.09
  -4   2  -3    0.10    0.12
   4  -2   3    0.15    0.12
   4  -2   3    0.25    0.14
   4  -2   3   -0.02    0.08
  -5   2  -3    2.11    0.24
  -5   2  -3    2.27    0.31
   5  -2   3    2.27    0.29
   5  -2   3    1.79    0.30
   6   1  -3    1.24    0.33
   6   1  -3    1.04    0.26
  -6  -1   3    1.07    0.17
  -6  -1   3    0.93    0.15
   5   1  -3    0.27    0.19
   5   1  -3    0.47    0.20
  -5  -1   3    0.47    0.10
  -5  -1   3    0.59    0.12
   4   1  -3    0.26    0.09
   4   1  -3    0.43    0.17
   4   1  -3    0.24    0.15
  -4  -1   3    0.34    0.07
  -4  -1   3    0.25    0.07
  -4  -1   3    0.41    0.24
   3   1  -3    2.40    0.27
   3   1  -3    1.95    0.22
   3   1  -3    2.01    0.27
  -3  -1   3    1.66    0.13
  -3  -1   3    2.08    0.37
  -3  -1   3    2.01    0.15
   2   1  -3   44.57    2.15
   2   1  -3   45.88    2.61
   2   1  -3   44.23    2.61
   2   1  -3   44.14    2.48
   2   1  -3   43.40    3.13
   2   1  -3   43.85    2.52
  -2  -1   3   43.33    2.15
  -2  -1   3   43.28    2.28
   1   1  -3   44.80    2.25
   1   1  -3   44.55    2.62
   1   1  -3   45.51    2.43
   1   1  -3   44.81    2.12
   1   1  -3   44.56    3.11
  -1  -1   3   44.26    2.25
  -1  -1   3   39.20    2.64
  -1  -1   3   43.59    2.44
  -1  -1   3   37.17    3.12
  -1  -1   3   45.01    2.47
  -1  -1   3   45.86    2.42
  -1  -1   3   43.57    2.12
   0   1  -3    0.06    0.03
   0   1  -3    0.00    0.04
   0   1  -3    0.04    0.02
   0   1  -3    0.05    0.03
   0   1  -3    0.15    0.10
   0   1  -3    0.00    0.06
   0  -1   3    0.06    0.02
   0  -1   3    0.07    0.03
   0  -1   3    0.04    0.06
   0  -1   3    0.11    0.03
   0  -1   3    0.02    0.12
   0  -1   3   -0.08    0.09
  -1   1  -3   71.38    3.95
  -1   1  -3   75.62    4.30
  -1   1  -3   74.04    5.02
   1  -1   3   68.76    3.91
   1  -1   3   71.24    3.67
   1  -1   3   72.65    3.90
   1  -1   3   68.32    3.48
   1  -1   3   71.47    3.95
  -2   1  -3    1.47    0.19
  -2   1  -3    1.40    0.14
  -2   1  -3    1.25    0.17
   2  -1   3    1.05    0.11
   2  -1   3    1.13    0.10
   2  -1   3    0.96    0.12
   2  -1   3    0.86    0.23
   2  -1   3    1.28    0.14
  -3   1  -3    2.55    0.23
  -3   1  -3    2.51    0.21
  -3   1  -3    2.25    0.25
  -3   1  -3    2.10    0.16
   3  -1   3    2.60    0.20
   3  -1   3    2.15    0.23
   3  -1   3    2.43    0.22
   3  -1   3    1.63    0.32
  -4   1  -3    0.41    0.10
  -4   1  -3    0.47    0.14
  -4   1  -3    0.48    0.11
   4  -1   3    0.22    0.11
   4  -1   3    0.35    0.13
   4  -1   3    0.47    0.12
  -5   1  -3    0.30    0.15
  -5   1  -3    0.16    0.11
   5  -1   3    0.51    0.18
   5  -1   3    0.19    0.12
  -6   1  -3    0.05    0.11
   6  -1   3   -0.03    0.14
   6  -1   3    0.30    0.21
   6   0  -3    2.68    0.42
   6   0  -3    3.11    0.41
  -6   0   3    2.53    0.28
  -6   0   3    3.39    0.29
   5   0  -3    1.56    0.29
   5   0  -3    2.08    0.33
  -5   0   3    1.34    0.16
  -5   0   3    1.61    0.19
   4   0  -3   -0.14    0.11
   4   0  -3    0.15    0.11
   4   0  -3    0.12    0.15
  -4   0   3    0.09    0.06
  -4   0   3   -0.01    0.05
  -4   0   3   -0.01    0.05
   3   0  -3    9.59    0.64
   3   0  -3    9.29    0.56
   3   0  -3    9.08    0.74
   3   0  -3    8.59    0.63
  -3   0   3    8.43    0.52
  -3   0   3    9.27    0.49
  -3   0   3   10.66    0.80
  -3   0   3    8.92    0.56
   2   0  -3    2.52    0.33
   2   0  -3    2.23    0.25
   2   0  -3    2.44    0.17
   2   0  -3    2.10    0.15
   2   0  -3    2.17    0.26
  -2   0   3    2.52    0.15
  -2   0   3    2.12    0.16
  -2   0   3    2.62    0.36
  -2   0   3    2.21    0.16
   1   0  -3    2.16    0.25
   1   0  -3    2.93    0.26
   1   0  -3    2.37    0.21
   1   0  -3    2.24    0.33
   1   0  -3    2.50    0.16
   1   0  -3    2.38    0.18
   1   0  -3    2.58    0.15
  -1   0   3    2.38    0.15
  -1   0   3    2.47    0.15
  -1   0   3    2.83    0.26
  -1   0   3    2.44    0.34
  -1   0   3    2.46    0.24
   0   0  -3   77.29    3.51
   0   0  -3   76.48    3.98
   0   0  -3   75.80    3.98
   0   0  -3   67.78    4.35
   0   0  -3   64.87    5.11
   0   0  -3   77.13    3.70
   0   0   3   66.02    4.36
   0   0   3   60.55    5.11
   0   0   3   73.21    3.98
   0   0   3   76.51    3.70
   0   0   3   74.74    3.98
   0   0   3   74.94    3.51
  -1   0  -3    8.87    0.49
  -1   0  -3    7.35    0.70
  -1   0  -3    9.73    0.50
  -1   0  -3    7.88    0.62
  -1   0  -3    9.10    0.46
  -1   0  -3    8.80    0.44
   1   0   3    8.54    0.47
   1   0   3    8.97    0.45
   1   0   3    8.99    0.50
   1   0   3    7.99    0.50
   1   0   3    6.86    0.71
   1   0   3    7.61    0.64
  -2   0  -3    0.24    0.12
  -2   0  -3    0.23    0.05
  -2   0  -3    0.21    0.12
   2   0   3    0.19    0.04
   2   0   3    0.29    0.04
   2   0   3    0.38    0.20
   2   0   3    0.33    0.06
   2   0   3    0.26    0.05
   2   0   3    0.15    0.05
  -3   0  -3    0.67    0.11
  -3   0  -3    0.86    0.13
  -3   0  -3    0.87    0.17
   3   0   3    0.82    0.11
   3   0   3    0.92    0.13
   3   0   3    0.67    0.11
   3   0   3    1.13    0.24
  -4   0  -3   13.19    0.91
  -4   0  -3   13.38    0.88
  -4   0  -3   13.42    0.71
   4   0   3   12.39    0.75
   4   0   3   12.81    0.81
   4   0   3   11.78    0.74
  -5   0  -3    1.67    0.20
  -5   0  -3    2.70    0.29
   5   0   3    1.46    0.25
   5   0   3    1.64    0.23
  -6   0  -3    0.14    0.11
   6   0   3   -0.06    0.17
   6   0   3    0.06    0.14
   6  -1  -3    0.73    0.29
   6  -1  -3    0.89    0.29
  -6   1   3    1.49    0.20
  -6   1   3    0.72    0.15
   5  -1  -3    0.28    0.18
   5  -1  -3    0.53    0.23
  -5   1   3    0.08    0.09
  -5   1   3    0.09    0.08
   4  -1  -3   10.98    0.77
   4  -1  -3   11.28    0.78
   4  -1  -3   10.10    0.86
  -4   1   3   10.05    0.63
  -4   1   3   11.76    0.71
  -4   1   3   11.18    0.60
   3  -1  -3   20.03    1.16
   3  -1  -3   14.86    1.43
   3  -1  -3   17.94    1.17
   3  -1  -3   17.76    1.17
  -3   1   3   22.35    1.42
  -3   1   3   19.39    1.16
  -3   1   3   18.37    1.02
  -3   1   3   19.24    0.97
   2  -1  -3    2.37    0.34
   2  -1  -3    2.19    0.24
   2  -1  -3    2.37    0.19
   2  -1  -3    2.15    0.26
  -2   1   3    2.12    0.16
  -2   1   3    1.98    0.16
  -2   1   3    2.91    0.33
  -2   1   3    2.24    0.18
   1  -1  -3   65.35    3.24
   1  -1  -3   59.18    3.50
   1  -1  -3   65.87    3.07
   1  -1  -3   54.23    4.47
   1  -1  -3   64.27    3.75
   1  -1  -3   61.40    3.52
  -1   1   3   65.53    3.51
  -1   1   3   62.53    3.07
  -1   1   3   63.32    3.74
  -1   1   3   63.24    3.23
  -1   1   3   68.70    4.48
   0  -1  -3    5.49    0.56
   0  -1  -3    5.83    0.40
   0  -1  -3    6.56    0.34
   0  -1  -3    6.14    0.33
   0  -1  -3    6.18    0.41
   0  -1  -3    6.17    0.39
   0   1   3    6.70    0.42
   0   1   3    6.79    0.39
   0   1   3    6.06    0.56
   0   1   3    6.23    0.33
   0   1   3    5.75    0.40
   0   1   3    6.09    0.34
  -1  -1  -3    0.00    0.14
  -1  -1  -3   -0.03    0.02
  -1  -1  -3    0.01    0.04
  -1  -1  -3   -0.02    0.01
  -1  -1  -3    0.03    0.05
  -1  -1  -3    0.02    0.02
  -1  -1  -3   -0.07    0.12
   1   1   3   -0.01    0.02
   1   1   3    0.04    0.02
   1   1   3    0.05    0.15
   1   1   3    0.02    0.02
   1   1   3    0.02    0.05
  -2  -1  -3    6.87    0.68
  -2  -1  -3    8.46    0.47
  -2  -1  -3    7.34    0.63
   2   1   3    8.09    0.43
   2   1   3    8.36    0.47
   2   1   3    8.12    0.67
   2   1   3    8.03    0.45
  -3  -1  -3    3.05    0.24
  -3  -1  -3    3.83    0.41
   3   1   3    4.12    0.36
   3   1   3    3.49    0.25
   3   1   3    3.59    0.26
  -4  -1  -3    0.20    0.14
  -4  -1  -3    0.18    0.08
  -4  -1  -3    0.16    0.07
   4   1   3    0.30    0.11
   4   1   3    0.14    0.08
  -5  -1  -3    3.44    0.29
  -5  -1  -3    4.25    0.37
   5   1   3    4.12    0.41
   5   1   3    4.33    0.33
  -6  -1  -3    1.04    0.18
   6   1   3    0.89    0.21
   6   1   3    1.08    0.26
   5  -2  -3    3.26    0.46
   5  -2  -3    3.86    0.46
  -5   2   3    3.25    0.30
  -5   2   3    3.87    0.30
   4  -2  -3    6.45    0.53
   4  -2  -3    5.53    0.53
   4  -2  -3    5.76    0.63
  -4   2   3    6.93    0.47
  -4   2   3    7.00    0.41
  -4   2   3    6.12    0.41
   3  -2  -3    1.34    0.30
   3  -2  -3    1.40    0.22
   3  -2  -3    1.70    0.26
  -3   2   3    1.17    0.14
  -3   2   3    1.78    0.18
  -3   2   3    1.55    0.16
   2  -2  -3    4.73    0.37
   2  -2  -3    4.68    0.39
   2  -2  -3    5.44    0.51
  -2   2   3    4.85    0.30
  -2   2   3    4.72    0.29
  -2   2   3    5.01    0.35
   1  -2  -3   12.25    0.77
   1  -2  -3   10.75    0.95
   1  -2  -3   12.07    0.73
   1  -2  -3   10.55    0.74
  -1   2   3   11.99    0.63
  -1   2   3   12.10    0.65
  -1   2   3   14.92    0.97
  -1   2   3   12.11    0.76
   0  -2  -3    3.08    0.35
   0  -2  -3    3.30    0.20
   0  -2  -3    3.22    0.19
   0  -2  -3    2.94    0.23
   0  -2  -3    3.33    0.26
   0   2   3    3.19    0.20
   0   2   3    3.17    0.24
   0   2   3    3.70    0.23
   0   2   3    3.38    0.19
   0   2   3    3.49    0.26
   0   2   3    3.83    0.36
  -1  -2  -3   18.01    0.93
  -1  -2  -3   17.51    1.01
  -1  -2  -3   17.82    0.90
  -1  -2  -3   17.27    1.34
  -1  -2  -3   18.39    1.11
   1   2   3   16.82    0.89
   1   2   3   16.38    1.10
   1   2   3   18.85    1.34
   1   2   3   17.75    0.92
   1   2   3   17.79    0.98
   1   2   3   18.56    1.00
   1   2   3   18.89    0.99
  -2  -2  -3    1.11    0.26
  -2  -2  -3    1.14    0.24
  -2  -2  -3    1.20    0.11
  -2  -2  -3    1.17    0.09
  -2  -2  -3    1.21    0.09
   2   2   3    1.14    0.10
   2   2   3    1.38    0.22
   2   2   3    1.34    0.09
   2   2   3    1.16    0.10
   2   2   3    1.02    0.10
  -3  -2  -3    3.24    0.41
  -3  -2  -3    3.39    0.23
  -3  -2  -3    3.53    0.43
   3   2   3    3.44    0.23
   3   2   3    3.73    0.22
   3   2   3    3.42    0.25
  -4  -2  -3    9.00    0.70
  -4  -2  -3    8.73    0.50
  -4  -2  -3    7.26    0.72
  -4  -2  -3    8.90    0.66
   4   2   3    9.14    0.53
   4   2   3    9.80    0.59
  -5  -2  -3    0.01    0.16
  -5  -2  -3   -0.03    0.08
   5   2   3    0.04    0.14
   5   2   3    0.16    0.10
  -6  -2  -3    0.15    0.10
   6   2   3    0.30    0.20
   6   2   3    0.22    0.14
   5  -3  -3    0.11    0.17
   5  -3  -3    0.38    0.25
  -5   3   3    0.04    0.10
  -5   3   3    0.07    0.08
   4  -3  -3   10.98    0.88
  -4   3   3   13.64    0.75
  -4   3   3   12.05    0.71
  -4   3   3   13.28    0.86
   3  -3  -3    0.40    0.16
   3  -3  -3    0.31    0.23
   3  -3  -3    0.33    0.17
  -3   3   3    0.24    0.08
  -3   3   3    0.49    0.12
  -3   3   3    0.33    0.09
   2  -3  -3    1.00    0.24
   2  -3  -3    1.18    0.22
   2  -3  -3    0.91    0.17
  -2   3   3    1.21    0.16
  -2   3   3    1.10    0.13
  -2   3   3    0.78    0.11
   1  -3  -3    0.13    0.11
   1  -3  -3    0.04    0.07
   1  -3  -3    0.19    0.16
  -1   3   3    0.06    0.04
  -1   3   3    0.02    0.04
  -1   3   3    0.14    0.07
   0  -3  -3   16.83    1.03
   0  -3  -3   19.19    1.37
   0  -3  -3   17.48    1.05
   0  -3  -3   18.90    0.94
   0   3   3   17.18    0.91
   0   3   3   17.56    0.94
   0   3   3   17.58    1.12
   0   3   3   19.29    1.03
  -1  -3  -3   14.06    0.82
  -1  -3  -3   13.96    0.72
  -1  -3  -3   14.44    0.73
  -1  -3  -3   12.97    0.79
  -1  -3  -3   13.85    1.09
   1   3   3   14.37    0.81
   1   3   3   14.09    0.72
   1   3   3   14.65    0.78
   1   3   3   14.13    0.89
   1   3   3   14.21    0.73
  -2  -3  -3   26.23    1.47
  -2  -3  -3   27.51    1.95
  -2  -3  -3   26.98    1.36
   2   3   3   26.93    1.46
   2   3   3   25.86    1.37
   2   3   3   26.04    1.31
   2   3   3   25.21    1.62
  -3  -3  -3    5.33    0.31
  -3  -3  -3    5.26    0.51
  -3  -3  -3    4.29    0.53
  -3  -3  -3    4.88    0.30
  -3  -3  -3    5.17    0.30
   3   3   3    4.89    0.29
   3   3   3    5.69    0.34
   3   3   3    5.06    0.31
  -4  -3  -3   10.08    0.87
  -4  -3  -3   10.55    0.93
  -4  -3  -3   11.36    0.64
  -4  -3  -3   10.86    0.62
  -4  -3  -3   11.13    0.66
  -4  -3  -3   11.53    0.84
   4   3   3   10.95    0.64
   4   3   3   12.32    0.71
  -5  -3  -3    1.35    0.16
  -5  -3  -3    1.34    0.29
   5   3   3    1.07    0.17
   5   3   3    1.35    0.23
  -6  -3  -3    0.30    0.11
   6   3   3    0.03    0.11
  -5   4   3    2.25    0.27
  -5   4   3    2.33    0.26
   4  -4  -3    0.53    0.24
   4  -4  -3    0.68    0.21
  -4   4   3    0.58    0.14
  -4   4   3    0.69    0.14
  -4   4   3    0.87    0.20
   3  -4  -3    0.31    0.14
   3  -4  -3    0.66    0.20
   3  -4  -3    0.33    0.26
  -3   4   3    0.24    0.08
  -3   4   3    0.26    0.09
  -3   4   3    0.42    0.14
   2  -4  -3    6.72    0.64
   2  -4  -3    6.36    0.48
   2  -4  -3    6.33    0.52
  -2   4   3    6.85    0.41
  -2   4   3    6.72    0.40
  -2   4   3    7.15    0.50
   1  -4  -3   55.31    3.27
   1  -4  -3   59.54    3.28
   1  -4  -3   59.87    4.18
  -1   4   3   59.10    3.01
  -1   4   3   58.26    3.52
  -1   4   3   57.77    2.87
   0  -4  -3   21.07    1.25
   0  -4  -3   20.73    1.23
   0  -4  -3   22.32    1.61
   0   4   3   22.94    1.22
   0   4   3   20.68    1.08
   0   4   3   19.93    1.33
   0   4   3   22.56    1.14
   0   4   3   20.56    1.11
  -1  -4  -3    4.92    0.46
  -1  -4  -3    4.73    0.32
  -1  -4  -3    4.05    0.28
  -1  -4  -3    4.82    0.25
   1   4   3    4.20    0.34
   1   4   3    4.54    0.25
   1   4   3    4.32    0.26
   1   4   3    4.76    0.27
  -2  -4  -3    0.61    0.10
  -2  -4  -3    0.65    0.05
  -2  -4  -3    0.46    0.17
   2   4   3    0.53    0.05
   2   4   3    0.82    0.12
   2   4   3    0.82    0.10
   2   4   3    0.59    0.07
  -3  -4  -3    2.30    0.17
  -3  -4  -3    2.09    0.15
  -3  -4  -3    2.41    0.17
  -3  -4  -3    2.35    0.14
  -3  -4  -3    2.22    0.14
  -3  -4  -3    2.45    0.33
   3   4   3    2.33    0.16
   3   4   3    2.21    0.22
   3   4   3    2.09    0.15
  -4  -4  -3    0.06    0.04
  -4  -4  -3    0.21    0.23
  -4  -4  -3    0.22    0.22
  -4  -4  -3    0.00    0.05
   4   4   3    0.04    0.05
   4   4   3    0.16    0.06
  -5  -4  -3    2.74    0.45
  -5  -4  -3    2.40    0.23
   5   4   3    2.61    0.26
   5   4   3    2.92    0.31
  -6  -4  -3    0.86    0.15
   4  -5  -3    0.64    0.24
   4  -5  -3    0.74    0.28
  -4   5   3    0.69    0.22
  -4   5   3    0.92    0.17
  -4   5   3    0.96    0.17
   3  -5  -3    1.69    0.29
   3  -5  -3    1.56    0.39
   3  -5  -3    0.81    0.21
  -3   5   3    1.92    0.26
  -3   5   3    1.58    0.18
  -3   5   3    1.37    0.18
   2  -5  -3    2.33    0.33
   2  -5  -3    3.64    0.47
   2  -5  -3    2.69    0.31
  -2   5   3    2.95    0.32
  -2   5   3    3.05    0.23
  -2   5   3    2.80    0.22
   1  -5  -3   18.52    1.22
   1  -5  -3   20.04    1.57
   1  -5  -3   20.39    1.21
  -1   5   3   19.73    1.29
  -1   5   3   20.62    1.08
  -1   5   3   21.19    1.05
   0  -5  -3    4.84    0.35
   0  -5  -3    4.77    0.51
   0  -5  -3    4.05    0.37
   0   5   3    5.49    0.40
   0   5   3    5.16    0.29
   0   5   3    5.10    0.31
   0   5   3    5.53    0.32
  -1  -5  -3   21.64    1.63
  -1  -5  -3   20.07    1.24
  -1  -5  -3   21.12    1.22
   1   5   3   23.81    1.12
   1   5   3   20.22    1.08
   1   5   3   21.44    1.10
   1   5   3   19.48    1.34
   1   5   3   22.42    1.20
  -2  -5  -3    0.07    0.04
  -2  -5  -3    0.00    0.14
  -2  -5  -3    0.06    0.07
   2   5   3    0.14    0.03
   2   5   3    0.11    0.05
   2   5   3    0.24    0.09
  -3  -5  -3    0.64    0.21
  -3  -5  -3    0.32    0.07
  -3  -5  -3    0.57    0.05
  -3  -5  -3    0.57    0.10
  -3  -5  -3    0.61    0.05
   3   5   3    0.51    0.12
   3   5   3    0.59    0.08
   3   5   3    0.52    0.06
  -4  -5  -3    0.15    0.22
  -4  -5  -3    0.01    0.03
  -4  -5  -3    0.10    0.07
   4   5   3    0.07    0.07
   4   5   3    0.00    0.05
  -5  -5  -3    0.15    0.08
  -5  -5  -3    0.34    0.29
  -5  -5  -3    0.53    0.26
   3  -6  -3    0.86    0.27
   3  -6  -3    0.69    0.32
   3  -6  -3    0.49    0.21
  -3   6   3    0.63    0.14
  -3   6   3    0.94    0.22
  -3   6   3    0.77    0.16
   2  -6  -3    0.17    0.14
   2  -6  -3    0.45    0.28
   2  -6  -3   -0.07    0.14
  -2   6   3    0.12    0.09
  -2   6   3    0.03    0.07
  -2   6   3    0.01    0.13
   1  -6  -3   13.33    1.15
   1  -6  -3   13.56    0.88
   1  -6  -3   13.27    0.91
  -1   6   3   13.56    0.94
  -1   6   3   14.27    0.76
  -1   6   3   13.94    0.75
   0  -6  -3    3.32    0.35
   0  -6  -3    4.69    0.55
   0  -6  -3    3.64    0.30
   0   6   3    3.64    0.34
   0   6   3    4.11    0.24
   0   6   3    3.96    0.27
  -1  -6  -3    0.12    0.19
  -1  -6  -3    0.01    0.10
  -1  -6  -3    0.03    0.07
   1   6   3    0.07    0.09
   1   6   3    0.09    0.04
   1   6   3    0.05    0.03
   1   6   3    0.10    0.06
  -2  -6  -3    1.15    0.12
  -2  -6  -3    1.18    0.17
  -2  -6  -3    1.25    0.28
   2   6   3    1.37    0.13
   2   6   3    1.27    0.10
   2   6   3    1.05    0.18
  -3  -6  -3   23.39    1.35
  -3  -6  -3   23.75    1.80
  -3  -6  -3   23.98    1.31
   3   6   3   23.11    1.48
   3   6   3   23.03    1.17
  -4  -6  -3    0.20    0.22
  -4  -6  -3    0.05    0.08
   4   6   3    0.14    0.10
   4   6   3    0.16    0.06
  -5  -6  -3    0.23    0.32
  -5  -6  -3    0.21    0.25
   3  -7  -3    0.40    0.22
   3  -7  -3    0.35    0.27
   3  -7  -3    0.53    0.37
  -3   7   3    0.09    0.10
  -3   7   3    0.36    0.20
  -3   7   3    0.24    0.15
   2  -7  -3    0.42    0.33
   2  -7  -3    0.59    0.19
   2  -7  -3    0.85    0.25
  -2   7   3    0.43    0.17
  -2   7   3    0.49    0.13
  -2   7   3    0.46    0.12
   1  -7  -3    4.01    0.58
   1  -7  -3    4.25    0.38
   1  -7  -3    3.66    0.43
  -1   7   3    4.07    0.30
  -1   7   3    4.48    0.29
  -1   7   3    4.13    0.44
   0  -7  -3    0.30    0.26
   0  -7  -3    0.03    0.09
   0  -7  -3    0.06    0.12
   0   7   3    0.18    0.13
   0   7   3    0.10    0.07
   0   7   3    0.12    0.05
  -1  -7  -3    7.99    0.54
  -1  -7  -3    7.12    0.73
  -1  -7  -3    7.33    0.49
   1   7   3    7.40    0.40
   1   7   3    8.29    0.59
   1   7   3    7.02    0.43
  -2  -7  -3   -0.01    0.07
  -2  -7  -3    0.05    0.10
  -2  -7  -3    0.05    0.20
   2   7   3    0.06    0.06
   2   7   3    0.13    0.12
  -3  -7  -3    0.06    0.23
  -3  -7  -3    0.08    0.10
   3   7   3    0.18    0.06
   3   7   3    0.27    0.12
  -4  -7  -3    1.65    0.20
  -4  -7  -3    2.05    0.39
   4   7   3    1.61    0.23
   4   7   3    1.56    0.14
  -5  -7  -3    0.39    0.28
   2  -8  -3    1.11    0.42
   2  -8  -3    1.17    0.32
   2  -8  -3    0.82    0.25
  -2   8   3    0.85    0.15
  -2   8   3    0.78    0.23
  -2   8   3    0.85    0.18
   1  -8  -3    0.51    0.18
   1  -8  -3    0.79    0.36
   1  -8  -3    0.97    0.26
  -1   8   3    0.63    0.20
  -1   8   3    0.43    0.13
  -1   8   3    0.54    0.11
   0  -8  -3    2.99    0.51
   0  -8  -3    1.75    0.29
   0  -8  -3    2.17    0.28
   0   8   3    2.59    0.33
   0   8   3    2.17    0.22
  -1  -8  -3    9.64    0.61
  -1  -8  -3    9.86    0.92
  -1  -8  -3    9.18    0.65
   1   8   3    8.66    0.70
   1   8   3    8.97    0.53
  -2  -8  -3    0.15    0.22
  -2  -8  -3    0.13    0.12
  -2  -8  -3    0.08    0.09
   2   8   3    0.17    0.07
   2   8   3    0.16    0.13
  -3  -8  -3    0.57    0.28
  -3  -8  -3    0.13    0.12
   3   8   3    0.30    0.08
   3   8   3    0.27    0.14
  -4  -8  -3    0.40    0.15
  -4  -8  -3    0.64    0.33
   4   8   3    0.53    0.17
  -5  -8  -3    0.14    0.30
   5   8   3    0.09    0.13
  -1   9   3    0.31    0.14
   0  -9  -3    0.48    0.36
   0  -9  -3    0.15    0.14
   0  -9  -3    0.20    0.20
   0   9   3    0.04    0.10
   0   9   3    0.24    0.18
  -1  -9  -3    9.35    0.91
  -1  -9  -3    7.96    0.57
  -1  -9  -3    7.33    0.60
   1   9   3    7.67    0.48
   1   9   3    8.70    0.67
  -2  -9  -3    3.88    0.61
  -2  -9  -3    4.22    0.42
   2   9   3    4.82    0.48
   2   9   3    3.72    0.27
  -3  -9  -3    1.06    0.21
  -3  -9  -3    1.63    0.44
   3   9   3    0.71    0.20
  -4  -9  -3    0.56    0.36
  -4  -9  -3    0.13    0.14
   4   9   3    0.31    0.17
  -2 -10  -3   -0.05    0.32
  -2 -10  -3   -0.12    0.17
   2  10   3    0.16    0.18
  -3 -10  -3    0.43    0.38
  -3 -10  -3    0.06    0.15
   3  10   3    0.33    0.18
   2   9  -4    6.62    0.71
   2   9  -4    5.58    0.56
  -2  -9   4    7.05    0.50
  -2  -9   4    5.73    0.51
   4   8  -4    0.35    0.27
  -4  -8   4    0.63    0.15
  -4  -8   4    0.27    0.14
   3   8  -4    0.46    0.16
   3   8  -4    0.60    0.27
  -3  -8   4    0.53    0.14
  -3  -8   4    0.35    0.16
   2   8  -4    1.51    0.34
   2   8  -4    1.54    0.25
  -2  -8   4    1.01    0.20
  -2  -8   4    1.72    0.22
   1   8  -4   11.38    1.03
   1   8  -4   12.61    0.89
  -1  -8   4   11.81    0.78
  -1  -8   4   11.98    0.80
   0   8  -4    0.98    0.24
   0   8  -4    0.84    0.30
   0  -8   4    0.96    0.21
   0  -8   4    0.78    0.18
  -1   8  -4    0.56    0.24
  -1   8  -4    0.41    0.29
  -1   8  -4    0.15    0.11
   1  -8   4    0.23    0.14
   1  -8   4    0.67    0.20
   1  -8   4    0.57    0.20
   5   7  -4    0.02    0.21
  -5  -7   4    0.02    0.11
  -5  -7   4    0.11    0.10
   4   7  -4    0.29    0.23
  -4  -7   4    0.00    0.11
  -4  -7   4    0.26    0.10
   3   7  -4   18.82    1.47
   3   7  -4   18.94    1.21
  -3  -7   4   18.53    1.13
  -3  -7   4   18.00    1.11
   2   7  -4   18.93    1.57
   2   7  -4   21.26    1.32
  -2  -7   4   18.94    1.20
  -2  -7   4   20.98    1.08
  -2  -7   4   20.54    1.22
   1   7  -4    0.65    0.23
   1   7  -4    0.51    0.16
  -1  -7   4    0.81    0.15
  -1  -7   4    0.76    0.17
  -1  -7   4    0.68    0.11
   0   7  -4    0.98    0.13
   0   7  -4    0.97    0.26
   0   7  -4    0.90    0.21
   0  -7   4    0.77    0.17
   0  -7   4    0.88    0.17
   0  -7   4    1.19    0.15
  -1   7  -4   -0.01    0.12
  -1   7  -4    0.08    0.09
  -1   7  -4   -0.04    0.22
   1  -7   4   -0.04    0.12
   1  -7   4    0.16    0.12
   1  -7   4    0.14    0.10
  -2   7  -4    0.11    0.12
  -2   7  -4    0.02    0.14
  -2   7  -4    0.11    0.25
   2  -7   4    0.17    0.16
   2  -7   4    0.10    0.12
   2  -7   4    0.12    0.14
   5   6  -4    0.33    0.21
   5   6  -4    0.45    0.15
  -5  -6   4    0.35    0.10
   4   6  -4    0.02    0.16
   4   6  -4    0.04    0.10
  -4  -6   4    0.07    0.05
  -4  -6   4   -0.01    0.07
   3   6  -4    2.21    0.33
   3   6  -4    2.02    0.23
  -3  -6   4    1.95    0.14
  -3  -6   4    1.76    0.20
   2   6  -4   19.76    1.49
   2   6  -4   19.51    1.23
  -2  -6   4   20.16    1.02
  -2  -6   4   17.91    1.14
  -2  -6   4   18.49    1.13
   1   6  -4    0.38    0.13
   1   6  -4    0.30    0.18
   1   6  -4    0.13    0.06
  -1  -6   4    0.28    0.11
  -1  -6   4    0.24    0.10
  -1  -6   4    0.23    0.07
   0   6  -4    1.69    0.24
   0   6  -4    1.69    0.16
   0   6  -4    1.45    0.30
   0  -6   4    1.68    0.21
   0  -6   4    1.60    0.22
   0  -6   4    1.62    0.17
  -1   6  -4    0.21    0.13
  -1   6  -4   -0.04    0.15
  -1   6  -4    0.17    0.09
   1  -6   4    0.17    0.10
   1  -6   4    0.04    0.07
   1  -6   4    0.04    0.08
  -2   6  -4    0.18    0.21
  -2   6  -4    0.13    0.15
  -2   6  -4    0.12    0.11
   2  -6   4    0.18    0.10
   2  -6   4    0.28    0.13
   2  -6   4    0.23    0.14
  -3   6  -4    1.87    0.31
  -3   6  -4    1.46    0.22
  -3   6  -4    1.31    0.34
   3  -6   4    1.10    0.21
   3  -6   4    1.63    0.27
   3  -6   4    1.38    0.26
   6   5  -4    1.12    0.21
  -6  -5   4    1.14    0.18
   5   5  -4    4.67    0.37
   5   5  -4    4.64    0.46
  -5  -5   4    4.42    0.33
  -5  -5   4    4.30    0.30
   4   5  -4   31.26    1.78
   4   5  -4   30.79    2.25
  -4  -5   4   31.52    1.62
  -4  -5   4   29.33    1.76
   3   5  -4   44.83    2.43
   3   5  -4   43.09    3.09
   3   5  -4   43.86    2.59
  -3  -5   4   43.05    2.42
  -3  -5   4   40.15    2.22
   2   5  -4    0.00    0.11
   2   5  -4    0.08    0.02
   2   5  -4    0.07    0.08
  -2  -5   4    0.04    0.04
  -2  -5   4   -0.01    0.05
   1   5  -4    5.66    0.29
   1   5  -4    5.13    0.50
   1   5  -4    4.82    0.40
  -1  -5   4    5.17    0.36
  -1  -5   4    4.87    0.37
  -1  -5   4    5.23    0.31
   0   5  -4    3.24    0.31
   0   5  -4    3.46    0.38
   0   5  -4    3.65    0.23
   0  -5   4    3.05    0.23
   0  -5   4    3.73    0.27
   0  -5   4    3.18    0.27
  -1   5  -4    0.37    0.13
  -1   5  -4    0.26    0.09
  -1   5  -4    0.39    0.19
   1  -5   4    0.47    0.12
   1  -5   4    0.54    0.12
   1  -5   4    0.29    0.08
  -2   5  -4    0.12    0.12
  -2   5  -4    0.20    0.10
  -2   5  -4    0.03    0.17
   2  -5   4    0.09    0.08
   2  -5   4    0.12    0.10
   2  -5   4    0.10    0.11
  -3   5  -4    0.03    0.17
  -3   5  -4    0.00    0.09
  -3   5  -4    0.17    0.15
   3  -5   4    0.29    0.15
   3  -5   4   -0.04    0.08
   3  -5   4    0.14    0.14
   6   4  -4    0.15    0.15
  -6  -4   4    0.19    0.11
  -6  -4   4    0.18    0.09
   5   4  -4    1.79    0.25
   5   4  -4    1.73    0.26
  -5  -4   4    1.50    0.18
  -5  -4   4    1.80    0.18
   4   4  -4    0.43    0.14
   4   4  -4    0.51    0.16
  -4  -4   4    0.26    0.08
  -4  -4   4    0.23    0.07
   3   4  -4    6.12    0.44
   3   4  -4    7.04    0.56
   3   4  -4    6.36    0.42
  -3  -4   4    5.90    0.47
  -3  -4   4    5.88    0.41
  -3  -4   4    6.43    0.37
   2   4  -4    1.09    0.20
   2   4  -4    1.26    0.17
   2   4  -4    1.14    0.08
   2   4  -4    1.24    0.08
   2   4  -4    1.34    0.15
  -2  -4   4    1.41    0.14
  -2  -4   4    1.14    0.10
   1   4  -4   22.59    1.12
   1   4  -4   22.70    1.67
   1   4  -4   21.92    1.40
   1   4  -4   23.20    1.12
   1   4  -4   22.78    1.31
  -1  -4   4   23.05    1.19
  -1  -4   4   22.18    1.30
   0   4  -4   19.86    1.49
   0   4  -4   20.39    1.01
   0  -4   4   19.77    1.07
   0  -4   4   19.69    1.15
   0  -4   4   20.02    1.16
  -1   4  -4    1.18    0.21
  -1   4  -4    0.84    0.12
  -1   4  -4    1.08    0.17
   1  -4   4    0.96    0.15
   1  -4   4    0.72    0.11
   1  -4   4    1.21    0.16
  -2   4  -4    1.70    0.19
  -2   4  -4    2.33    0.32
  -2   4  -4    1.66    0.24
   2  -4   4    1.96    0.21
   2  -4   4    2.01    0.22
   2  -4   4    2.42    0.25
  -3   4  -4    0.83    0.21
  -3   4  -4    0.69    0.13
  -3   4  -4    0.47    0.15
   3  -4   4    0.17    0.12
   3  -4   4    0.43    0.12
   3  -4   4    0.54    0.16
  -4   4  -4    0.11    0.11
  -4   4  -4    0.14    0.16
   4  -4   4    0.03    0.10
   4  -4   4    0.04    0.15
   6   3  -4    1.14    0.23
  -6  -3   4    0.93    0.17
  -6  -3   4    0.56    0.13
   5   3  -4    7.05    0.51
  -5  -3   4    6.48    0.42
  -5  -3   4    6.76    0.46
   4   3  -4   17.18    1.22
   4   3  -4   16.73    1.01
  -4  -3   4   16.16    0.89
  -4  -3   4   16.30    0.82
  -4  -3   4   15.13    0.96
   3   3  -4    8.29    0.44
   3   3  -4    9.19    0.55
   3   3  -4    9.03    0.71
   3   3  -4    9.39    0.59
  -3  -3   4    8.66    0.54
  -3  -3   4    7.97    0.59
  -3  -3   4    9.14    0.45
  -3  -3   4    9.08    0.50
   2   3  -4    0.16    0.06
   2   3  -4    0.16    0.03
   2   3  -4    0.14    0.11
   2   3  -4    0.14    0.09
  -2  -3   4    0.30    0.13
  -2  -3   4    0.15    0.03
  -2  -3   4    0.12    0.04
  -2  -3   4    0.36    0.07
   1   3  -4    2.50    0.21
   1   3  -4    2.89    0.16
   1   3  -4    2.50    0.28
   1   3  -4    2.76    0.23
  -1  -3   4    2.91    0.20
  -1  -3   4    2.77    0.16
  -1  -3   4    2.56    0.17
   0   3  -4    1.33    0.12
   0   3  -4    1.50    0.18
   0   3  -4    1.44    0.21
   0  -3   4    1.36    0.15
   0  -3   4    1.29    0.15
   0  -3   4    1.34    0.12
  -1   3  -4   13.06    0.88
  -1   3  -4   13.10    0.71
  -1   3  -4   14.42    1.03
   1  -3   4   12.88    0.80
   1  -3   4   13.07    0.78
   1  -3   4   13.63    0.74
  -2   3  -4    3.52    0.32
  -2   3  -4    4.29    0.37
  -2   3  -4    3.88    0.26
   2  -3   4    3.08    0.25
   2  -3   4    3.46    0.27
   2  -3   4    3.40    0.28
  -3   3  -4    0.56    0.12
  -3   3  -4    0.33    0.12
  -3   3  -4    0.32    0.15
   3  -3   4    0.34    0.11
   3  -3   4    0.33    0.11
   3  -3   4    0.13    0.10
  -4   3  -4    0.01    0.14
  -4   3  -4    0.08    0.11
   4  -3   4   -0.05    0.11
   4  -3   4   -0.04    0.08
  -5   3  -4    0.02    0.12
  -5   3  -4    0.07    0.16
   5  -3   4    0.48    0.18
   5  -3   4    0.36    0.20
   6   2  -4    0.36    0.22
   6   2  -4    0.10    0.17
  -6  -2   4   -0.02    0.08
   5   2  -4    0.02    0.20
   5   2  -4    0.26    0.17
  -5  -2   4   -0.02    0.06
  -5  -2   4   -0.08    0.05
   4   2  -4    3.23    0.35
   4   2  -4    3.30    0.31
   4   2  -4    2.53    0.35
  -4  -2   4    2.98    0.22
  -4  -2   4    2.94    0.20
   3   2  -4    8.26    0.67
   3   2  -4    8.65    0.44
   3   2  -4    8.76    0.58
  -3  -2   4    8.42    0.44
  -3  -2   4    8.40    0.48
  -3  -2   4    8.00    0.52
   2   2  -4   56.92    2.70
   2   2  -4   58.18    3.11
   2   2  -4   62.19    3.94
   2   2  -4   57.27    3.29
  -2  -2   4   55.81    2.70
  -2  -2   4   55.15    2.86
  -2  -2   4   47.90    3.34
  -2  -2   4   51.14    3.08
   1   2  -4   31.33    1.75
   1   2  -4   29.86    2.09
   1   2  -4   28.93    1.63
   1   2  -4   27.23    1.41
  -1  -2   4   29.47    1.61
  -1  -2   4   28.57    1.49
  -1  -2   4   24.90    1.78
  -1  -2   4   29.28    1.41
   0   2  -4   -0.03    0.05
   0   2  -4   -0.02    0.06
   0   2  -4    0.01    0.03
   0   2  -4   -0.01    0.09
   0  -2   4    0.00    0.02
   0  -2   4    0.05    0.03
   0  -2   4    0.03    0.04
  -1   2  -4    0.74    0.16
  -1   2  -4    0.53    0.10
  -1   2  -4    0.67    0.14
   1  -2   4    0.68    0.10
   1  -2   4    0.59    0.08
   1  -2   4    0.69    0.09
  -2   2  -4   15.16    0.96
  -2   2  -4   14.88    1.09
  -2   2  -4   15.10    0.78
   2  -2   4   14.22    0.86
   2  -2   4   14.43    0.83
   2  -2   4   13.30    0.80
  -3   2  -4   -0.01    0.10
  -3   2  -4    0.03    0.11
  -3   2  -4    0.04    0.07
   3  -2   4   -0.01    0.06
   3  -2   4    0.05    0.08
   3  -2   4    0.02    0.08
  -4   2  -4    0.05    0.13
  -4   2  -4   -0.05    0.07
   4  -2   4   -0.10    0.09
   4  -2   4   -0.10    0.08
  -5   2  -4    0.13    0.12
  -5   2  -4    0.20    0.17
   5  -2   4    0.18    0.17
   5  -2   4    0.20    0.13
   6   1  -4    0.07    0.19
   6   1  -4    0.04    0.22
  -6  -1   4   -0.11    0.08
  -6  -1   4    0.04    0.09
   5   1  -4    2.99    0.39
   5   1  -4    3.63    0.45
  -5  -1   4    3.59    0.24
  -5  -1   4    2.88    0.25
   4   1  -4    1.10    0.19
   4   1  -4    1.08    0.23
   4   1  -4    0.85    0.21
  -4  -1   4    0.93    0.11
  -4  -1   4    1.23    0.14
   3   1  -4    4.05    0.36
   3   1  -4    4.02    0.40
   3   1  -4    4.33    0.38
  -3  -1   4    4.25    0.27
  -3  -1   4    4.02    0.24
   2   1  -4    9.61    0.81
   2   1  -4   10.22    0.65
   2   1  -4   10.34    0.62
   2   1  -4   10.23    0.52
   2   1  -4   10.08    0.66
  -2  -1   4    9.50    0.60
  -2  -1   4    9.88    0.52
  -2  -1   4   10.33    0.55
   1   1  -4   56.96    3.34
   1   1  -4   55.88    3.95
   1   1  -4   57.08    3.09
   1   1  -4   58.90    2.70
  -1  -1   4   56.28    2.70
  -1  -1   4   55.30    3.07
  -1  -1   4   48.76    3.36
  -1  -1   4   53.55    2.85
   0   1  -4    0.40    0.16
   0   1  -4    0.41    0.13
   0   1  -4    0.39    0.08
   0   1  -4    0.34    0.05
   0   1  -4    0.34    0.05
   0  -1   4    0.44    0.11
   0  -1   4    0.37    0.05
   0  -1   4    0.27    0.04
   0  -1   4    0.36    0.16
   0  -1   4    0.23    0.05
  -1   1  -4    0.76    0.09
  -1   1  -4    1.01    0.18
  -1   1  -4    0.54    0.16
   1  -1   4    0.77    0.08
   1  -1   4    0.76    0.08
   1  -1   4    0.73    0.10
   1  -1   4    0.64    0.08
  -2   1  -4    1.16    0.19
  -2   1  -4    1.12    0.18
  -2   1  -4    1.02    0.13
   2  -1   4    1.23    0.13
   2  -1   4    0.93    0.10
   2  -1   4    0.97    0.12
   2  -1   4    0.77    0.10
  -3   1  -4    0.83    0.15
  -3   1  -4    0.51    0.16
  -3   1  -4    0.55    0.11
   3  -1   4    0.59    0.13
   3  -1   4    0.42    0.09
   3  -1   4    0.49    0.08
   3  -1   4    0.52    0.10
  -4   1  -4    4.60    0.38
  -4   1  -4    5.30    0.43
  -4   1  -4    3.98    0.32
   4  -1   4    4.05    0.33
   4  -1   4    4.26    0.36
  -5   1  -4    3.60    0.38
  -5   1  -4    2.61    0.28
   5  -1   4    2.64    0.31
   5  -1   4    3.02    0.36
   6   0  -4    1.67    0.33
   6   0  -4    1.36    0.34
  -6   0   4    1.13    0.19
  -6   0   4    1.54    0.20
   5   0  -4    1.66    0.31
   5   0  -4    2.20    0.34
  -5   0   4    2.08    0.22
  -5   0   4    2.35    0.22
   4   0  -4    0.03    0.13
   4   0  -4    0.01    0.15
   4   0  -4   -0.07    0.16
  -4   0   4    0.05    0.06
  -4   0   4    0.03    0.05
   3   0  -4   25.10    1.58
   3   0  -4   27.85    1.57
   3   0  -4   25.66    1.95
   3   0  -4   27.56    1.58
  -3   0   4   25.49    1.39
  -3   0   4   26.46    1.57
  -3   0   4   25.25    1.32
   2   0  -4   87.57    4.96
   2   0  -4   90.51    4.92
   2   0  -4   94.28    5.24
   2   0  -4   81.61    6.26
  -2   0   4   91.65    4.30
  -2   0   4   84.88    4.54
   1   0  -4    3.45    0.46
   1   0  -4    3.91    0.31
   1   0  -4    4.09    0.27
   1   0  -4    3.95    0.22
   1   0  -4    3.64    0.36
  -1   0   4    3.67    0.23
  -1   0   4    3.82    0.25
  -1   0   4    3.87    0.22
   0   0  -4  109.58    8.54
   0   0  -4  124.01    6.67
   0   0  -4  125.11    6.65
   0   0  -4  117.48    7.27
   0   0  -4  124.90    5.88
   0   0   4  115.11    7.28
   0   0   4  124.17    6.66
   0   0   4  123.21    6.20
   0   0   4  123.43    5.88
   0   0   4  125.98    6.67
  -1   0  -4    1.27    0.12
  -1   0  -4    1.48    0.25
  -1   0  -4    1.54    0.11
  -1   0  -4    1.59    0.29
   1   0   4    1.53    0.16
   1   0   4    1.40    0.11
   1   0   4    1.39    0.31
   1   0   4    1.68    0.12
   1   0   4    1.39    0.11
  -2   0  -4    7.58    0.62
  -2   0  -4    7.85    0.58
   2   0   4    6.59    0.41
   2   0   4    7.14    0.39
   2   0   4    7.37    0.40
   2   0   4    5.21    0.66
   2   0   4    7.52    0.41
   2   0   4    6.80    0.43
  -3   0  -4    5.90    0.38
  -3   0  -4    6.73    0.53
  -3   0  -4    6.21    0.52
   3   0   4    6.52    0.42
   3   0   4    5.24    0.63
   3   0   4    6.23    0.39
  -4   0  -4    0.25    0.09
  -4   0  -4    0.33    0.16
  -4   0  -4    0.36    0.11
   4   0   4    0.25    0.09
   4   0   4    0.34    0.12
  -5   0  -4    0.91    0.16
  -5   0  -4    1.19    0.23
   5   0   4    0.96    0.20
   5   0   4    0.67    0.16
  -6   0  -4    0.67    0.21
  -6   0  -4    0.28    0.14
   6   0   4    0.90    0.22
   6   0   4    0.91    0.25
   5  -1  -4    4.49    0.50
   5  -1  -4    3.92    0.48
  -5   1   4    4.96    0.34
  -5   1   4    4.27    0.32
   4  -1  -4    2.82    0.38
   4  -1  -4    2.93    0.40
   4  -1  -4    2.26    0.33
  -4   1   4    2.65    0.22
  -4   1   4    2.87    0.23
  -4   1   4    2.49    0.23
   3  -1  -4    9.78    0.69
   3  -1  -4    9.56    0.70
   3  -1  -4    8.15    0.86
   3  -1  -4   10.82    0.64
  -3   1   4    9.76    0.54
  -3   1   4    9.72    0.63
  -3   1   4   10.50    0.57
   2  -1  -4    0.50    0.09
   2  -1  -4    0.27    0.14
   2  -1  -4    0.44    0.13
   2  -1  -4    0.41    0.25
  -2   1   4    0.53    0.08
  -2   1   4    0.58    0.09
  -2   1   4    0.43    0.07
   1  -1  -4    3.78    0.52
   1  -1  -4    5.05    0.33
   1  -1  -4    4.64    0.36
   1  -1  -4    4.21    0.34
  -1   1   4    3.97    0.26
  -1   1   4    4.34    0.31
  -1   1   4    4.23    0.26
   0  -1  -4    1.61    0.16
   0  -1  -4    1.12    0.27
   0  -1  -4    1.32    0.11
   0  -1  -4    1.57    0.19
   0  -1  -4    1.44    0.12
   0   1   4    1.31    0.10
   0   1   4    1.35    0.19
   0   1   4    1.56    0.11
   0   1   4    1.33    0.10
   0   1   4    1.96    0.18
  -1  -1  -4   53.28    2.75
  -1  -1  -4   48.62    3.31
  -1  -1  -4   53.84    2.95
  -1  -1  -4   55.01    2.95
   1   1   4   51.76    2.62
   1   1   4   53.27    2.75
   1   1   4   58.99    2.96
   1   1   4   51.57    3.85
   1   1   4   54.78    2.95
  -2  -1  -4   19.46    1.82
  -2  -1  -4   23.55    1.62
  -2  -1  -4   25.95    1.36
   2   1   4   25.14    1.85
   2   1   4   24.00    1.22
   2   1   4   25.74    1.29
   2   1   4   25.26    1.37
  -3  -1  -4    4.05    0.46
  -3  -1  -4    4.24    0.47
   3   1   4    4.15    0.29
   3   1   4    4.18    0.28
   3   1   4    4.51    0.47
   3   1   4    3.93    0.26
  -4  -1  -4    7.51    0.66
  -4  -1  -4    9.09    0.51
  -4  -1  -4    8.87    0.67
   4   1   4    8.33    0.56
   4   1   4    8.04    0.52
  -5  -1  -4   -0.04    0.08
  -5  -1  -4    0.14    0.16
   5   1   4    0.05    0.10
   5   1   4    0.12    0.11
  -6  -1  -4    0.13    0.16
  -6  -1  -4    0.37    0.14
   6   1   4    0.38    0.22
   6   1   4    0.17    0.15
   5  -2  -4    1.31    0.31
   5  -2  -4    1.31    0.32
  -5   2   4    2.02    0.23
  -5   2   4    1.82    0.21
   4  -2  -4    0.05    0.15
   4  -2  -4    0.55    0.29
   4  -2  -4    0.26    0.19
  -4   2   4    0.04    0.07
  -4   2   4   -0.01    0.08
  -4   2   4    0.13    0.08
   3  -2  -4    7.15    0.79
   3  -2  -4    7.88    0.62
   3  -2  -4    8.77    0.65
  -3   2   4    9.37    0.59
  -3   2   4    9.25    0.50
  -3   2   4    9.23    0.52
   2  -2  -4   14.56    0.90
   2  -2  -4   14.15    0.87
   2  -2  -4   11.20    1.10
  -2   2   4   13.69    0.71
  -2   2   4   14.10    0.86
  -2   2   4   13.48    0.74
   1  -2  -4    0.56    0.21
   1  -2  -4    0.80    0.15
   1  -2  -4    0.95    0.18
  -1   2   4    0.97    0.12
  -1   2   4    0.79    0.09
  -1   2   4    0.71    0.09
   0  -2  -4   57.76    3.34
   0  -2  -4   61.66    3.08
   0  -2  -4   57.48    3.34
   0  -2  -4   54.34    4.29
   0   2   4   68.21    3.35
   0   2   4   59.85    3.08
   0   2   4   54.84    2.93
   0   2   4   68.67    3.35
   0   2   4   58.55    3.59
  -1  -2  -4    1.71    0.30
  -1  -2  -4    1.54    0.17
  -1  -2  -4    1.79    0.12
   1   2   4    1.57    0.16
   1   2   4    1.64    0.11
   1   2   4    1.65    0.11
   1   2   4    1.84    0.14
   1   2   4    1.80    0.17
   1   2   4    1.62    0.12
  -2  -2  -4    9.25    0.83
  -2  -2  -4    9.62    0.56
  -2  -2  -4    9.65    0.53
  -2  -2  -4    7.98    0.75
   2   2   4    9.54    0.54
   2   2   4    9.89    0.54
   2   2   4    9.64    0.50
   2   2   4    9.47    0.52
  -3  -2  -4    6.32    0.67
  -3  -2  -4    6.98    0.40
  -3  -2  -4    4.96    0.63
   3   2   4    6.81    0.42
   3   2   4    6.75    0.40
   3   2   4    6.47    0.38
   3   2   4    7.97    0.61
  -4  -2  -4    6.35    0.65
  -4  -2  -4    6.22    0.61
  -4  -2  -4    7.35    0.42
   4   2   4    6.85    0.47
   4   2   4    6.84    0.43
  -5  -2  -4    2.90    0.26
  -5  -2  -4    2.48    0.37
   5   2   4    2.05    0.25
   5   2   4    3.05    0.32
  -6  -2  -4    0.13    0.11
   6   2   4   -0.17    0.10
   5  -3  -4    0.03    0.25
   5  -3  -4    0.36    0.23
  -5   3   4    0.25    0.11
  -5   3   4    0.25    0.12
   4  -3  -4    0.59    0.20
   4  -3  -4    0.68    0.25
  -4   3   4    1.02    0.18
  -4   3   4    1.00    0.15
  -4   3   4    1.02    0.16
   3  -3  -4    3.42    0.50
   3  -3  -4    2.96    0.39
   3  -3  -4    2.65    0.34
  -3   3   4    3.48    0.25
  -3   3   4    3.54    0.25
  -3   3   4    3.58    0.30
   2  -3  -4    0.06    0.11
   2  -3  -4    0.12    0.21
   2  -3  -4    0.46    0.17
  -2   3   4    0.08    0.05
  -2   3   4    0.17    0.08
  -2   3   4    0.17    0.07
   1  -3  -4   38.14    2.15
   1  -3  -4   37.25    2.76
   1  -3  -4   35.02    2.15
  -1   3   4   38.61    2.28
  -1   3   4   38.36    1.87
  -1   3   4   37.56    1.95
   0  -3  -4   84.02    6.28
   0  -3  -4   87.78    4.90
   0  -3  -4   94.88    4.54
   0  -3  -4   84.93    4.91
   0   3   4   86.20    5.28
   0   3   4   89.01    4.54
   0   3   4   83.11    4.32
   0   3   4   99.42    4.91
  -1  -3  -4   77.31    4.35
  -1  -3  -4   75.40    4.35
  -1  -3  -4   76.13    5.61
  -1  -3  -4   83.47    4.04
   1   3   4   84.31    4.33
   1   3   4   75.57    4.71
   1   3   4   73.94    3.85
   1   3   4   86.34    4.34
   1   3   4   78.30    4.04
  -2  -3  -4   12.30    1.08
  -2  -3  -4   13.30    0.70
  -2  -3  -4   13.50    0.78
   2   3   4   13.08    0.86
   2   3   4   13.59    0.71
   2   3   4   13.60    0.76
   2   3   4   13.94    0.69
  -3  -3  -4    0.66    0.26
  -3  -3  -4    0.41    0.06
  -3  -3  -4    0.60    0.09
  -3  -3  -4    0.63    0.05
  -3  -3  -4    0.54    0.26
   3   3   4    0.34    0.07
   3   3   4    0.72    0.09
   3   3   4    0.72    0.09
  -4  -3  -4    0.34    0.25
  -4  -3  -4    0.25    0.24
   4   3   4    0.04    0.10
   4   3   4    0.07    0.06
   4   3   4    0.00    0.05
  -5  -3  -4    1.84    0.37
  -5  -3  -4    1.47    0.19
   5   3   4    1.71    0.24
   5   3   4    1.34    0.19
  -6  -3  -4    0.89    0.17
   6   3   4    0.58    0.17
   4  -4  -4    1.45    0.29
   4  -4  -4    1.57    0.34
  -4   4   4    2.06    0.27
  -4   4   4    1.92    0.22
  -4   4   4    2.11    0.24
   3  -4  -4    1.86    0.30
   3  -4  -4    0.98    0.23
   3  -4  -4    1.37    0.36
  -3   4   4    1.97    0.24
  -3   4   4    1.80    0.19
  -3   4   4    1.69    0.19
   2  -4  -4    0.50    0.19
   2  -4  -4    0.24    0.23
   2  -4  -4    0.06    0.12
  -2   4   4    0.11    0.10
  -2   4   4    0.32    0.07
  -2   4   4    0.15    0.07
   1  -4  -4    0.21    0.18
   1  -4  -4    0.23    0.13
   1  -4  -4    0.11    0.10
  -1   4   4    0.20    0.07
  -1   4   4    0.08    0.09
  -1   4   4    0.16    0.05
   0  -4  -4   23.10    1.36
   0  -4  -4   23.97    1.80
   0  -4  -4   22.73    1.39
   0   4   4   23.00    1.23
   0   4   4   26.09    1.35
   0   4   4   22.67    1.47
   0   4   4   23.80    1.20
  -1  -4  -4    0.04    0.05
  -1  -4  -4   -0.20    0.14
  -1  -4  -4    0.02    0.07
  -1  -4  -4    0.10    0.04
   1   4   4    0.08    0.03
   1   4   4    0.07    0.05
   1   4   4    0.11    0.04
   1   4   4    0.18    0.08
  -2  -4  -4   30.28    1.70
  -2  -4  -4   31.87    1.55
  -2  -4  -4   28.96    2.23
   2   4   4   29.32    1.85
   2   4   4   29.68    1.49
   2   4   4   29.84    1.55
  -3  -4  -4    0.08    0.18
  -3  -4  -4    0.02    0.07
  -3  -4  -4    0.04    0.03
  -3  -4  -4    0.10    0.06
   3   4   4    0.09    0.05
   3   4   4    0.02    0.04
  -4  -4  -4    0.02    0.25
  -4  -4  -4   -0.05    0.27
  -4  -4  -4    0.09    0.07
  -4  -4  -4    0.01    0.03
   4   4   4    0.05    0.06
   4   4   4   -0.03    0.05
  -5  -4  -4    0.46    0.30
  -5  -4  -4    0.56    0.13
   5   4   4    0.81    0.14
  -6  -4  -4    1.24    0.18
   6   4   4    1.15    0.20
   4  -5  -4    0.98    0.31
   4  -5  -4    1.19    0.30
  -4   5   4    1.50    0.26
  -4   5   4    1.65    0.21
  -4   5   4    1.18    0.18
   3  -5  -4    2.83    0.53
   3  -5  -4    3.99    0.48
   3  -5  -4    3.17    0.39
  -3   5   4    3.87    0.37
  -3   5   4    3.70    0.28
  -3   5   4    4.33    0.30
   2  -5  -4    2.82    0.34
   2  -5  -4    2.98    0.39
   2  -5  -4    4.06    0.54
  -2   5   4    3.89    0.27
  -2   5   4    3.71    0.34
  -2   5   4    3.68    0.26
   1  -5  -4    3.38    0.38
   1  -5  -4    4.48    0.53
   1  -5  -4    3.94    0.32
  -1   5   4    3.54    0.24
  -1   5   4    3.58    0.25
  -1   5   4    3.47    0.33
   0  -5  -4   18.09    1.06
   0  -5  -4   17.31    1.09
   0  -5  -4   19.23    1.43
   0   5   4   17.60    0.94
   0   5   4   17.27    0.92
   0   5   4   17.82    1.15
  -1  -5  -4    2.09    0.36
  -1  -5  -4    2.10    0.15
  -1  -5  -4    2.40    0.25
  -1  -5  -4    1.76    0.17
   1   5   4    2.21    0.14
   1   5   4    2.43    0.26
   1   5   4    2.44    0.16
   1   5   4    1.98    0.16
  -2  -5  -4    2.31    0.37
  -2  -5  -4    2.58    0.15
  -2  -5  -4    2.47    0.22
   2   5   4    2.46    0.24
   2   5   4    2.16    0.17
   2   5   4    2.49    0.15
  -3  -5  -4    0.39    0.05
  -3  -5  -4    0.04    0.21
  -3  -5  -4    0.40    0.11
   3   5   4    0.40    0.12
   3   5   4    0.32    0.06
   3   5   4    0.32    0.07
  -4  -5  -4    3.54    0.50
  -4  -5  -4    3.10    0.23
  -4  -5  -4    2.51    0.50
   4   5   4    3.30    0.22
   4   5   4    2.94    0.22
  -5  -5  -4    0.74    0.38
   5   5   4    0.26    0.09
   5   5   4    0.35    0.11
  -6  -5  -4    0.00    0.10
   3  -6  -4    0.88    0.27
   3  -6  -4    1.12    0.25
   3  -6  -4    1.09    0.38
  -3   6   4    0.37    0.13
  -3   6   4    0.89    0.22
  -3   6   4    0.68    0.14
   2  -6  -4    1.59    0.30
   2  -6  -4    1.34    0.25
   2  -6  -4    2.29    0.44
  -2   6   4    1.80    0.21
  -2   6   4    1.54    0.18
  -2   6   4    2.01    0.27
   1  -6  -4    1.42    0.35
   1  -6  -4    1.24    0.20
   1  -6  -4    0.95    0.22
  -1   6   4    1.39    0.14
  -1   6   4    0.93    0.19
  -1   6   4    1.29    0.16
   0  -6  -4    0.12    0.14
   0  -6  -4    0.16    0.10
   0  -6  -4    0.21    0.21
   0   6   4    0.12    0.05
   0   6   4    0.33    0.09
   0   6   4    0.16    0.11
  -1  -6  -4    0.67    0.12
  -1  -6  -4    0.90    0.28
  -1  -6  -4    0.75    0.17
   1   6   4    0.75    0.07
   1   6   4    0.96    0.17
   1   6   4    0.96    0.11
   1   6   4    0.79    0.11
  -2  -6  -4   18.46    1.42
  -2  -6  -4   17.37    0.99
  -2  -6  -4   17.23    1.04
   2   6   4   17.33    1.14
   2   6   4   16.73    0.90
   2   6   4   17.67    0.90
  -3  -6  -4   27.58    2.09
  -3  -6  -4   25.95    1.56
   3   6   4   28.03    1.37
   3   6   4   27.70    1.72
  -4  -6  -4    0.91    0.14
  -4  -6  -4    0.78    0.31
   4   6   4    0.81    0.11
   4   6   4    0.96    0.18
  -5  -6  -4    0.18    0.28
  -5  -6  -4    0.27    0.36
   5   6   4    0.22    0.09
  -3   7   4    0.13    0.10
   2  -7  -4    0.17    0.17
   2  -7  -4    0.15    0.32
   2  -7  -4    0.23    0.20
  -2   7   4    0.17    0.15
  -2   7   4    0.35    0.10
  -2   7   4    0.33    0.11
   1  -7  -4    3.25    0.55
   1  -7  -4    4.29    0.37
   1  -7  -4    3.16    0.41
  -1   7   4    3.46    0.40
  -1   7   4    4.30    0.30
  -1   7   4    4.02    0.27
   0  -7  -4    1.43    0.26
   0  -7  -4    2.00    0.41
   0  -7  -4    1.67    0.23
   0   7   4    1.68    0.14
   0   7   4    1.94    0.20
   0   7   4    1.62    0.24
  -1  -7  -4   10.22    0.96
  -1  -7  -4   11.18    0.67
  -1  -7  -4   11.03    0.72
   1   7   4   10.73    0.56
   1   7   4   10.03    0.58
   1   7   4    9.57    0.74
  -2  -7  -4   26.57    1.57
  -2  -7  -4   26.65    1.52
  -2  -7  -4   28.38    2.09
   2   7   4   27.21    1.71
   2   7   4   25.92    1.36
  -3  -7  -4    0.16    0.25
  -3  -7  -4    0.46    0.13
   3   7   4    0.14    0.06
   3   7   4    0.29    0.12
  -4  -7  -4    1.25    0.37
  -4  -7  -4    0.85    0.15
   4   7   4    0.67    0.10
   4   7   4    0.63    0.16
  -5  -7  -4    0.19    0.33
  -5  -7  -4    0.15    0.34
   2  -8  -4    0.80    0.31
   2  -8  -4    0.20    0.19
   2  -8  -4    0.94    0.44
  -2   8   4    0.35    0.12
  -2   8   4    0.55    0.22
  -2   8   4    0.50    0.15
   1  -8  -4   -0.04    0.14
   1  -8  -4    0.00    0.31
   1  -8  -4    0.07    0.18
  -1   8   4    0.11    0.10
  -1   8   4    0.08    0.08
  -1   8   4   -0.05    0.12
   0  -8  -4    0.14    0.13
   0  -8  -4    0.29    0.29
   0  -8  -4    0.12    0.17
   0   8   4    0.14    0.09
   0   8   4    0.36    0.16
  -1  -8  -4    3.18    0.38
  -1  -8  -4    3.43    0.30
  -1  -8  -4    3.71    0.57
   1   8   4    3.73    0.40
   1   8   4    3.75    0.27
  -2  -8  -4   12.69    1.19
  -2  -8  -4   13.85    0.89
   2   8   4   15.00    0.97
   2   8   4   13.21    0.73
  -3  -8  -4    3.64    0.34
  -3  -8  -4    2.68    0.52
   3   8   4    3.24    0.23
   3   8   4    3.16    0.36
  -4  -8  -4    0.31    0.32
  -4  -8  -4   -0.05    0.11
   4   8   4    0.02    0.13
  -5  -8  -4    0.47    0.37
   5   8   4    0.45    0.17
   0  -9  -4    8.09    0.91
   0  -9  -4    6.82    0.63
   0  -9  -4    7.63    0.58
   0   9   4    7.48    0.65
   0   9   4    8.08    0.50
  -1  -9  -4    7.23    0.62
  -1  -9  -4    8.51    0.89
   1   9   4    8.08    0.65
   1   9   4    7.67    0.48
  -2  -9  -4    0.16    0.32
  -2  -9  -4    0.10    0.15
   2   9   4    0.10    0.09
   2   9   4    0.00    0.15
  -3  -9  -4    0.39    0.18
  -3  -9  -4    0.50    0.36
   3   9   4    0.46    0.19
  -4  -9  -4    0.31    0.16
  -4  -9  -4    0.41    0.36
   4   9   4    0.28    0.16
   2  10   4    0.48    0.20
  -4  -8   5    0.06    0.10
  -4  -8   5   -0.02    0.12
   3   8  -5    2.89    0.47
   3   8  -5    2.93    0.35
  -3  -8   5    2.99    0.35
  -3  -8   5    2.69    0.31
   2   8  -5   13.29    1.12
   2   8  -5   12.98    0.93
  -2  -8   5   13.65    0.87
  -2  -8   5   12.06    0.83
   1   8  -5    3.93    0.55
   1   8  -5    3.24    0.41
  -1  -8   5    3.12    0.36
  -1  -8   5    3.22    0.35
   0   8  -5   -0.03    0.22
   0   8  -5    0.11    0.18
   0  -8   5    0.02    0.11
   0  -8   5    0.46    0.18
  -5  -7   5    0.20    0.12
   4   7  -5    0.74    0.26
  -4  -7   5    0.71    0.17
  -4  -7   5    0.49    0.13
   3   7  -5    0.10    0.18
   3   7  -5    0.14    0.12
  -3  -7   5    0.07    0.09
  -3  -7   5   -0.05    0.10
   2   7  -5    8.35    0.77
   2   7  -5    8.14    0.62
  -2  -7   5    8.42    0.58
  -2  -7   5    8.07    0.48
  -2  -7   5    8.23    0.56
   1   7  -5   11.61    0.96
   1   7  -5   10.56    0.79
  -1  -7   5   10.38    0.71
  -1  -7   5   10.70    0.63
  -1  -7   5   11.27    0.73
   0   7  -5    0.43    0.18
   0   7  -5    0.40    0.11
   0   7  -5    0.39    0.22
   0  -7   5    0.34    0.10
   0  -7   5    0.19    0.12
   0  -7   5    0.38    0.14
  -1   7  -5    3.17    0.48
  -1   7  -5    3.03    0.28
  -1   7  -5    3.69    0.43
   1  -7   5    2.79    0.34
   1  -7   5    3.36    0.36
   1  -7   5    3.45    0.32
   5   6  -5    0.65    0.24
   5   6  -5    0.18    0.16
  -5  -6   5    0.25    0.11
   4   6  -5    1.09    0.20
   4   6  -5    0.92    0.26
  -4  -6   5    1.41    0.18
  -4  -6   5    1.03    0.12
   3   6  -5   17.99    1.08
   3   6  -5   16.74    1.37
   3   6  -5   17.66    1.12
  -3  -6   5   17.00    1.05
  -3  -6   5   17.70    0.94
   2   6  -5   15.40    1.22
   2   6  -5   15.30    1.01
  -2  -6   5   15.71    0.93
  -2  -6   5   15.29    0.83
  -2  -6   5   14.71    0.94
   1   6  -5    0.72    0.22
   1   6  -5    0.62    0.09
   1   6  -5    0.50    0.15
  -1  -6   5    0.49    0.09
  -1  -6   5    0.70    0.13
  -1  -6   5    0.47    0.14
   0   6  -5    0.29    0.09
   0   6  -5    0.12    0.13
   0   6  -5    0.18    0.18
   0  -6   5    0.26    0.09
   0  -6   5    0.21    0.11
   0  -6   5    0.05    0.09
  -1   6  -5    0.19    0.21
  -1   6  -5    0.15    0.10
  -1   6  -5    0.12    0.13
   1  -6   5    0.04    0.10
   1  -6   5    0.18    0.10
   1  -6   5    0.09    0.08
  -2   6  -5    1.62    0.33
  -2   6  -5    1.28    0.24
  -2   6  -5    0.83    0.16
   2  -6   5    0.89    0.20
   2  -6   5    1.07    0.22
   2  -6   5    1.04    0.19
   5   5  -5    0.25    0.14
   5   5  -5    0.35    0.21
  -5  -5   5    0.40    0.12
  -5  -5   5    0.13    0.07
   4   5  -5    0.59    0.21
   4   5  -5    0.94    0.18
  -4  -5   5    0.68    0.13
  -4  -5   5    0.64    0.10
   3   5  -5    0.08    0.08
   3   5  -5    0.17    0.15
   3   5  -5    0.17    0.11
  -3  -5   5    0.10    0.07
  -3  -5   5    0.19    0.06
   2   5  -5    0.10    0.04
   2   5  -5    0.25    0.10
   2   5  -5    0.33    0.16
   2   5  -5    0.33    0.11
  -2  -5   5    0.06    0.06
  -2  -5   5    0.20    0.06
   1   5  -5    2.92    0.20
   1   5  -5    3.32    0.37
   1   5  -5    3.10    0.29
  -1  -5   5    3.24    0.26
  -1  -5   5    3.14    0.22
  -1  -5   5    3.30    0.26
   0   5  -5    3.64    0.45
   0   5  -5    4.05    0.26
   0   5  -5    3.39    0.34
   0  -5   5    3.57    0.26
   0  -5   5    3.84    0.30
   0  -5   5    3.81    0.30
  -1   5  -5    3.54    0.38
  -1   5  -5    2.34    0.31
  -1   5  -5    3.01    0.24
   1  -5   5    3.05    0.27
   1  -5   5    2.82    0.26
   1  -5   5    3.10    0.24
  -2   5  -5    1.72    0.31
  -2   5  -5    1.34    0.25
  -2   5  -5    1.63    0.20
   2  -5   5    1.25    0.20
   2  -5   5    1.26    0.18
   2  -5   5    1.57    0.24
  -3   5  -5    0.60    0.21
  -3   5  -5    0.85    0.26
  -3   5  -5    0.90    0.17
   3  -5   5    0.56    0.18
   3  -5   5    0.68    0.16
   3  -5   5    0.81    0.20
   6   4  -5    0.26    0.18
  -6  -4   5    0.04    0.09
  -6  -4   5    0.00    0.08
   5   4  -5    3.01    0.37
   5   4  -5    2.96    0.34
  -5  -4   5    2.90    0.23
  -5  -4   5    2.57    0.27
   4   4  -5    0.69    0.17
   4   4  -5    0.55    0.17
  -4  -4   5    0.57    0.11
  -4  -4   5    0.43    0.09
   3   4  -5    4.96    0.33
   3   4  -5    4.54    0.36
   3   4  -5    4.04    0.44
  -3  -4   5    4.37    0.29
  -3  -4   5    4.77    0.33
   2   4  -5    1.89    0.22
   2   4  -5    1.88    0.28
   2   4  -5    1.82    0.20
   2   4  -5    1.97    0.13
  -2  -4   5    1.67    0.13
  -2  -4   5    1.91    0.17
   1   4  -5    0.12    0.05
   1   4  -5    0.05    0.08
   1   4  -5   -0.03    0.07
   1   4  -5    0.06    0.11
   1   4  -5    0.03    0.04
  -1  -4   5   -0.03    0.03
  -1  -4   5   -0.03    0.05
   0   4  -5   10.16    0.82
   0   4  -5   10.42    0.55
   0   4  -5    9.86    0.69
   0  -4   5    9.79    0.63
   0  -4   5    9.62    0.57
   0  -4   5   10.47    0.63
  -1   4  -5    0.13    0.10
  -1   4  -5    0.01    0.07
  -1   4  -5   -0.02    0.14
   1  -4   5    0.03    0.07
   1  -4   5    0.06    0.08
   1  -4   5   -0.05    0.05
  -2   4  -5    0.59    0.21
  -2   4  -5    0.64    0.17
  -2   4  -5    0.51    0.12
   2  -4   5    0.73    0.13
   2  -4   5    0.66    0.14
   2  -4   5    0.32    0.13
  -3   4  -5    0.08    0.12
  -3   4  -5    0.06    0.18
  -3   4  -5    0.06    0.09
   3  -4   5    0.11    0.09
   3  -4   5    0.12    0.12
   3  -4   5    0.07    0.11
  -4   4  -5    0.16    0.12
  -4   4  -5    0.12    0.16
   4  -4   5    0.18    0.15
   4  -4   5    0.17    0.14
   6   3  -5    0.58    0.22
  -6  -3   5    0.35    0.11
  -6  -3   5    0.46    0.13
   5   3  -5    0.62    0.19
  -5  -3   5    0.37    0.10
  -5  -3   5    0.38    0.11
   4   3  -5    0.01    0.12
   4   3  -5    0.19    0.14
  -4  -3   5    0.07    0.06
  -4  -3   5    0.11    0.05
  -4  -3   5    0.08    0.06
   3   3  -5    4.09    0.38
   3   3  -5    3.62    0.25
   3   3  -5    3.68    0.32
   3   3  -5    3.79    0.21
  -3  -3   5    3.61    0.20
  -3  -3   5    3.62    0.24
  -3  -3   5    3.45    0.36
  -3  -3   5    3.53    0.27
   2   3  -5    0.12    0.06
   2   3  -5    0.24    0.12
   2   3  -5    0.16    0.04
   2   3  -5    0.19    0.11
  -2  -3   5    0.16    0.06
  -2  -3   5    0.05    0.03
  -2  -3   5    0.03    0.04
   1   3  -5   89.24    6.01
   1   3  -5   87.16    4.70
   1   3  -5   83.86    4.14
   1   3  -5   86.38    5.08
  -1  -3   5   86.16    4.37
  -1  -3   5   87.02    4.14
  -1  -3   5   77.52    4.72
   0   3  -5   36.83    2.20
   0   3  -5   36.05    2.01
   0   3  -5   35.88    1.78
   0   3  -5   36.04    2.58
   0  -3   5   35.66    2.02
   0  -3   5   34.18    1.86
  -1   3  -5    9.08    0.69
  -1   3  -5    8.11    0.47
  -1   3  -5    9.42    0.61
   1  -3   5    7.65    0.48
   1  -3   5    7.05    0.51
   1  -3   5    8.12    0.51
  -2   3  -5    0.56    0.11
  -2   3  -5    0.51    0.14
  -2   3  -5    0.59    0.18
   2  -3   5    0.50    0.10
   2  -3   5    0.66    0.12
   2  -3   5    0.41    0.11
  -3   3  -5    4.64    0.32
  -3   3  -5    4.52    0.42
  -3   3  -5    4.61    0.45
   3  -3   5    3.99    0.32
   3  -3   5    4.49    0.33
   3  -3   5    3.96    0.35
  -4   3  -5    0.42    0.13
  -4   3  -5    0.31    0.17
   4  -3   5    0.29    0.13
   4  -3   5    0.15    0.14
   6   2  -5   -0.12    0.18
   6   2  -5    0.03    0.22
  -6  -2   5    0.04    0.09
   5   2  -5    0.18    0.21
   5   2  -5    0.23    0.18
  -5  -2   5    0.48    0.11
   4   2  -5    2.31    0.32
   4   2  -5    2.66    0.29
  -4  -2   5    2.44    0.18
  -4  -2   5    2.42    0.21
  -4  -2   5    2.22    0.19
   3   2  -5   11.59    0.73
   3   2  -5   10.54    0.56
   3   2  -5   10.63    0.65
   3   2  -5   11.10    0.86
  -3  -2   5   11.03    0.56
  -3  -2   5   10.20    0.65
  -3  -2   5   10.62    0.60
   2   2  -5    0.47    0.16
   2   2  -5    0.72    0.10
   2   2  -5    0.33    0.12
   2   2  -5    0.47    0.07
  -2  -2   5    0.37    0.18
  -2  -2   5    0.37    0.07
  -2  -2   5    0.52    0.06
  -2  -2   5    0.48    0.08
   1   2  -5   31.38    1.72
   1   2  -5   31.60    1.86
   1   2  -5   32.24    2.22
   1   2  -5   28.68    1.49
  -1  -2   5   30.13    1.70
  -1  -2   5   29.38    1.48
  -1  -2   5   28.91    1.57
   0   2  -5   28.48    1.60
   0   2  -5   30.14    2.09
   0   2  -5   30.15    1.78
   0  -2   5   27.63    1.60
   0  -2   5   27.72    1.41
   0  -2   5   27.18    1.48
  -1   2  -5    1.25    0.20
  -1   2  -5    1.19    0.21
   1  -2   5    1.23    0.13
   1  -2   5    1.19    0.14
   1  -2   5    1.25    0.13
   1  -2   5    1.14    0.12
  -2   2  -5   -0.03    0.10
  -2   2  -5    0.03    0.11
  -2   2  -5   -0.01    0.06
   2  -2   5   -0.05    0.05
   2  -2   5   -0.02    0.05
   2  -2   5    0.06    0.06
  -3   2  -5    2.91    0.30
  -3   2  -5    2.60    0.24
  -3   2  -5    2.51    0.31
   3  -2   5    2.06    0.22
   3  -2   5    2.17    0.24
   3  -2   5    2.21    0.20
  -4   2  -5    0.47    0.13
  -4   2  -5    0.22    0.15
   4  -2   5    0.18    0.12
   4  -2   5    0.14    0.09
  -5   2  -5    2.06    0.33
  -5   2  -5    1.78    0.24
   5  -2   5    1.65    0.28
   5  -2   5    1.94    0.28
   6   1  -5    1.81    0.40
   6   1  -5    2.26    0.36
  -6  -1   5    1.66    0.22
   5   1  -5    0.89    0.28
   5   1  -5    0.89    0.24
  -5  -1   5    0.60    0.12
  -5  -1   5    0.75    0.13
   4   1  -5    2.96    0.35
   4   1  -5    3.58    0.39
   4   1  -5    2.19    0.34
  -4  -1   5    3.17    0.22
  -4  -1   5    2.47    0.20
   3   1  -5    3.97    0.44
   3   1  -5    4.51    0.43
   3   1  -5    4.23    0.28
   3   1  -5    3.68    0.41
  -3  -1   5    3.91    0.27
  -3  -1   5    3.96    0.25
   2   1  -5    2.86    0.19
   2   1  -5    2.93    0.40
   2   1  -5    3.21    0.28
   2   1  -5    3.01    0.22
   2   1  -5    2.53    0.29
  -2  -1   5    2.69    0.18
  -2  -1   5    2.68    0.19
  -2  -1   5    2.83    0.21
   1   1  -5   32.44    1.81
   1   1  -5   32.61    1.97
   1   1  -5   32.66    2.34
   1   1  -5   32.19    1.56
  -1  -1   5   26.24    1.99
  -1  -1   5   32.70    1.77
  -1  -1   5   31.53    1.64
  -1  -1   5   31.37    1.55
   0   1  -5    1.58    0.24
   0   1  -5    1.74    0.18
   0   1  -5    1.86    0.30
   0  -1   5    1.24    0.11
   0  -1   5    1.58    0.11
   0  -1   5    1.67    0.13
  -1   1  -5    3.00    0.21
  -1   1  -5    3.37    0.36
  -1   1  -5    3.30    0.36
   1  -1   5    2.67    0.24
   1  -1   5    2.85    0.20
   1  -1   5    3.27    0.20
   1  -1   5    2.87    0.21
  -2   1  -5    4.03    0.39
  -2   1  -5    3.18    0.35
   2  -1   5    3.17    0.22
   2  -1   5    2.97    0.20
   2  -1   5    2.95    0.23
   2  -1   5    2.99    0.23
   2  -1   5    2.48    0.20
  -3   1  -5   14.72    0.86
  -3   1  -5   17.98    1.20
  -3   1  -5   16.89    1.10
   3  -1   5   14.43    0.95
   3  -1   5   15.52    0.90
   3  -1   5   15.84    0.90
  -4   1  -5   -0.05    0.07
  -4   1  -5    0.32    0.16
   4  -1   5    0.19    0.11
   4  -1   5    0.08    0.10
  -5   1  -5    2.12    0.25
  -5   1  -5    2.26    0.33
   5  -1   5    1.60    0.25
   5  -1   5    1.89    0.29
  -6   0   5    0.31    0.12
  -6   0   5    0.72    0.15
   5   0  -5    0.70    0.24
   5   0  -5    0.71    0.24
  -5   0   5    0.90    0.14
  -5   0   5    0.62    0.13
   4   0  -5    1.93    0.33
   4   0  -5    1.73    0.29
   4   0  -5    1.64    0.30
  -4   0   5    1.90    0.19
  -4   0   5    1.51    0.16
   3   0  -5    0.11    0.05
   3   0  -5   -0.04    0.11
   3   0  -5    0.14    0.14
   3   0  -5   -0.13    0.15
   3   0  -5    0.06    0.20
  -3   0   5    0.03    0.04
  -3   0   5    0.03    0.05
   2   0  -5    0.23    0.17
   2   0  -5    0.51    0.24
   2   0  -5    0.18    0.13
   2   0  -5    0.12    0.12
   2   0  -5    0.12    0.06
  -2   0   5    0.22    0.05
  -2   0   5    0.11    0.05
   1   0  -5    9.00    0.58
   1   0  -5    6.78    0.77
   1   0  -5    7.76    0.66
   1   0  -5    9.23    0.57
  -1   0   5    9.33    0.52
  -1   0   5    9.29    0.46
  -1   0   5    7.74    0.48
   0   0  -5   36.93    2.39
   0   0  -5   35.22    2.79
   0   0  -5   40.07    2.13
   0   0   5   37.53    1.95
   0   0   5   37.16    1.86
   0   0   5   39.05    2.10
  -1   0  -5    4.30    0.28
  -1   0  -5    4.84    0.30
  -1   0  -5    4.55    0.56
  -1   0  -5    4.73    0.49
   1   0   5    4.21    0.26
   1   0   5    4.51    0.28
   1   0   5    4.46    0.32
   1   0   5    4.35    0.26
  -2   0  -5   43.64    3.22
  -2   0  -5   44.11    2.79
   2   0   5   44.94    2.31
   2   0   5   40.42    2.44
   2   0   5   45.51    2.47
   2   0   5   45.62    2.43
   2   0   5   46.12    2.20
  -3   0  -5   33.71    2.12
  -3   0  -5   33.71    2.39
   3   0   5   33.37    1.75
   3   0   5   30.68    1.86
  -4   0  -5    1.63    0.22
  -4   0  -5    1.78    0.29
  -4   0  -5    1.03    0.16
   4   0   5    0.90    0.16
   4   0   5    1.57    0.20
  -5   0  -5    3.72    0.32
  -5   0  -5    3.28    0.40
   5   0   5    2.79    0.34
   5   0   5    2.84    0.32
   5  -1  -5    0.70    0.23
   5  -1  -5    0.99    0.29
  -5   1   5    0.62    0.14
  -5   1   5    1.03    0.15
   4  -1  -5    2.91    0.45
   4  -1  -5    2.53    0.37
   4  -1  -5    2.20    0.33
  -4   1   5    3.01    0.23
  -4   1   5    2.80    0.22
   3  -1  -5    0.23    0.27
   3  -1  -5    0.08    0.15
   3  -1  -5   -0.07    0.11
   3  -1  -5    0.11    0.07
  -3   1   5   -0.02    0.04
  -3   1   5    0.06    0.06
  -3   1   5    0.06    0.06
   2  -1  -5   12.35    0.73
   2  -1  -5   11.84    0.78
   2  -1  -5    9.59    0.99
   2  -1  -5   11.04    0.75
  -2   1   5   11.88    0.72
  -2   1   5   10.16    0.63
  -2   1   5   12.01    0.61
   1  -1  -5    7.82    0.55
   1  -1  -5    6.51    0.75
   1  -1  -5    8.33    0.57
   1  -1  -5    8.21    0.55
  -1   1   5    8.89    0.54
  -1   1   5    8.27    0.46
  -1   1   5    8.56    0.45
   0  -1  -5    0.35    0.12
   0  -1  -5    0.38    0.23
   0  -1  -5    0.69    0.21
   0   1   5    0.39    0.07
   0   1   5    0.51    0.12
   0   1   5    0.42    0.06
   0   1   5    0.61    0.07
  -1  -1  -5    6.99    0.74
  -1  -1  -5    7.99    0.46
  -1  -1  -5    8.09    0.68
  -1  -1  -5    8.21    0.50
   1   1   5    7.70    0.42
   1   1   5    8.34    0.52
   1   1   5    8.03    0.46
   1   1   5    7.65    0.44
  -2  -1  -5    2.20    0.42
  -2  -1  -5    3.32    0.45
  -2  -1  -5    2.84    0.18
  -2  -1  -5    2.80    0.19
   2   1   5    2.92    0.20
   2   1   5    2.72    0.19
   2   1   5    2.73    0.19
   2   1   5    3.19    0.21
  -3  -1  -5    1.70    0.34
  -3  -1  -5    1.26    0.29
   3   1   5    1.08    0.13
   3   1   5    1.15    0.13
   3   1   5    1.11    0.14
  -4  -1  -5    0.82    0.24
  -4  -1  -5    0.68    0.21
  -4  -1  -5    0.58    0.13
   4   1   5    0.68    0.12
   4   1   5    0.41    0.12
  -5  -1  -5    1.52    0.21
  -5  -1  -5    1.97    0.33
   5   1   5    2.07    0.23
   5   1   5    2.10    0.27
  -6  -1  -5    0.30    0.20
  -6  -1  -5    0.26    0.14
   6   1   5    0.61    0.17
   5  -2  -5    0.97    0.30
   5  -2  -5    0.29    0.22
  -5   2   5    0.68    0.14
  -5   2   5    0.56    0.13
   4  -2  -5    0.72    0.23
   4  -2  -5    0.81    0.34
   4  -2  -5    0.81    0.26
  -4   2   5    0.91    0.14
  -4   2   5    1.04    0.15
   3  -2  -5    1.23    0.23
   3  -2  -5    1.65    0.28
   3  -2  -5    1.21    0.37
  -3   2   5    1.28    0.17
  -3   2   5    1.73    0.17
  -3   2   5    1.49    0.16
   2  -2  -5   27.55    1.70
   2  -2  -5   25.77    2.17
   2  -2  -5   27.50    1.69
  -2   2   5   28.78    1.50
  -2   2   5   28.72    1.43
  -2   2   5   30.74    1.74
   1  -2  -5   -0.10    0.10
   1  -2  -5    0.08    0.21
   1  -2  -5   -0.07    0.08
  -1   2   5   -0.01    0.05
  -1   2   5    0.04    0.04
  -1   2   5    0.04    0.04
   0  -2  -5    0.14    0.11
   0  -2  -5    0.07    0.08
   0  -2  -5    0.08    0.22
   0   2   5    0.05    0.04
   0   2   5    0.13    0.05
   0   2   5    0.03    0.08
   0   2   5    0.07    0.06
  -1  -2  -5   45.21    3.23
  -1  -2  -5   43.17    3.72
  -1  -2  -5   50.70    2.87
   1   2   5   56.41    2.87
   1   2   5   49.14    2.52
   1   2   5   53.02    2.83
   1   2   5   58.18    2.87
   1   2   5   52.68    2.65
  -2  -2  -5   11.41    1.17
  -2  -2  -5   14.71    0.82
  -2  -2  -5   14.70    0.80
  -2  -2  -5   11.65    1.06
   2   2   5   14.70    0.74
   2   2   5   15.09    0.77
   2   2   5   14.83    0.80
   2   2   5   14.07    0.80
  -3  -2  -5    8.99    0.78
  -3  -2  -5    8.93    0.50
  -3  -2  -5    7.09    0.82
   3   2   5    9.15    0.53
   3   2   5    8.55    0.48
   3   2   5    8.45    0.50
  -4  -2  -5    1.28    0.32
  -4  -2  -5    0.43    0.29
   4   2   5    0.89    0.15
   4   2   5    1.01    0.14
   4   2   5    0.75    0.12
  -5  -2  -5    0.27    0.22
  -5  -2  -5    0.38    0.12
   5   2   5    0.63    0.17
   5   2   5    0.48    0.12
  -6  -2  -5    0.46    0.23
  -6  -2  -5    0.31    0.14
   6   2   5    0.10    0.14
   5  -3  -5    0.16    0.25
   5  -3  -5    0.15    0.22
  -5   3   5   -0.03    0.09
  -5   3   5    0.02    0.09
   4  -3  -5    0.21    0.18
   4  -3  -5   -0.23    0.19
  -4   3   5    0.28    0.09
  -4   3   5    0.22    0.12
  -4   3   5    0.09    0.09
   3  -3  -5    3.72    0.57
   3  -3  -5    4.25    0.47
   3  -3  -5    3.62    0.41
  -3   3   5    4.07    0.35
  -3   3   5    4.15    0.29
  -3   3   5    4.57    0.30
   2  -3  -5    4.77    0.40
   2  -3  -5    3.65    0.43
   2  -3  -5    4.39    0.59
  -2   3   5    4.68    0.30
  -2   3   5    4.85    0.30
  -2   3   5    4.86    0.36
   1  -3  -5   11.08    1.02
   1  -3  -5   11.71    0.76
   1  -3  -5   11.63    0.79
  -1   3   5   13.01    0.66
  -1   3   5   11.70    0.64
  -1   3   5   11.74    0.78
   0  -3  -5    0.30    0.12
   0  -3  -5    0.23    0.09
   0  -3  -5   -0.01    0.20
   0   3   5    0.25    0.07
   0   3   5    0.28    0.09
   0   3   5    0.22    0.10
   0   3   5    0.23    0.05
  -1  -3  -5    0.25    0.11
  -1  -3  -5    0.17    0.21
   1   3   5    0.19    0.06
   1   3   5    0.15    0.05
   1   3   5    0.29    0.09
   1   3   5    0.26    0.04
   1   3   5    0.24    0.04
  -2  -3  -5    3.30    0.28
  -2  -3  -5    4.58    0.55
  -2  -3  -5    3.70    0.51
   2   3   5    3.80    0.23
   2   3   5    4.10    0.25
   2   3   5    3.79    0.23
  -3  -3  -5    9.38    0.52
  -3  -3  -5    8.21    0.81
  -3  -3  -5    9.38    0.52
  -3  -3  -5    8.90    0.54
  -3  -3  -5    7.76    0.85
   3   3   5   10.53    0.54
   3   3   5    9.20    0.51
   3   3   5    9.31    0.53
  -4  -3  -5   11.73    1.02
  -4  -3  -5   10.81    1.10
   4   3   5   12.18    0.71
   4   3   5   12.57    0.68
   4   3   5   13.75    0.76
  -5  -3  -5    5.11    0.63
  -5  -3  -5    5.16    0.36
   5   3   5    4.74    0.36
  -6  -3  -5    0.17    0.24
  -6  -3  -5    0.27    0.12
   6   3   5    0.00    0.11
   4  -4  -5    0.27    0.21
   4  -4  -5    0.17    0.22
  -4   4   5    0.23    0.14
  -4   4   5    0.13    0.10
  -4   4   5    0.07    0.09
   3  -4  -5    0.96    0.22
   3  -4  -5    0.75    0.36
   3  -4  -5    0.96    0.25
  -3   4   5    1.09    0.15
  -3   4   5    0.96    0.14
  -3   4   5    0.76    0.17
   2  -4  -5    3.49    0.44
   2  -4  -5    4.06    0.39
   2  -4  -5    4.71    0.62
  -2   4   5    5.16    0.40
  -2   4   5    5.29    0.32
  -2   4   5    5.24    0.32
   1  -4  -5    0.77    0.16
   1  -4  -5    0.88    0.20
   1  -4  -5    0.76    0.29
  -1   4   5    0.71    0.09
  -1   4   5    0.92    0.12
  -1   4   5    0.71    0.15
   0  -4  -5   18.41    1.07
   0  -4  -5   16.55    1.43
   0  -4  -5   18.08    1.11
   0   4   5   18.80    0.93
   0   4   5   17.39    1.14
   0   4   5   18.01    0.95
  -1  -4  -5   37.29    2.95
  -1  -4  -5   37.81    2.24
  -1  -4  -5   43.16    2.07
  -1  -4  -5   38.19    2.27
   1   4   5   39.84    1.99
   1   4   5   37.76    2.44
   1   4   5   40.12    2.06
   1   4   5   44.78    2.22
  -2  -4  -5    1.52    0.35
  -2  -4  -5    2.31    0.15
  -2  -4  -5    2.03    0.23
   2   4   5    2.23    0.16
   2   4   5    2.08    0.14
   2   4   5    2.03    0.23
  -3  -4  -5   18.67    1.53
  -3  -4  -5   21.48    1.21
  -3  -4  -5   19.18    1.67
   3   4   5   21.11    1.08
   3   4   5   22.57    1.13
   3   4   5   21.85    1.18
  -4  -4  -5    1.50    0.40
  -4  -4  -5    2.04    0.44
   4   4   5    2.45    0.18
   4   4   5    1.78    0.18
  -5  -4  -5    0.53    0.33
   5   4   5    0.90    0.15
  -6  -4  -5    0.53    0.33
  -6  -4  -5    0.40    0.13
   6   4   5    0.12    0.12
   4  -5  -5    0.67    0.24
   4  -5  -5    0.47    0.32
  -4   5   5    0.65    0.14
  -4   5   5    0.36    0.14
  -4   5   5    0.52    0.20
   3  -5  -5   -0.04    0.14
   3  -5  -5    0.26    0.35
   3  -5  -5    0.26    0.22
  -3   5   5    0.03    0.09
  -3   5   5    0.12    0.08
  -3   5   5    0.04    0.13
   2  -5  -5    0.09    0.15
   2  -5  -5    0.10    0.26
   2  -5  -5    0.08    0.12
  -2   5   5    0.11    0.09
  -2   5   5    0.15    0.07
  -2   5   5    0.05    0.10
   1  -5  -5    0.51    0.28
   1  -5  -5    0.46    0.18
   1  -5  -5    0.51    0.15
  -1   5   5    0.50    0.10
  -1   5   5    0.48    0.08
  -1   5   5    0.50    0.13
   0  -5  -5    3.45    0.53
   0  -5  -5    3.67    0.39
   0  -5  -5    3.87    0.31
   0   5   5    3.88    0.24
   0   5   5    3.80    0.33
   0   5   5    3.98    0.26
  -1  -5  -5    0.10    0.08
  -1  -5  -5    0.06    0.12
  -1  -5  -5    0.28    0.23
  -1  -5  -5    0.20    0.06
   1   5   5    0.42    0.08
   1   5   5    0.14    0.06
   1   5   5    0.18    0.04
   1   5   5    0.12    0.08
  -2  -5  -5    0.79    0.28
  -2  -5  -5    0.51    0.15
  -2  -5  -5    1.08    0.09
   2   5   5    0.78    0.10
   2   5   5    0.89    0.16
   2   5   5    0.89    0.08
  -3  -5  -5   18.47    1.08
  -3  -5  -5   17.75    1.49
   3   5   5   18.60    0.97
   3   5   5   17.98    1.18
   3   5   5   18.22    0.94
  -4  -5  -5   30.46    2.31
  -4  -5  -5   32.40    2.58
   4   5   5   34.59    1.70
   4   5   5   35.89    1.79
  -5  -5  -5    3.37    0.61
   5   5   5    3.57    0.26
   5   5   5    3.87    0.29
  -6  -5  -5    0.35    0.13
   3  -6  -5    0.14    0.35
   3  -6  -5    0.38    0.20
   3  -6  -5    0.62    0.28
  -3   6   5    0.23    0.10
  -3   6   5    0.28    0.17
  -3   6   5    0.27    0.14
   2  -6  -5    0.29    0.15
   2  -6  -5    0.17    0.19
   2  -6  -5    0.09    0.33
  -2   6   5    0.07    0.08
  -2   6   5    0.02    0.13
  -2   6   5    0.03    0.06
   1  -6  -5    0.05    0.15
   1  -6  -5    0.25    0.28
   1  -6  -5    0.12    0.13
  -1   6   5    0.09    0.11
  -1   6   5    0.06    0.08
  -1   6   5    0.11    0.07
   0  -6  -5    2.11    0.42
   0  -6  -5    2.35    0.26
   0  -6  -5    3.08    0.36
   0   6   5    2.60    0.17
   0   6   5    2.36    0.22
   0   6   5    2.42    0.29
  -1  -6  -5    0.35    0.10
  -1  -6  -5    0.21    0.23
  -1  -6  -5    0.31    0.15
   1   6   5    0.28    0.05
   1   6   5    0.32    0.12
   1   6   5    0.25    0.07
  -2  -6  -5   16.38    1.42
  -2  -6  -5   17.13    0.99
  -2  -6  -5   17.91    1.07
   2   6   5   18.14    0.91
   2   6   5   17.37    0.91
   2   6   5   17.71    1.15
  -3  -6  -5    4.08    0.33
  -3  -6  -5    5.55    0.65
   3   6   5    3.69    0.25
   3   6   5    3.84    0.36
   3   6   5    4.08    0.24
  -4  -6  -5    0.26    0.32
   4   6   5    0.31    0.08
  -5  -6  -5   -0.11    0.38
  -5  -6  -5    0.20    0.33
   5   6   5   -0.02    0.08
   2  -7  -5    0.17    0.24
   2  -7  -5   -0.26    0.34
   2  -7  -5    0.12    0.17
  -2   7   5    0.09    0.11
  -2   7   5    0.19    0.10
  -2   7   5    0.16    0.16
   1  -7  -5    0.41    0.21
   1  -7  -5    0.34    0.30
   1  -7  -5   -0.06    0.14
  -1   7   5    0.04    0.08
  -1   7   5    0.05    0.06
  -1   7   5    0.11    0.14
   0  -7  -5    0.97    0.19
   0  -7  -5    0.53    0.30
   0  -7  -5    0.97    0.23
   0   7   5    1.34    0.23
   0   7   5    1.02    0.11
   0   7   5    1.21    0.16
  -1  -7  -5    0.30    0.25
  -1  -7  -5   -0.06    0.12
  -1  -7  -5   -0.11    0.08
   1   7   5    0.00    0.07
   1   7   5    0.00    0.04
   1   7   5    0.09    0.11
  -2  -7  -5   34.30    1.95
  -2  -7  -5   34.53    2.56
   2   7   5   31.67    1.68
   2   7   5   33.29    2.10
  -3  -7  -5   18.98    1.17
  -3  -7  -5   21.42    1.63
   3   7   5   19.46    1.29
   3   7   5   18.84    1.00
  -4  -7  -5    0.56    0.35
  -4  -7  -5    0.19    0.13
   4   7   5    0.25    0.08
   4   7   5    0.28    0.15
  -5  -7  -5    0.23    0.40
  -5  -7  -5    0.07    0.33
   5   7   5    0.28    0.10
   1  -8  -5    1.03    0.29
   1  -8  -5    0.87    0.22
   1  -8  -5    0.74    0.40
  -1   8   5    0.78    0.16
  -1   8   5    0.66    0.21
   0  -8  -5    1.48    0.24
   0  -8  -5    1.20    0.41
   0  -8  -5    1.11    0.28
   0   8   5    1.50    0.26
   0   8   5    1.57    0.20
  -1  -8  -5   13.99    0.93
  -1  -8  -5   13.63    1.23
   1   8   5   13.11    0.95
   1   8   5   13.39    0.74
  -2  -8  -5    9.15    0.66
  -2  -8  -5    9.56    0.93
   2   8   5    8.84    0.51
   2   8   5    8.52    0.68
  -3  -8  -5    0.85    0.20
  -3  -8  -5    0.51    0.35
   3   8   5    1.14    0.14
   3   8   5    1.44    0.25
  -4  -8  -5    0.78    0.40
  -4  -8  -5    0.55    0.18
   4   8   5    0.51    0.10
   4   8   5    0.46    0.17
  -5  -8  -5    0.55    0.39
   0  -9  -5    0.16    0.21
   0  -9  -5    0.59    0.43
   0   9   5    0.22    0.16
   0   9   5    0.26    0.13
  -1  -9  -5    1.62    0.32
  -1  -9  -5    1.47    0.43
   1   9   5    1.51    0.19
   1   9   5    2.02    0.31
  -2  -9  -5    4.57    0.46
  -2  -9  -5    3.27    0.62
   2   9   5    4.47    0.47
   2   9   5    3.75    0.29
  -3  -9  -5    0.44    0.37
  -3  -9  -5    0.62    0.21
   3   9   5    0.74    0.12
   3   9   5    0.61    0.20
  -4  -9  -5    2.00    0.53
   4   9   5    1.92    0.31
   2   8  -6    0.24    0.16
   2   8  -6    0.03    0.25
  -2  -8   6   -0.05    0.13
  -2  -8   6    0.07    0.12
   1   8  -6    2.27    0.35
   1   8  -6    1.92    0.42
  -1  -8   6    2.05    0.31
  -1  -8   6    2.49    0.31
   4   7  -6    0.58    0.27
  -4  -7   6    0.42    0.14
   3   7  -6    0.09    0.23
  -3  -7   6    0.14    0.12
  -3  -7   6   -0.06    0.09
   2   7  -6    1.73    0.27
   2   7  -6    1.22    0.33
  -2  -7   6    1.79    0.18
  -2  -7   6    1.40    0.24
  -2  -7   6    1.99    0.25
   1   7  -6    1.27    0.24
   1   7  -6    1.71    0.35
  -1  -7   6    1.61    0.22
  -1  -7   6    1.52    0.23
  -1  -7   6    1.31    0.17
   0   7  -6    0.58    0.28
   0   7  -6    0.49    0.20
   0  -7   6    0.39    0.18
   0  -7   6    0.48    0.15
   0  -7   6    0.45    0.12
  -1   7  -6    0.62    0.23
  -1   7  -6    0.93    0.34
  -1   7  -6    0.70    0.15
   1  -7   6    0.73    0.18
   1  -7   6    1.06    0.22
   1  -7   6    0.64    0.15
   5   6  -6    0.53    0.24
   5   6  -6    0.52    0.19
  -5  -6   6    0.20    0.11
   4   6  -6    0.40    0.15
   4   6  -6    0.14    0.21
  -4  -6   6    0.22    0.11
  -4  -6   6    0.35    0.08
   3   6  -6    3.06    0.31
   3   6  -6    3.22    0.44
   3   6  -6    3.05    0.33
  -3  -6   6    2.70    0.21
  -3  -6   6    2.81    0.29
   2   6  -6    0.15    0.16
   2   6  -6    0.11    0.11
  -2  -6   6   -0.06    0.05
  -2  -6   6    0.16    0.11
  -2  -6   6    0.09    0.08
   1   6  -6    0.79    0.24
   1   6  -6    0.74    0.18
  -1  -6   6    1.00    0.18
  -1  -6   6    0.78    0.15
  -1  -6   6    0.83    0.12
   0   6  -6    5.37    0.46
   0   6  -6    5.42    0.55
   0   6  -6    5.20    0.34
   0  -6   6    4.79    0.39
   0  -6   6    4.75    0.39
   0  -6   6    4.87    0.34
  -1   6  -6    4.95    0.49
  -1   6  -6    3.96    0.30
  -1   6  -6    4.43    0.55
   1  -6   6    3.80    0.35
   1  -6   6    3.95    0.36
   1  -6   6    4.12    0.32
  -2   6  -6    0.02    0.25
  -2   6  -6    0.09    0.16
  -2   6  -6    0.28    0.13
   2  -6   6    0.15    0.12
   2  -6   6    0.02    0.13
   2  -6   6    0.17    0.14
   5   5  -6    0.83    0.22
   5   5  -6    1.03    0.27
  -5  -5   6    0.87    0.14
  -5  -5   6    1.22    0.18
   4   5  -6    0.62    0.18
   4   5  -6    0.76    0.22
  -4  -5   6    0.56    0.13
  -4  -5   6    0.61    0.10
   3   5  -6    0.93    0.15
   3   5  -6    0.95    0.18
   3   5  -6    0.89    0.25
  -3  -5   6    1.02    0.15
  -3  -5   6    0.75    0.10
   2   5  -6    6.18    0.59
   2   5  -6    5.83    0.46
   2   5  -6    6.70    0.47
  -2  -5   6    6.36    0.37
  -2  -5   6    6.11    0.43
   1   5  -6    2.28    0.35
   1   5  -6    2.45    0.28
   1   5  -6    2.12    0.17
  -1  -5   6    1.96    0.24
  -1  -5   6    2.34    0.24
  -1  -5   6    2.20    0.18
   0   5  -6    5.06    0.51
   0   5  -6    4.72    0.31
   0   5  -6    4.81    0.42
   0  -5   6    4.21    0.31
   0  -5   6    5.01    0.37
   0  -5   6    4.64    0.36
  -1   5  -6    7.43    0.68
  -1   5  -6    6.95    0.44
   1  -5   6    7.57    0.46
   1  -5   6    6.47    0.50
   1  -5   6    6.83    0.49
  -2   5  -6    0.91    0.21
  -2   5  -6    1.15    0.18
  -2   5  -6    0.59    0.25
   2  -5   6    0.59    0.14
   2  -5   6    0.50    0.15
   2  -5   6    0.65    0.16
  -3   5  -6    0.21    0.14
  -3   5  -6    0.21    0.17
  -3   5  -6    0.17    0.23
   3  -5   6    0.12    0.15
   3  -5   6    0.29    0.13
   5   4  -6    1.35    0.27
   5   4  -6    1.22    0.25
  -5  -4   6    1.30    0.18
  -5  -4   6    0.93    0.14
   4   4  -6    0.04    0.15
   4   4  -6    0.39    0.17
  -4  -4   6    0.14    0.07
  -4  -4   6    0.02    0.06
   3   4  -6    0.09    0.07
   3   4  -6   -0.03    0.14
   3   4  -6    0.15    0.12
  -3  -4   6    0.03    0.06
  -3  -4   6   -0.03    0.05
   2   4  -6    8.45    0.70
   2   4  -6    7.94    0.53
   2   4  -6    7.75    0.54
  -2  -4   6    7.88    0.51
  -2  -4   6    7.23    0.44
   1   4  -6    5.49    0.40
   1   4  -6    5.31    0.42
   1   4  -6    5.58    0.53
   1   4  -6    5.67    0.32
  -1  -4   6    5.66    0.33
  -1  -4   6    4.73    0.37
   0   4  -6   18.26    1.12
   0   4  -6   16.95    0.89
   0   4  -6   17.41    1.32
   0  -4   6   17.23    1.01
   0  -4   6   15.71    1.01
   0  -4   6   16.64    0.93
  -1   4  -6   14.31    1.06
  -1   4  -6   14.00    0.90
  -1   4  -6   12.08    0.71
   1  -4   6   12.19    0.74
   1  -4   6   12.92    0.80
   1  -4   6   12.19    0.78
  -2   4  -6    1.10    0.22
  -2   4  -6    1.46    0.18
  -2   4  -6    1.22    0.28
   2  -4   6    1.00    0.16
   2  -4   6    1.02    0.17
   2  -4   6    1.32    0.19
  -3   4  -6    0.80    0.16
  -3   4  -6    0.27    0.16
  -3   4  -6    0.54    0.25
   3  -4   6    0.64    0.17
   3  -4   6    0.32    0.13
   3  -4   6    0.56    0.15
   5   3  -6    2.01    0.32
  -5  -3   6    2.43    0.24
  -5  -3   6    1.72    0.19
   4   3  -6    0.19    0.14
   4   3  -6    0.19    0.16
  -4  -3   6    0.19    0.07
  -4  -3   6    0.12    0.07
   3   3  -6    0.15    0.12
   3   3  -6    0.28    0.07
   3   3  -6    0.42    0.18
  -3  -3   6    0.24    0.07
  -3  -3   6    0.24    0.05
  -3  -3   6    0.24    0.08
   2   3  -6    7.88    0.66
   2   3  -6    7.51    0.51
   2   3  -6    7.57    0.39
   2   3  -6    7.42    0.50
  -2  -3   6    6.46    0.42
  -2  -3   6    6.45    0.46
  -2  -3   6    7.51    0.38
   1   3  -6    7.02    0.50
   1   3  -6    7.66    0.54
   1   3  -6    8.00    0.67
  -1  -3   6    7.54    0.43
  -1  -3   6    6.99    0.48
  -1  -3   6    7.81    0.41
   0   3  -6    6.49    0.48
   0   3  -6    6.29    0.42
   0   3  -6    6.76    0.58
   0  -3   6    5.89    0.37
   0  -3   6    5.75    0.41
   0  -3   6    6.26    0.36
  -1   3  -6    1.26    0.24
  -1   3  -6    0.85    0.17
  -1   3  -6    0.50    0.11
   1  -3   6    0.70    0.12
   1  -3   6    0.62    0.10
   1  -3   6    0.71    0.13
  -2   3  -6    5.43    0.36
  -2   3  -6    5.43    0.52
  -2   3  -6    5.78    0.48
   2  -3   6    5.24    0.37
   2  -3   6    4.76    0.38
   2  -3   6    5.41    0.36
  -3   3  -6    0.51    0.21
  -3   3  -6    0.34    0.12
  -3   3  -6    0.36    0.16
   3  -3   6    0.28    0.11
   3  -3   6    0.25    0.10
   3  -3   6    0.57    0.15
  -4   3  -6    7.81    0.62
  -4   3  -6    7.07    0.49
   4  -3   6    6.37    0.53
   4  -3   6    6.42    0.50
   5   2  -6    0.43    0.22
  -5  -2   6    0.36    0.10
  -5  -2   6    0.38    0.12
   4   2  -6    0.69    0.21
   4   2  -6    1.29    0.25
  -4  -2   6    0.91    0.11
  -4  -2   6    0.83    0.12
  -4  -2   6    0.98    0.14
   3   2  -6    1.49    0.14
   3   2  -6    1.78    0.29
   3   2  -6    1.25    0.23
  -3  -2   6    1.65    0.13
  -3  -2   6    1.76    0.18
  -3  -2   6    1.36    0.15
   2   2  -6   14.41    1.06
   2   2  -6   13.24    0.83
   2   2  -6   13.65    0.83
  -2  -2   6   12.12    0.70
  -2  -2   6   12.77    0.65
  -2  -2   6   11.55    0.76
   1   2  -6    2.47    0.36
   1   2  -6    2.26    0.25
   1   2  -6    3.21    0.30
  -1  -2   6    2.00    0.18
  -1  -2   6    2.53    0.16
  -1  -2   6    2.14    0.16
   0   2  -6    0.67    0.17
   0   2  -6    0.36    0.18
   0   2  -6    0.65    0.12
   0  -2   6    0.56    0.08
   0  -2   6    0.40    0.08
   0  -2   6    0.43    0.07
  -1   2  -6    0.36    0.16
  -1   2  -6    0.14    0.12
   1  -2   6    0.14    0.06
   1  -2   6    0.29    0.08
   1  -2   6    0.19    0.06
  -2   2  -6   -0.01    0.14
  -2   2  -6    0.10    0.08
  -2   2  -6    0.08    0.12
   2  -2   6    0.03    0.07
   2  -2   6    0.01    0.06
   2  -2   6   -0.04    0.04
  -3   2  -6    7.68    0.59
  -3   2  -6    7.18    0.45
  -3   2  -6    7.04    0.62
   3  -2   6    7.20    0.44
   3  -2   6    6.22    0.45
   3  -2   6    6.30    0.48
  -4   2  -6    5.54    0.49
  -4   2  -6    4.81    0.39
   4  -2   6    4.67    0.41
   4  -2   6    5.12    0.39
  -5   2  -6    0.40    0.16
   5  -2   6    0.44    0.19
   5   1  -6    2.41    0.38
   5   1  -6    1.92    0.38
  -5  -1   6    2.23    0.23
  -5  -1   6    2.58    0.22
   4   1  -6    0.14    0.16
   4   1  -6    0.17    0.17
   4   1  -6   -0.03    0.17
  -4  -1   6    0.12    0.07
  -4  -1   6    0.06    0.06
   3   1  -6    0.68    0.13
   3   1  -6    0.31    0.16
   3   1  -6    0.66    0.24
  -3  -1   6    0.55    0.10
  -3  -1   6    0.50    0.09
  -3  -1   6    0.45    0.09
   2   1  -6    0.15    0.08
   2   1  -6    0.04    0.12
   2   1  -6    0.41    0.23
   2   1  -6    0.15    0.12
  -2  -1   6    0.26    0.07
  -2  -1   6    0.17    0.05
  -2  -1   6    0.16    0.06
   1   1  -6   -0.02    0.18
   1   1  -6   -0.05    0.15
   1   1  -6    0.24    0.12
  -1  -1   6    0.01    0.04
  -1  -1   6    0.06    0.04
  -1  -1   6    0.05    0.04
   0   1  -6   10.68    0.93
   0   1  -6   10.89    0.66
   0   1  -6   10.80    0.79
   0  -1   6   11.06    0.63
   0  -1   6   10.14    0.58
   0  -1   6   10.53    0.56
  -1   1  -6    3.13    0.23
  -1   1  -6    3.48    0.45
  -1   1  -6    4.24    0.44
   1  -1   6    3.13    0.21
   1  -1   6    3.29    0.23
   1  -1   6    3.20    0.22
  -2   1  -6    0.31    0.16
  -2   1  -6   -0.02    0.16
   2  -1   6    0.02    0.05
   2  -1   6    0.07    0.06
   2  -1   6    0.04    0.05
   2  -1   6    0.10    0.06
  -3   1  -6    5.59    0.51
  -3   1  -6    4.97    0.36
  -3   1  -6    5.70    0.52
   3  -1   6    5.49    0.39
   3  -1   6    5.23    0.34
   3  -1   6    5.30    0.37
  -4   1  -6    8.62    0.67
   4  -1   6    8.03    0.53
   4  -1   6    7.46    0.55
  -5   1  -6    0.19    0.20
  -5   1  -6    0.54    0.16
   5  -1   6    0.30    0.14
   5  -1   6    0.55    0.19
   5   0  -6    1.81    0.36
   5   0  -6    1.87    0.36
  -5   0   6    2.22    0.22
  -5   0   6    2.60    0.25
   4   0  -6    3.19    0.43
   4   0  -6    5.08    0.56
   4   0  -6    3.03    0.42
  -4   0   6    3.98    0.27
  -4   0   6    4.00    0.28
   3   0  -6    0.11    0.13
   3   0  -6    0.07    0.22
   3   0  -6    0.15    0.20
   3   0  -6    0.08    0.15
  -3   0   6    0.16    0.06
  -3   0   6    0.10    0.06
   2   0  -6    2.05    0.32
   2   0  -6    2.22    0.43
   2   0  -6    2.55    0.32
   2   0  -6    2.59    0.22
  -2   0   6    2.25    0.16
  -2   0   6    1.81    0.16
   1   0  -6    2.14    0.41
   1   0  -6    2.29    0.34
   1   0  -6    2.71    0.29
  -1   0   6    2.20    0.16
  -1   0   6    2.17    0.17
  -1   0   6    1.99    0.15
   0   0  -6   13.15    1.04
   0   0  -6   13.10    1.21
   0   0  -6   15.72    0.89
   0   0   6   14.23    0.77
   0   0   6   14.70    0.83
   0   0   6   14.45    0.74
  -1   0  -6   10.01    0.86
  -1   0  -6   11.76    0.68
  -1   0  -6   10.50    0.99
   1   0   6   11.48    0.59
   1   0   6   11.36    0.66
   1   0   6   11.15    0.62
  -2   0  -6    4.15    0.51
  -2   0  -6    3.50    0.22
  -2   0  -6    3.60    0.46
   2   0   6    2.99    0.27
   2   0   6    3.27    0.24
   2   0   6    3.50    0.24
   2   0   6    3.38    0.23
  -3   0  -6    1.71    0.32
  -3   0  -6    1.83    0.33
   3   0   6    1.37    0.11
   3   0   6    1.34    0.16
   3   0   6    1.35    0.16
   3   0   6    1.75    0.17
  -4   0  -6   -0.08    0.09
  -4   0  -6    0.06    0.18
  -4   0  -6    0.25    0.16
   4   0   6    0.05    0.07
   4   0   6    0.00    0.10
  -5   0  -6    1.24    0.20
  -5   0  -6    1.35    0.28
   5   0   6    1.80    0.25
   5   0   6    1.03    0.22
   5  -1  -6    0.70    0.31
   5  -1  -6    0.43    0.24
  -5   1   6    1.02    0.16
  -5   1   6    1.42    0.18
   4  -1  -6    0.27    0.27
   4  -1  -6    0.09    0.15
   4  -1  -6   -0.01    0.21
  -4   1   6    0.04    0.07
  -4   1   6   -0.05    0.05
   3  -1  -6    6.24    0.76
   3  -1  -6    5.57    0.51
   3  -1  -6    6.29    0.50
  -3   1   6    5.84    0.36
  -3   1   6    5.10    0.36
  -3   1   6    6.44    0.41
   2  -1  -6    0.12    0.14
   2  -1  -6   -0.15    0.11
   2  -1  -6    0.34    0.30
  -2   1   6   -0.02    0.06
  -2   1   6    0.01    0.05
  -2   1   6    0.01    0.04
   1  -1  -6   43.20    2.75
   1  -1  -6   37.85    3.23
   1  -1  -6   43.72    2.50
  -1   1   6   47.21    2.26
  -1   1   6   43.49    2.15
   0  -1  -6    7.33    0.71
   0  -1  -6    5.80    0.79
   0  -1  -6    9.56    0.60
   0   1   6    8.85    0.48
   0   1   6    9.08    0.47
   0   1   6    9.35    0.51
  -1  -1  -6   17.61    1.00
  -1  -1  -6   14.17    1.22
  -1  -1  -6   17.82    0.96
  -1  -1  -6   14.14    1.38
   1   1   6   18.00    1.02
   1   1   6   16.44    0.86
   1   1   6   17.15    0.90
   1   1   6   17.04    0.96
  -2  -1  -6   35.95    1.94
  -2  -1  -6   30.66    2.63
  -2  -1  -6   33.71    2.31
  -2  -1  -6   35.93    1.95
   2   1   6   35.26    1.75
   2   1   6   34.37    1.84
   2   1   6   35.49    1.96
   2   1   6   37.22    1.97
  -3  -1  -6    3.29    0.48
  -3  -1  -6    3.60    0.52
   3   1   6    3.47    0.26
   3   1   6    3.28    0.24
   3   1   6    3.87    0.26
  -4  -1  -6    0.10    0.20
  -4  -1  -6   -0.13    0.19
  -4  -1  -6    0.18    0.11
   4   1   6    0.02    0.08
   4   1   6    0.07    0.08
  -5  -1  -6    0.19    0.20
  -5  -1  -6    0.03    0.10
   5   1   6    0.21    0.15
   5   1   6    0.09    0.10
   5  -2  -6    1.95    0.36
   5  -2  -6    2.15    0.41
  -5   2   6    1.71    0.22
  -5   2   6    2.33    0.25
   4  -2  -6    0.45    0.20
   4  -2  -6    0.27    0.19
   4  -2  -6    0.10    0.31
  -4   2   6    0.16    0.09
  -4   2   6    0.11    0.08
   3  -2  -6    0.87    0.22
   3  -2  -6    0.82    0.24
   3  -2  -6    1.20    0.38
  -3   2   6    0.90    0.13
  -3   2   6    0.86    0.12
  -3   2   6    0.99    0.15
   2  -2  -6   -0.02    0.12
   2  -2  -6    0.31    0.18
   2  -2  -6    0.54    0.29
  -2   2   6    0.37    0.08
  -2   2   6    0.25    0.06
  -2   2   6    0.42    0.10
   1  -2  -6    1.39    0.21
   1  -2  -6    1.13    0.37
   1  -2  -6    1.27    0.23
  -1   2   6    1.32    0.13
  -1   2   6    1.62    0.18
  -1   2   6    1.65    0.15
   0  -2  -6    7.32    0.55
   0  -2  -6    6.72    0.77
   0   2   6    7.75    0.43
   0   2   6    8.07    0.44
   0   2   6    8.57    0.54
   0   2   6    7.67    0.46
  -1  -2  -6    2.28    0.45
  -1  -2  -6    2.30    0.26
  -1  -2  -6    2.16    0.42
   1   2   6    2.78    0.18
   1   2   6    2.95    0.24
   1   2   6    2.60    0.17
   1   2   6    2.90    0.18
  -2  -2  -6    0.78    0.07
  -2  -2  -6    0.37    0.30
  -2  -2  -6    0.78    0.13
  -2  -2  -6    0.71    0.28
   2   2   6    0.76    0.09
   2   2   6    0.97    0.13
   2   2   6    0.69    0.10
   2   2   6    0.73    0.08
  -3  -2  -6    6.08    0.69
  -3  -2  -6    4.62    0.68
  -3  -2  -6    5.41    0.32
   3   2   6    4.81    0.32
   3   2   6    5.49    0.34
   3   2   6    5.32    0.34
  -4  -2  -6    2.07    0.41
  -4  -2  -6    1.16    0.38
   4   2   6    1.49    0.17
   4   2   6    0.96    0.16
   4   2   6    1.36    0.16
  -5  -2  -6   15.95    1.17
  -5  -2  -6   15.28    0.86
   5   2   6   14.26    0.88
  -6  -2  -6    7.63    0.71
  -6  -2  -6    7.47    0.52
   6   2   6    8.08    0.56
   4  -3  -6    0.11    0.22
   4  -3  -6    0.07    0.16
  -4   3   6    0.09    0.08
  -4   3   6    0.04    0.08
   3  -3  -6    0.27    0.21
   3  -3  -6    0.28    0.15
   3  -3  -6    0.20    0.32
  -3   3   6    0.16    0.09
  -3   3   6    0.40    0.09
  -3   3   6    0.38    0.13
   2  -3  -6    0.77    0.21
   2  -3  -6    0.53    0.17
   2  -3  -6    0.62    0.34
  -2   3   6    0.69    0.10
  -2   3   6    0.85    0.15
  -2   3   6    0.88    0.13
   1  -3  -6    1.16    0.21
   1  -3  -6    1.77    0.40
   1  -3  -6    1.95    0.28
  -1   3   6    1.55    0.16
  -1   3   6    1.80    0.21
  -1   3   6    1.71    0.14
   0  -3  -6    0.35    0.27
   0  -3  -6    0.23    0.10
   0  -3  -6    0.11    0.13
   0   3   6    0.32    0.07
   0   3   6    0.40    0.06
   0   3   6    0.22    0.09
  -1  -3  -6    1.76    0.24
  -1  -3  -6    1.46    0.37
   1   3   6    1.90    0.17
   1   3   6    1.66    0.21
   1   3   6    1.95    0.13
   1   3   6    2.06    0.19
   1   3   6    2.07    0.14
  -2  -3  -6    8.38    0.82
  -2  -3  -6    9.62    0.59
  -2  -3  -6    7.49    0.87
   2   3   6    8.88    0.50
   2   3   6    9.49    0.55
   2   3   6    9.81    0.53
   2   3   6    8.82    0.51
   2   3   6    8.96    0.50
  -3  -3  -6    0.01    0.07
  -3  -3  -6    0.02    0.02
  -3  -3  -6   -0.18    0.23
  -3  -3  -6   -0.07    0.27
   3   3   6    0.06    0.05
   3   3   6    0.09    0.05
   3   3   6   -0.02    0.05
   3   3   6    0.04    0.03
  -4  -3  -6    6.53    0.82
  -4  -3  -6    5.58    0.73
   4   3   6    6.83    0.40
   4   3   6    6.23    0.41
  -5  -3  -6    0.33    0.13
  -5  -3  -6    0.64    0.33
   5   3   6    0.19    0.11
  -6  -3  -6    1.15    0.20
  -6  -3  -6    1.26    0.36
   6   3   6    0.81    0.18
   4  -4  -6    1.63    0.33
   4  -4  -6    0.89    0.30
  -4   4   6    1.32    0.18
  -4   4   6    1.39    0.20
   3  -4  -6    2.92    0.39
   3  -4  -6    2.24    0.38
   3  -4  -6    2.34    0.55
  -3   4   6    3.13    0.29
  -3   4   6    3.53    0.26
  -3   4   6    3.46    0.34
   2  -4  -6    1.50    0.29
   2  -4  -6    1.49    0.26
   2  -4  -6    1.16    0.39
  -2   4   6    2.34    0.26
  -2   4   6    1.93    0.19
  -2   4   6    2.23    0.19
   1  -4  -6    0.26    0.13
   1  -4  -6   -0.06    0.14
   1  -4  -6    0.31    0.26
  -1   4   6    0.36    0.12
  -1   4   6    0.32    0.09
  -1   4   6    0.36    0.07
   0  -4  -6    4.12    0.33
   0  -4  -6    3.61    0.56
   0  -4  -6    3.88    0.40
   0   4   6    4.31    0.28
   0   4   6    4.36    0.35
   0   4   6    4.28    0.26
  -1  -4  -6    0.13    0.22
  -1  -4  -6    0.04    0.12
   1   4   6   -0.01    0.02
   1   4   6    0.09    0.06
   1   4   6    0.09    0.09
   1   4   6    0.07    0.06
  -2  -4  -6    3.83    0.60
  -2  -4  -6    3.83    0.35
   2   4   6    4.93    0.28
   2   4   6    4.44    0.27
   2   4   6    4.86    0.37
  -3  -4  -6    8.27    0.92
  -3  -4  -6    9.77    0.89
  -3  -4  -6    8.85    0.58
   3   4   6    9.62    0.53
   3   4   6    9.50    0.52
  -4  -4  -6   24.50    1.95
  -4  -4  -6   26.00    2.19
   4   4   6   29.49    1.48
   4   4   6   28.39    1.42
  -5  -4  -6    9.50    1.01
   5   4   6    9.26    0.55
   5   4   6    9.16    0.58
  -6  -4  -6    0.40    0.15
  -6  -4  -6    0.43    0.35
   6   4   6    0.39    0.15
   3  -5  -6    3.91    0.52
   3  -5  -6    3.09    0.44
   3  -5  -6    3.60    0.68
  -3   5   6    4.40    0.32
  -3   5   6    4.81    0.34
  -3   5   6    4.42    0.41
   2  -5  -6    0.42    0.33
   2  -5  -6    0.26    0.15
   2  -5  -6    0.22    0.19
  -2   5   6    0.03    0.11
  -2   5   6    0.08    0.07
  -2   5   6    0.12    0.09
   1  -5  -6    1.11    0.35
   1  -5  -6    0.52    0.17
   1  -5  -6    0.39    0.18
  -1   5   6    0.60    0.11
  -1   5   6    0.58    0.09
  -1   5   6    0.61    0.16
   0  -5  -6    0.21    0.11
   0  -5  -6    0.18    0.27
   0  -5  -6    0.22    0.16
   0   5   6    0.17    0.05
   0   5   6    0.18    0.10
   0   5   6    0.24    0.08
  -1  -5  -6    2.46    0.45
  -1  -5  -6    1.97    0.20
  -1  -5  -6    1.68    0.27
   1   5   6    2.18    0.15
   1   5   6    1.96    0.25
   1   5   6    2.30    0.17
   1   5   6    2.32    0.20
  -2  -5  -6   11.49    0.77
  -2  -5  -6   11.05    1.09
   2   5   6   12.83    0.83
   2   5   6   11.89    0.64
   2   5   6   12.13    0.64
  -3  -5  -6   28.67    2.35
  -3  -5  -6   29.23    1.73
   3   5   6   32.03    1.58
   3   5   6   29.85    1.52
  -4  -5  -6    1.75    0.47
  -4  -5  -6    1.25    0.46
   4   5   6    1.70    0.18
   4   5   6    1.89    0.17
  -5  -5  -6    0.82    0.43
   5   5   6    0.50    0.13
   5   5   6    0.56    0.12
  -6  -5  -6    0.57    0.16
  -6  -5  -6    0.82    0.45
   3  -6  -6    0.08    0.39
   3  -6  -6    0.16    0.20
   3  -6  -6    0.29    0.24
  -3   6   6    0.04    0.10
  -3   6   6   -0.01    0.14
  -3   6   6    0.02    0.10
   2  -6  -6    0.69    0.26
   2  -6  -6    0.30    0.18
   2  -6  -6    0.20    0.35
  -2   6   6    0.28    0.09
  -2   6   6    0.51    0.18
  -2   6   6    0.51    0.14
   1  -6  -6    0.67    0.23
   1  -6  -6    0.19    0.15
   1  -6  -6    0.37    0.32
  -1   6   6    0.45    0.15
  -1   6   6    0.44    0.08
  -1   6   6    0.56    0.12
   0  -6  -6    0.88    0.18
   0  -6  -6    0.88    0.22
   0  -6  -6    1.72    0.39
   0   6   6    1.35    0.13
   0   6   6    1.05    0.20
   0   6   6    1.12    0.15
  -1  -6  -6    0.88    0.32
  -1  -6  -6    0.85    0.20
  -1  -6  -6    0.60    0.13
   1   6   6    0.76    0.08
   1   6   6    0.82    0.12
   1   6   6    0.75    0.16
  -2  -6  -6    0.74    0.18
  -2  -6  -6    0.36    0.29
   2   6   6    0.67    0.07
   2   6   6    0.53    0.10
   2   6   6    0.55    0.14
  -3  -6  -6   31.58    2.61
  -3  -6  -6   34.21    1.96
   3   6   6   34.06    2.13
   3   6   6   35.47    1.76
   3   6   6   33.15    1.70
  -4  -6  -6   14.60    1.38
  -4  -6  -6   13.71    1.29
   4   6   6   16.44    0.83
  -5  -6  -6    1.01    0.45
  -5  -6  -6    1.30    0.49
   5   6   6    0.86    0.14
   2  -7  -6    0.39    0.43
   2  -7  -6    0.13    0.20
   2  -7  -6    0.25    0.24
  -2   7   6    0.17    0.09
  -2   7   6    0.16    0.12
  -2   7   6    0.31    0.18
   1  -7  -6    0.31    0.17
   1  -7  -6    0.30    0.23
   1  -7  -6    0.63    0.39
  -1   7   6    0.49    0.09
  -1   7   6    0.64    0.15
  -1   7   6    0.36    0.16
   0  -7  -6    0.12    0.18
   0  -7  -6    0.06    0.13
   0  -7  -6    0.09    0.27
   0   7   6    0.15    0.06
   0   7   6    0.24    0.09
   0   7   6    0.25    0.13
  -1  -7  -6    0.82    0.38
  -1  -7  -6    0.78    0.23
   1   7   6    1.09    0.10
   1   7   6    0.99    0.19
   1   7   6    0.91    0.14
  -2  -7  -6    0.89    0.21
  -2  -7  -6    0.97    0.38
   2   7   6    0.75    0.13
   2   7   6    0.93    0.19
  -3  -7  -6    6.59    0.86
  -3  -7  -6    7.09    0.53
   3   7   6    6.77    0.56
   3   7   6    7.42    0.42
  -4  -7  -6    0.66    0.41
   4   7   6    0.74    0.19
   4   7   6    0.32    0.09
  -5  -7  -6    0.73    0.50
  -5  -7  -6    0.90    0.47
   5   7   6    1.44    0.17
   1  -8  -6    0.34    0.41
   1  -8  -6    0.26    0.24
   1  -8  -6    0.33    0.20
  -1   8   6    0.24    0.17
  -1   8   6    0.29    0.12
   0  -8  -6    0.40    0.33
   0  -8  -6    0.43    0.22
   0  -8  -6    0.17    0.16
   0   8   6    0.23    0.16
   0   8   6    0.09    0.11
  -1  -8  -6    1.11    0.40
  -1  -8  -6    1.48    0.30
   1   8   6    1.15    0.23
   1   8   6    1.13    0.16
  -2  -8  -6    0.75    0.38
  -2  -8  -6    0.68    0.22
   2   8   6    0.70    0.12
   2   8   6    0.71    0.19
  -3  -8  -6    0.11    0.33
  -3  -8  -6    0.24    0.18
   3   8   6    0.30    0.15
   3   8   6    0.27    0.10
  -4  -8  -6   -0.28    0.36
   4   8   6    0.05    0.13
   4   8   6    0.13    0.08
   0  -9  -6   -0.03    0.42
   0  -9  -6    0.35    0.25
   0   9   6    0.17    0.17
   0   9   6    0.04    0.11
  -1  -9  -6    0.04    0.21
  -1  -9  -6    0.14    0.39
   1   9   6    0.05    0.13
   1   9   6   -0.02    0.10
  -2  -9  -6    0.21    0.35
  -2  -9  -6    0.19    0.22
   2   9   6    0.21    0.10
   2   9   6    0.12    0.16
  -3  -9  -6    0.55    0.37
  -3  -9  -6    0.20    0.20
   3   9   6    0.18    0.09
   3   9   6    0.28    0.16
   3   7  -7    0.18    0.26
  -3  -7   7    0.15    0.11
  -3  -7   7    0.17    0.14
   2   7  -7    0.26    0.17
   2   7  -7    0.98    0.30
  -2  -7   7    0.49    0.16
  -2  -7   7    0.20    0.12
   1   7  -7    1.61    0.29
   1   7  -7    1.32    0.36
  -1  -7   7    0.85    0.21
  -1  -7   7    1.21    0.21
  -1  -7   7    1.77    0.19
   0   7  -7    1.67    0.31
   0   7  -7    2.17    0.44
   0  -7   7    1.63    0.25
   0  -7   7    1.66    0.21
   0  -7   7    1.87    0.28
   4   6  -7    3.26    0.48
   4   6  -7    3.56    0.38
  -4  -6   7    2.59    0.22
  -4  -6   7    2.65    0.29
   3   6  -7    0.22    0.15
   3   6  -7    0.23    0.24
  -3  -6   7    0.10    0.07
  -3  -6   7    0.02    0.08
   2   6  -7    4.80    0.55
   2   6  -7    4.89    0.42
  -2  -6   7    4.57    0.36
  -2  -6   7    4.25    0.30
  -2  -6   7    4.48    0.38
   1   6  -7    2.10    0.30
   1   6  -7    2.37    0.41
  -1  -6   7    2.09    0.26
  -1  -6   7    2.28    0.28
  -1  -6   7    2.09    0.21
   0   6  -7    4.43    0.43
   0   6  -7    4.40    0.32
   0   6  -7    5.63    0.56
   0  -6   7    4.05    0.37
   0  -6   7    4.06    0.36
   0  -6   7    4.49    0.33
  -1   6  -7    1.70    0.31
  -1   6  -7    2.22    0.42
  -1   6  -7    2.14    0.24
   1  -6   7    1.80    0.26
   1  -6   7    2.21    0.28
   1  -6   7    2.40    0.26
   5   5  -7    2.40    0.38
   5   5  -7    2.31    0.34
  -5  -5   7    2.03    0.21
  -5  -5   7    1.93    0.25
   4   5  -7    0.75    0.19
   4   5  -7    0.31    0.22
  -4  -5   7    0.30    0.09
  -4  -5   7    0.41    0.12
   3   5  -7    0.09    0.12
   3   5  -7    0.18    0.18
  -3  -5   7    0.09    0.08
  -3  -5   7    0.07    0.06
   2   5  -7    2.99    0.31
   2   5  -7    3.84    0.47
   2   5  -7    3.08    0.33
  -2  -5   7    2.67    0.25
  -2  -5   7    2.76    0.21
   1   5  -7    6.00    0.36
   1   5  -7    5.96    0.49
  -1  -5   7    5.76    0.43
  -1  -5   7    6.28    0.38
   0   5  -7    0.75    0.14
   0   5  -7    1.24    0.24
   0   5  -7    1.45    0.31
   0  -5   7    1.15    0.18
   0  -5   7    1.31    0.16
   0  -5   7    1.17    0.19
  -1   5  -7    0.66    0.20
  -1   5  -7    0.98    0.16
  -1   5  -7    0.98    0.29
   1  -5   7    0.94    0.17
   1  -5   7    0.76    0.14
   1  -5   7    0.92    0.18
  -2   5  -7    1.44    0.28
  -2   5  -7    1.55    0.35
  -2   5  -7    1.12    0.21
   2  -5   7    1.76    0.22
   2  -5   7    1.24    0.23
   2  -5   7    1.37    0.22
   5   4  -7    0.51    0.20
   5   4  -7   -0.09    0.20
  -5  -4   7    0.31    0.11
  -5  -4   7    0.14    0.08
   4   4  -7    3.26    0.38
   4   4  -7    3.69    0.44
  -4  -4   7    3.29    0.27
  -4  -4   7    2.88    0.24
   3   4  -7    2.31    0.22
   3   4  -7    2.08    0.35
   3   4  -7    2.51    0.30
  -3  -4   7    2.33    0.23
  -3  -4   7    1.74    0.18
   2   4  -7    0.87    0.24
   2   4  -7    1.04    0.16
   2   4  -7    0.94    0.18
  -2  -4   7    0.64    0.12
  -2  -4   7    0.86    0.10
  -2  -4   7    0.88    0.11
   1   4  -7    0.85    0.16
   1   4  -7    1.14    0.26
   1   4  -7    0.76    0.18
  -1  -4   7    0.69    0.10
  -1  -4   7    1.23    0.16
   0   4  -7    4.71    0.32
   0   4  -7    5.93    0.44
   0   4  -7    4.06    0.49
   0  -4   7    4.62    0.36
   0  -4   7    4.81    0.36
   0  -4   7    4.69    0.32
  -1   4  -7    0.94    0.16
  -1   4  -7    1.27    0.24
  -1   4  -7    1.25    0.29
   1  -4   7    1.07    0.17
   1  -4   7    1.04    0.15
   1  -4   7    1.18    0.18
  -2   4  -7    1.07    0.29
  -2   4  -7    0.46    0.14
  -2   4  -7    0.88    0.22
   2  -4   7    0.92    0.16
   2  -4   7    0.78    0.17
   2  -4   7    0.86    0.16
  -3   4  -7    1.18    0.30
  -3   4  -7    1.17    0.27
  -3   4  -7    1.39    0.22
   3  -4   7    1.01    0.21
   3  -4   7    0.90    0.19
   5   3  -7    0.57    0.20
  -5  -3   7    0.06    0.09
  -5  -3   7    0.02    0.07
   4   3  -7    0.06    0.15
   4   3  -7    0.13    0.18
  -4  -3   7    0.06    0.07
  -4  -3   7    0.02    0.08
   3   3  -7    2.43    0.36
   3   3  -7    2.00    0.19
   3   3  -7    1.94    0.28
  -3  -3   7    2.14    0.14
  -3  -3   7    1.92    0.18
  -3  -3   7    2.22    0.20
   2   3  -7   18.93    1.34
   2   3  -7   18.09    1.07
   2   3  -7   16.12    1.03
  -2  -3   7   16.34    0.84
  -2  -3   7   15.65    0.90
  -2  -3   7   15.56    0.98
   1   3  -7    0.24    0.11
   1   3  -7    0.33    0.19
   1   3  -7    0.09    0.10
  -1  -3   7    0.34    0.09
  -1  -3   7    0.24    0.06
  -1  -3   7    0.26    0.06
   0   3  -7    0.08    0.16
   0   3  -7    0.07    0.10
   0   3  -7    0.19    0.13
   0  -3   7    0.10    0.05
   0  -3   7    0.20    0.07
   0  -3   7    0.11    0.07
  -1   3  -7    1.25    0.28
  -1   3  -7    1.06    0.16
  -1   3  -7    1.54    0.24
   1  -3   7    0.91    0.15
   1  -3   7    1.12    0.14
   1  -3   7    1.23    0.16
  -2   3  -7    5.11    0.50
  -2   3  -7    3.98    0.33
  -2   3  -7    5.02    0.46
   2  -3   7    4.10    0.32
   2  -3   7    4.29    0.35
   2  -3   7    4.52    0.33
  -3   3  -7    0.57    0.24
  -3   3  -7    0.21    0.16
  -3   3  -7    0.64    0.16
   3  -3   7    0.43    0.13
   3  -3   7    0.48    0.15
  -4   3  -7    0.30    0.15
  -4   3  -7    0.40    0.21
   4  -3   7    0.46    0.15
   4  -3   7    0.24    0.15
   5   2  -7    0.55    0.23
  -5  -2   7    0.38    0.12
  -5  -2   7    0.70    0.13
   4   2  -7    0.68    0.23
   4   2  -7    0.48    0.20
  -4  -2   7    0.67    0.10
  -4  -2   7    0.49    0.11
  -4  -2   7    0.56    0.11
   3   2  -7    0.69    0.24
   3   2  -7    0.53    0.19
   3   2  -7    0.60    0.10
  -3  -2   7    0.67    0.09
  -3  -2   7    0.35    0.08
  -3  -2   7    0.68    0.12
   2   2  -7    1.66    0.32
   2   2  -7    1.55    0.24
   2   2  -7    2.09    0.23
  -2  -2   7    1.42    0.13
  -2  -2   7    1.41    0.16
  -2  -2   7    1.17    0.13
   1   2  -7    0.56    0.14
   1   2  -7    0.40    0.16
   1   2  -7    1.06    0.28
  -1  -2   7    0.62    0.09
  -1  -2   7    0.70    0.09
  -1  -2   7    0.72    0.11
   0   2  -7    1.80    0.28
   0   2  -7    1.44    0.19
   0   2  -7    1.39    0.29
   0  -2   7    1.26    0.13
   0  -2   7    0.96    0.12
   0  -2   7    1.49    0.16
  -1   2  -7   12.16    0.82
  -1   2  -7   11.31    0.92
  -1   2  -7   10.84    0.65
   1  -2   7    9.81    0.61
   1  -2   7   10.75    0.59
   1  -2   7    9.67    0.65
  -2   2  -7    0.97    0.23
  -2   2  -7    1.33    0.29
  -2   2  -7    1.14    0.17
   2  -2   7    1.07    0.14
   2  -2   7    0.90    0.15
   2  -2   7    0.67    0.12
  -3   2  -7    5.43    0.38
  -3   2  -7    5.56    0.50
  -3   2  -7    5.75    0.54
   3  -2   7    4.50    0.38
   3  -2   7    4.33    0.36
  -4   2  -7    0.49    0.16
  -4   2  -7    0.25    0.19
   4  -2   7    0.38    0.14
   4  -2   7    0.38    0.16
   5   1  -7    0.66    0.28
  -5  -1   7    0.54    0.12
   4   1  -7    6.94    0.59
   4   1  -7    7.93    0.69
  -4  -1   7    5.96    0.46
  -4  -1   7    7.53    0.41
  -4  -1   7    6.64    0.43
   3   1  -7    6.62    0.64
   3   1  -7    6.30    0.51
  -3  -1   7    5.96    0.36
  -3  -1   7    4.32    0.37
  -3  -1   7    5.85    0.33
   2   1  -7    0.19    0.15
   2   1  -7    0.09    0.21
   2   1  -7    0.19    0.15
  -2  -1   7    0.07    0.05
  -2  -1   7    0.06    0.06
  -2  -1   7    0.02    0.05
   1   1  -7    1.99    0.40
   1   1  -7    1.96    0.25
   1   1  -7    2.31    0.33
  -1  -1   7    1.82    0.15
  -1  -1   7    1.80    0.18
  -1  -1   7    1.89    0.14
   0   1  -7    0.55    0.25
   0   1  -7    0.53    0.22
   0   1  -7    0.46    0.13
   0  -1   7    0.29    0.06
   0  -1   7    0.46    0.07
   0  -1   7    0.22    0.07
  -1   1  -7    9.80    0.76
  -1   1  -7    8.43    0.84
  -1   1  -7    9.14    0.57
   1  -1   7    9.60    0.51
   1  -1   7    8.95    0.53
   1  -1   7    9.36    0.57
  -2   1  -7    9.56    0.76
  -2   1  -7    9.71    0.85
   2  -1   7    9.70    0.59
   2  -1   7    9.04    0.55
   2  -1   7    8.80    0.53
   2  -1   7    9.07    0.55
  -3   1  -7    0.74    0.24
  -3   1  -7    0.66    0.23
  -3   1  -7    0.93    0.17
   3  -1   7    0.51    0.11
   3  -1   7    0.77    0.14
  -4   1  -7    1.66    0.24
  -4   1  -7    1.25    0.30
   4  -1   7    1.72    0.23
   4  -1   7    2.42    0.26
  -5   1  -7    0.01    0.19
  -5   1  -7    0.06    0.13
   5  -1   7    0.32    0.14
   5  -1   7    0.08    0.14
   5   0  -7    0.66    0.26
   5   0  -7    0.99    0.31
  -5   0   7    0.79    0.14
  -5   0   7    0.68    0.14
   4   0  -7    0.33    0.31
   4   0  -7   -0.01    0.20
   4   0  -7    0.41    0.20
  -4   0   7    0.19    0.08
  -4   0   7    0.12    0.07
   3   0  -7    0.19    0.20
   3   0  -7    0.60    0.31
   3   0  -7    0.04    0.16
  -3   0   7    0.09    0.06
  -3   0   7    0.08    0.05
   2   0  -7    2.15    0.35
   2   0  -7    1.75    0.28
   2   0  -7    3.18    0.53
  -2   0   7    2.14    0.17
  -2   0   7    2.17    0.18
  -2   0   7    1.88    0.17
   1   0  -7    5.96    0.47
   1   0  -7    6.37    0.70
   1   0  -7    6.48    0.60
  -1   0   7    5.93    0.36
  -1   0   7    6.00    0.34
  -1   0   7    5.80    0.38
   0   0  -7    0.10    0.19
   0   0  -7    0.16    0.24
   0   0  -7    0.01    0.10
   0   0   7    0.11    0.05
   0   0   7    0.07    0.05
   0   0   7    0.08    0.04
  -1   0  -7    1.02    0.15
  -1   0  -7    1.17    0.29
  -1   0  -7    1.01    0.34
   1   0   7    1.10    0.12
   1   0   7    1.09    0.12
   1   0   7    1.22    0.12
  -2   0  -7    0.11    0.20
  -2   0  -7    0.52    0.29
  -2   0  -7    0.32    0.08
   2   0   7    0.20    0.07
   2   0   7    0.61    0.16
   2   0   7    0.37    0.08
   2   0   7    0.34    0.08
  -3   0  -7    4.10    0.56
  -3   0  -7    5.15    0.57
   3   0   7    4.62    0.31
   3   0   7    4.60    0.32
   3   0   7    4.37    0.33
  -4   0  -7    0.97    0.26
  -4   0  -7    0.57    0.24
  -4   0  -7    0.78    0.17
   4   0   7    0.57    0.14
   4   0   7    0.94    0.15
  -5   0  -7    0.25    0.23
  -5   0  -7    0.26    0.15
   5   0   7    0.12    0.13
   5   0   7    0.24    0.15
   5  -1  -7    2.25    0.40
   5  -1  -7    1.82    0.39
  -5   1   7    2.94    0.28
  -5   1   7    3.26    0.28
   4  -1  -7    6.04    0.62
   4  -1  -7    4.49    0.55
   4  -1  -7    6.43    0.72
  -4   1   7    6.85    0.39
  -4   1   7    5.39    0.39
   3  -1  -7    0.76    0.23
   3  -1  -7    1.18    0.41
   3  -1  -7    0.95    0.23
   3  -1  -7    0.85    0.29
  -3   1   7    0.76    0.11
  -3   1   7    0.88    0.13
   2  -1  -7    1.79    0.45
   2  -1  -7    2.19    0.38
   2  -1  -7    1.58    0.26
   2  -1  -7    2.41    0.34
  -2   1   7    2.27    0.18
  -2   1   7    2.27    0.18
   1  -1  -7   14.01    1.10
   1  -1  -7   11.98    1.28
   1  -1  -7   14.94    0.96
  -1   1   7   15.03    0.81
  -1   1   7   15.17    0.78
  -1   1   7   15.61    0.86
   0  -1  -7    2.48    0.43
   0  -1  -7    1.61    0.44
   0  -1  -7    2.10    0.27
   0   1   7    1.79    0.15
   0   1   7    2.36    0.16
   0   1   7    2.09    0.16
  -1  -1  -7    2.10    0.24
  -1  -1  -7    1.61    0.42
  -1  -1  -7    2.12    0.42
   1   1   7    1.99    0.15
   1   1   7    2.25    0.16
   1   1   7    2.08    0.16
  -2  -1  -7    0.54    0.10
  -2  -1  -7    0.84    0.30
  -2  -1  -7    0.62    0.33
   2   1   7    0.36    0.08
   2   1   7    0.55    0.09
   2   1   7    0.68    0.16
   2   1   7    0.44    0.08
  -3  -1  -7    0.67    0.33
  -3  -1  -7    0.08    0.24
   3   1   7    0.33    0.09
   3   1   7    0.35    0.09
  -4  -1  -7   -0.17    0.21
  -4  -1  -7    0.15    0.24
   4   1   7    0.13    0.09
   4   1   7    0.24    0.10
  -5  -1  -7    2.69    0.30
  -5  -1  -7    3.35    0.50
   5   1   7    2.33    0.28
  -5   2   7    1.11    0.17
  -5   2   7    0.91    0.18
   4  -2  -7    0.35    0.38
   4  -2  -7    0.16    0.20
   4  -2  -7    0.16    0.22
  -4   2   7    0.03    0.07
  -4   2   7    0.11    0.09
   3  -2  -7    1.10    0.23
   3  -2  -7    1.12    0.26
   3  -2  -7    0.85    0.41
  -3   2   7    0.89    0.14
  -3   2   7    0.92    0.13
  -3   2   7    1.01    0.15
   2  -2  -7    5.14    0.75
   2  -2  -7    5.25    0.46
   2  -2  -7    4.70    0.51
  -2   2   7    5.90    0.35
  -2   2   7    5.37    0.35
  -2   2   7    6.01    0.42
   1  -2  -7    2.04    0.28
   1  -2  -7    1.93    0.49
   1  -2  -7    2.34    0.33
  -1   2   7    2.74    0.19
  -1   2   7    2.81    0.25
  -1   2   7    2.73    0.20
   0  -2  -7   15.02    1.43
   0  -2  -7   15.82    1.26
   0  -2  -7   17.87    1.07
   0   2   7   16.51    0.96
   0   2   7   17.42    0.88
   0   2   7   17.63    0.91
  -1  -2  -7    0.35    0.28
  -1  -2  -7    0.39    0.14
  -1  -2  -7    0.22    0.26
   1   2   7    0.45    0.14
   1   2   7    0.28    0.05
   1   2   7    0.13    0.05
   1   2   7    0.15    0.06
  -2  -2  -7    0.39    0.06
  -2  -2  -7    0.34    0.12
  -2  -2  -7    0.63    0.29
  -2  -2  -7    0.31    0.32
   2   2   7    0.34    0.06
   2   2   7    0.44    0.13
   2   2   7    0.30    0.07
   2   2   7    0.38    0.08
  -3  -2  -7    0.14    0.31
  -3  -2  -7    0.55    0.33
   3   2   7    0.72    0.12
   3   2   7    0.54    0.10
   3   2   7    0.56    0.10
  -4  -2  -7    4.18    0.64
  -4  -2  -7    5.62    0.72
   4   2   7    5.48    0.37
   4   2   7    4.87    0.36
   4   2   7    5.27    0.35
  -5  -2  -7    0.68    0.34
  -5  -2  -7    0.87    0.19
   5   2   7    0.53    0.14
   4  -3  -7    0.23    0.24
   4  -3  -7    0.06    0.17
  -4   3   7    0.09    0.10
  -4   3   7    0.07    0.08
   3  -3  -7   13.36    0.96
   3  -3  -7   10.99    1.26
   3  -3  -7   13.15    0.99
  -3   3   7   14.48    0.80
  -3   3   7   14.33    0.77
  -3   3   7   14.97    0.92
   2  -3  -7    0.78    0.20
   2  -3  -7    0.74    0.37
   2  -3  -7    1.12    0.26
  -2   3   7    0.93    0.16
  -2   3   7    0.68    0.12
  -2   3   7    0.59    0.10
   1  -3  -7    0.24    0.17
   1  -3  -7    0.29    0.14
   1  -3  -7    0.64    0.32
  -1   3   7    0.40    0.08
  -1   3   7    0.42    0.11
  -1   3   7    0.37    0.09
   0  -3  -7    0.06    0.28
   0  -3  -7   -0.08    0.13
   0   3   7    0.02    0.07
   0   3   7    0.14    0.05
   0   3   7    0.09    0.06
  -1  -3  -7    2.06    0.26
  -1  -3  -7    1.36    0.39
  -1  -3  -7    0.99    0.35
   1   3   7    1.35    0.15
   1   3   7    1.62    0.12
   1   3   7    2.17    0.22
   1   3   7    1.55    0.13
  -2  -3  -7    0.45    0.14
  -2  -3  -7    0.18    0.28
  -2  -3  -7    0.42    0.31
   2   3   7    0.31    0.05
   2   3   7    0.34    0.06
   2   3   7    0.17    0.09
   2   3   7    0.28    0.07
  -3  -3  -7    9.37    0.93
  -3  -3  -7    8.78    1.00
   3   3   7    9.59    0.57
   3   3   7   10.48    0.56
   3   3   7   10.06    0.57
  -4  -3  -7    7.70    0.99
  -4  -3  -7    9.59    1.00
   4   3   7    8.46    0.54
   4   3   7    9.58    0.53
  -5  -3  -7   23.25    1.66
   5   3   7   21.52    1.24
   4  -4  -7    0.19    0.28
   4  -4  -7    0.36    0.23
  -4   4   7   -0.05    0.08
  -4   4   7   -0.03    0.10
   3  -4  -7    8.66    0.77
   3  -4  -7    8.70    1.05
   3  -4  -7    8.77    0.74
  -3   4   7   10.78    0.60
  -3   4   7   11.40    0.73
  -3   4   7   10.00    0.60
   2  -4  -7   25.02    1.61
   2  -4  -7   24.81    1.56
   2  -4  -7   23.23    2.06
  -2   4   7   27.32    1.61
  -2   4   7   24.97    1.37
  -2   4   7   25.98    1.33
   1  -4  -7    1.19    0.26
   1  -4  -7    1.08    0.41
   1  -4  -7    1.30    0.22
  -1   4   7    1.48    0.17
  -1   4   7    1.69    0.22
  -1   4   7    1.67    0.15
   0  -4  -7    0.03    0.16
   0  -4  -7    0.45    0.14
   0  -4  -7    0.28    0.27
   0   4   7    0.10    0.09
   0   4   7    0.17    0.08
   0   4   7    0.25    0.06
  -1  -4  -7    2.64    0.33
  -1  -4  -7    2.57    0.54
   1   4   7    3.41    0.22
   1   4   7    3.23    0.31
   1   4   7    4.56    0.28
   1   4   7    3.27    0.24
   1   4   7    3.41    0.21
  -2  -4  -7    0.23    0.14
  -2  -4  -7    0.11    0.25
  -2  -4  -7    0.25    0.31
   2   4   7    0.27    0.07
   2   4   7    0.21    0.05
  -3  -4  -7    1.21    0.44
  -3  -4  -7    1.12    0.18
  -3  -4  -7    0.49    0.34
   3   4   7    1.27    0.13
   3   4   7    1.14    0.13
  -4  -4  -7   10.90    1.23
  -4  -4  -7   11.84    1.15
   4   4   7   14.10    0.73
   4   4   7   13.78    0.76
  -5  -4  -7    1.61    0.51
   5   4   7    2.01    0.22
   5   4   7    1.09    0.18
   3  -5  -7    4.95    0.85
   3  -5  -7    5.52    0.66
  -3   5   7    7.03    0.43
  -3   5   7    6.70    0.44
  -3   5   7    6.09    0.52
   2  -5  -7    0.31    0.21
   2  -5  -7    0.42    0.39
   2  -5  -7    0.17    0.17
  -2   5   7    0.25    0.08
  -2   5   7    0.32    0.11
  -2   5   7    0.38    0.15
   1  -5  -7    0.89    0.24
   1  -5  -7    0.81    0.39
   1  -5  -7    0.58    0.18
  -1   5   7    0.95    0.17
  -1   5   7    0.57    0.10
  -1   5   7    1.16    0.16
   0  -5  -7   -0.09    0.15
   0  -5  -7    0.12    0.27
   0  -5  -7   -0.04    0.12
   0   5   7   -0.04    0.04
   0   5   7   -0.03    0.06
   0   5   7    0.07    0.10
  -1  -5  -7    3.82    0.63
  -1  -5  -7    3.77    0.42
  -1  -5  -7    4.23    0.31
   1   5   7    4.14    0.28
   1   5   7    4.48    0.26
   1   5   7    4.45    0.38
  -2  -5  -7    7.32    0.91
  -2  -5  -7    6.69    0.54
   2   5   7    7.74    0.44
   2   5   7    7.96    0.43
   2   5   7    7.62    0.57
  -3  -5  -7    0.02    0.31
  -3  -5  -7   -0.24    0.32
  -3  -5  -7    0.04    0.14
   3   5   7    0.04    0.05
   3   5   7    0.11    0.07
  -4  -5  -7    3.31    0.64
  -4  -5  -7    4.10    0.71
   4   5   7    4.27    0.29
   4   5   7    3.91    0.28
  -5  -5  -7    3.08    0.66
   5   5   7    2.54    0.25
   3  -6  -7    2.17    0.61
   3  -6  -7    2.56    0.40
   3  -6  -7    1.73    0.41
  -3   6   7    3.30    0.39
  -3   6   7    2.42    0.28
  -3   6   7    2.95    0.27
   2  -6  -7    0.30    0.19
   2  -6  -7    0.68    0.44
   2  -6  -7    0.14    0.20
  -2   6   7    0.31    0.16
  -2   6   7    0.22    0.08
  -2   6   7    0.26    0.12
   1  -6  -7    0.51    0.38
   1  -6  -7    0.32    0.21
   1  -6  -7    0.33    0.17
  -1   6   7    0.69    0.11
  -1   6   7    0.44    0.12
  -1   6   7    0.61    0.18
   0  -6  -7    0.41    0.21
   0  -6  -7    0.67    0.17
   0  -6  -7    0.27    0.31
   0   6   7    0.60    0.12
   0   6   7    0.53    0.09
   0   6   7    0.65    0.17
  -1  -6  -7    5.26    0.51
  -1  -6  -7    4.49    0.70
   1   6   7    5.08    0.30
   1   6   7    5.28    0.44
   1   6   7    5.04    0.33
  -2  -6  -7    1.65    0.47
  -2  -6  -7    1.48    0.27
   2   6   7    1.66    0.24
   2   6   7    1.29    0.11
   2   6   7    1.59    0.17
  -3  -6  -7    4.53    0.74
  -3  -6  -7    4.77    0.42
   3   6   7    5.44    0.45
   3   6   7    4.88    0.30
   3   6   7    4.88    0.32
  -4  -6  -7    2.04    0.58
  -4  -6  -7    1.95    0.55
   4   6   7    2.33    0.22
  -5  -6  -7    0.22    0.41
   5   6   7    0.24    0.11
   2  -7  -7    0.40    0.26
   2  -7  -7    0.27    0.21
   2  -7  -7    0.35    0.45
  -2   7   7    0.25    0.14
  -2   7   7    0.33    0.19
  -2   7   7    0.19    0.09
   1  -7  -7    0.08    0.17
   1  -7  -7    0.89    0.43
   1  -7  -7    0.25    0.22
  -1   7   7    0.13    0.10
  -1   7   7    0.00    0.06
  -1   7   7   -0.05    0.11
   0  -7  -7    0.23    0.22
   0  -7  -7    0.56    0.40
   0  -7  -7    0.07    0.14
   0   7   7    0.09    0.09
   0   7   7   -0.03    0.10
   0   7   7    0.05    0.05
  -1  -7  -7   -0.03    0.31
  -1  -7  -7    0.18    0.17
   1   7   7    0.16    0.13
   1   7   7    0.07    0.08
  -2  -7  -7    0.89    0.24
  -2  -7  -7    0.78    0.39
   2   7   7    1.01    0.14
   2   7   7    0.75    0.19
  -3  -7  -7    0.03    0.18
  -3  -7  -7   -0.22    0.36
   3   7   7    0.09    0.13
   3   7   7   -0.02    0.07
  -4  -7  -7    0.10    0.42
   4   7   7    0.16    0.09
  -5  -7  -7    0.31    0.47
  -5  -7  -7    0.53    0.49
   5   7   7    0.00    0.09
   1  -8  -7    0.79    0.48
   1  -8  -7    0.48    0.28
   1  -8  -7    0.66    0.25
  -1   8   7    0.46    0.20
  -1   8   7    0.68    0.17
   0  -8  -7    0.26    0.23
   0  -8  -7    0.24    0.42
   0   8   7    0.10    0.15
   0   8   7    0.45    0.12
  -1  -8  -7    2.32    0.37
  -1  -8  -7    1.42    0.49
   1   8   7    2.24    0.31
   1   8   7    2.32    0.24
  -2  -8  -7   -0.03    0.21
  -2  -8  -7    0.08    0.37
   2   8   7    0.39    0.15
   2   8   7    0.17    0.10
  -3  -8  -7    0.50    0.23
  -3  -8  -7    0.77    0.45
   3   8   7    0.23    0.17
   3   8   7    0.35    0.10
  -4  -8  -7   -0.06    0.45
   4   8   7    0.44    0.17
   4   8   7    0.17    0.09
  -1  -9  -7    0.88    0.51
  -1  -9  -7    0.07    0.22
   1   9   7    0.03    0.14
   1   9   7    0.27    0.12
  -2  -9  -7    0.89    0.45
  -2  -9  -7    1.36    0.32
   2   9   7    0.99    0.26
   2   9   7    1.27    0.18
  -3  -9  -7   -0.01    0.22
  -3  -9  -7    0.42    0.45
   3   9   7    0.23    0.17
   3   9   7    0.07    0.10
   3   6  -8    0.47    0.18
   3   6  -8    0.78    0.30
  -3  -6   8    0.54    0.10
  -3  -6   8    0.13    0.11
   2   6  -8    0.71    0.19
   2   6  -8    0.84    0.29
  -2  -6   8    0.44    0.10
  -2  -6   8    0.60    0.15
   1   6  -8    9.91    0.77
  -1  -6   8    9.52    0.69
  -1  -6   8   10.31    0.69
  -1  -6   8   10.55    0.62
   0   6  -8    0.13    0.27
   0   6  -8    0.56    0.21
   0  -6   8    0.01    0.09
   0  -6   8    0.22    0.13
   0  -6   8    0.38    0.16
  -1   6  -8    0.08    0.18
  -1   6  -8    0.01    0.25
  -1   6  -8    0.29    0.14
   1  -6   8    0.03    0.15
   1  -6   8    0.05    0.09
   1  -6   8    0.16    0.14
   4   5  -8    0.29    0.25
   4   5  -8    0.27    0.18
  -4  -5   8    0.14    0.11
  -4  -5   8    0.10    0.07
   3   5  -8    2.74    0.33
   3   5  -8    3.29    0.46
  -3  -5   8    2.47    0.20
  -3  -5   8    2.33    0.26
   2   5  -8    2.61    0.31
   2   5  -8    2.16    0.39
   2   5  -8    2.21    0.29
  -2  -5   8    2.33    0.19
  -2  -5   8    2.62    0.28
   1   5  -8    0.15    0.13
   1   5  -8    0.07    0.18
  -1  -5   8    0.13    0.11
  -1  -5   8    0.13    0.07
   0   5  -8    1.63    0.20
   0   5  -8    2.10    0.31
   0   5  -8    1.99    0.38
   0  -5   8    1.56    0.19
   0  -5   8    1.93    0.24
   0  -5   8    1.92    0.25
  -1   5  -8    1.01    0.17
  -1   5  -8    1.34    0.35
  -1   5  -8    0.61    0.23
   1  -5   8    1.00    0.16
   1  -5   8    1.04    0.20
   1  -5   8    0.73    0.17
  -2   5  -8    1.34    0.37
  -2   5  -8    1.51    0.22
  -2   5  -8    0.73    0.25
   2  -5   8    0.92    0.20
   2  -5   8    1.11    0.22
   2  -5   8    1.40    0.21
   4   4  -8    0.25    0.18
   4   4  -8    0.21    0.22
  -4  -4   8    0.06    0.07
  -4  -4   8    0.05    0.09
   3   4  -8    0.95    0.28
   3   4  -8    1.00    0.22
  -3  -4   8    0.78    0.12
  -3  -4   8    0.81    0.15
   2   4  -8    2.77    0.31
   2   4  -8    2.70    0.30
   2   4  -8    3.24    0.44
  -2  -4   8    2.83    0.25
  -2  -4   8    2.46    0.20
   1   4  -8    6.05    0.44
   1   4  -8    6.31    0.61
   1   4  -8    5.92    0.48
  -1  -4   8    4.84    0.34
  -1  -4   8    5.05    0.39
   0   4  -8    0.29    0.17
   0   4  -8    0.24    0.21
   0   4  -8    0.34    0.12
   0  -4   8    0.13    0.07
   0  -4   8    0.21    0.09
  -1   4  -8    2.56    0.40
  -1   4  -8    2.18    0.33
  -1   4  -8    2.58    0.27
   1  -4   8    2.31    0.24
   1  -4   8    2.23    0.26
   1  -4   8    2.40    0.27
  -2   4  -8   -0.25    0.21
  -2   4  -8    0.14    0.14
  -2   4  -8    0.06    0.17
   2  -4   8    0.12    0.12
   2  -4   8   -0.03    0.11
   2  -4   8    0.10    0.10
  -3   4  -8    3.72    0.38
  -3   4  -8    3.54    0.46
  -3   4  -8    3.60    0.53
   3  -4   8    4.08    0.42
   3  -4   8    4.04    0.39
   5   3  -8    0.77    0.26
  -5  -3   8    0.35    0.11
  -5  -3   8    0.56    0.15
   4   3  -8    1.10    0.29
   4   3  -8    1.15    0.25
  -4  -3   8    0.92    0.14
  -4  -3   8    0.93    0.15
   3   3  -8    0.16    0.14
   3   3  -8    0.24    0.24
  -3  -3   8    0.03    0.06
  -3  -3   8   -0.09    0.05
   2   3  -8    2.30    0.27
   2   3  -8    2.84    0.43
   2   3  -8    2.30    0.30
  -2  -3   8    2.18    0.16
  -2  -3   8    2.24    0.23
  -2  -3   8    2.37    0.19
   1   3  -8   -0.08    0.09
   1   3  -8    0.27    0.13
   1   3  -8    0.07    0.18
  -1  -3   8    0.00    0.05
  -1  -3   8    0.05    0.05
  -1  -3   8   -0.06    0.06
   0   3  -8    4.57    0.46
   0   3  -8    4.43    0.49
   0   3  -8    3.78    0.32
   0  -3   8    3.62    0.27
   0  -3   8    4.11    0.31
   0  -3   8    3.99    0.27
  -1   3  -8    1.11    0.23
  -1   3  -8    0.63    0.14
  -1   3  -8    0.73    0.26
   1  -3   8    0.95    0.14
   1  -3   8    1.09    0.16
   1  -3   8    1.26    0.18
  -2   3  -8    1.50    0.22
  -2   3  -8    1.73    0.31
  -2   3  -8    1.97    0.36
   2  -3   8    1.88    0.21
   2  -3   8    1.38    0.19
   2  -3   8    1.51    0.22
  -3   3  -8    0.40    0.26
  -3   3  -8    0.16    0.18
  -3   3  -8    0.26    0.15
   3  -3   8    0.19    0.12
   3  -3   8    0.11    0.10
   5   2  -8    0.58    0.25
  -5  -2   8    0.44    0.12
  -5  -2   8    0.97    0.16
   4   2  -8    2.91    0.41
   4   2  -8    2.55    0.38
  -4  -2   8    2.18    0.23
  -4  -2   8    1.77    0.20
   3   2  -8   15.30    1.14
  -3  -2   8   12.96    0.79
  -3  -2   8   12.92    0.68
  -3  -2   8   11.66    0.73
   2   2  -8   11.65    0.81
   2   2  -8   12.49    1.05
   2   2  -8   11.50    0.79
  -2  -2   8   11.94    0.62
  -2  -2   8   11.03    0.72
   1   2  -8    0.20    0.23
   1   2  -8    0.13    0.12
   1   2  -8    0.38    0.17
  -1  -2   8    0.19    0.06
  -1  -2   8    0.12    0.07
  -1  -2   8    0.00    0.05
   0   2  -8    0.47    0.25
   0   2  -8    0.37    0.13
   0   2  -8    0.67    0.19
   0  -2   8    0.50    0.09
   0  -2   8    0.58    0.09
   0  -2   8    0.41    0.10
  -1   2  -8    0.12    0.21
  -1   2  -8   -0.14    0.14
  -1   2  -8   -0.02    0.08
   1  -2   8    0.03    0.05
   1  -2   8    0.02    0.06
   1  -2   8    0.07    0.08
  -2   2  -8    0.04    0.18
  -2   2  -8    0.23    0.18
   2  -2   8   -0.01    0.07
   2  -2   8    0.08    0.09
   2  -2   8   -0.04    0.06
  -3   2  -8   -0.16    0.19
  -3   2  -8    0.23    0.14
  -3   2  -8    0.34    0.19
   3  -2   8    0.24    0.12
   3  -2   8    0.06    0.08
  -4   2  -8    0.02    0.18
  -4   2  -8    0.18    0.15
   4  -2   8    0.33    0.15
   4  -2   8    0.28    0.14
   5   1  -8   -0.11    0.22
  -5  -1   8    0.03    0.08
  -5  -1   8    0.10    0.09
   4   1  -8    0.88    0.33
   4   1  -8    0.60    0.25
  -4  -1   8    1.07    0.16
  -4  -1   8    0.86    0.14
  -4  -1   8    0.64    0.12
   3   1  -8   -0.10    0.15
   3   1  -8    0.32    0.28
  -3  -1   8    0.02    0.06
  -3  -1   8    0.03    0.06
  -3  -1   8    0.13    0.07
   2   1  -8    0.14    0.27
   2   1  -8    0.60    0.22
   2   1  -8    0.20    0.16
  -2  -1   8    0.05    0.06
  -2  -1   8    0.13    0.07
  -2  -1   8   -0.05    0.04
   1   1  -8    0.19    0.21
   1   1  -8    0.81    0.33
   1   1  -8    0.21    0.15
  -1  -1   8    0.45    0.08
  -1  -1   8    0.41    0.08
  -1  -1   8    0.32    0.08
   0   1  -8    7.61    0.77
   0   1  -8    8.92    0.70
   0   1  -8    7.43    0.51
   0  -1   8    7.19    0.42
   0  -1   8    7.56    0.47
   0  -1   8    6.68    0.43
  -1   1  -8   12.92    0.77
  -1   1  -8   12.83    1.00
  -1   1  -8   12.58    1.14
   1  -1   8   12.49    0.77
   1  -1   8   13.40    0.69
   1  -1   8   12.09    0.71
  -2   1  -8    2.23    0.41
  -2   1  -8    2.12    0.38
   2  -1   8    2.14    0.20
   2  -1   8    2.40    0.21
   2  -1   8    1.69    0.20
   2  -1   8    2.52    0.22
  -3   1  -8   -0.03    0.10
  -3   1  -8   -0.06    0.17
  -3   1  -8   -0.02    0.20
   3  -1   8    0.13    0.10
   3  -1   8    0.10    0.08
  -4   1  -8    0.17    0.21
  -4   1  -8    0.26    0.15
   4  -1   8   -0.09    0.11
   4  -1   8   -0.08    0.09
   5   0  -8    0.56    0.31
   5   0  -8    0.02    0.22
  -5   0   8    0.47    0.12
  -5   0   8    0.05    0.10
   4   0  -8    2.79    0.43
   4   0  -8    3.82    0.58
  -4   0   8    3.27    0.26
  -4   0   8    3.26    0.25
   3   0  -8    7.76    0.83
   3   0  -8    5.76    0.61
   3   0  -8    7.37    0.62
  -3   0   8    6.97    0.43
  -3   0   8    8.03    0.49
   2   0  -8    0.33    0.25
   2   0  -8    0.43    0.19
   2   0  -8    0.80    0.34
  -2   0   8    0.25    0.08
  -2   0   8    0.25    0.08
  -2   0   8    0.25    0.07
   1   0  -8    0.22    0.15
   1   0  -8    0.20    0.30
   1   0  -8   -0.32    0.21
  -1   0   8    0.23    0.07
  -1   0   8    0.23    0.08
  -1   0   8    0.17    0.06
   0   0  -8    5.27    0.64
   0   0  -8    4.74    0.39
   0   0  -8    4.75    0.70
   0   0   8    4.86    0.32
   0   0   8    5.49    0.30
   0   0   8    4.37    0.30
  -1   0  -8    0.13    0.10
  -1   0  -8    0.23    0.28
  -1   0  -8   -0.05    0.24
   1   0   8    0.08    0.06
   1   0   8    0.05    0.05
   1   0   8    0.14    0.06
  -2   0  -8    0.13    0.08
  -2   0  -8    0.29    0.24
  -2   0  -8    0.35    0.31
   2   0   8    0.19    0.07
   2   0   8    0.14    0.07
   2   0   8    0.02    0.06
  -3   0  -8    0.48    0.32
  -3   0  -8    0.60    0.27
   3   0   8    0.33    0.10
   3   0   8    0.47    0.11
   3   0   8    0.36    0.10
  -4   0  -8    1.00    0.30
  -4   0  -8    0.66    0.31
  -4   0  -8    0.98    0.19
   4   0   8    0.66    0.16
   4   0   8    0.83    0.17
  -5   0  -8    0.00    0.13
   4  -1  -8    1.27    0.45
   4  -1  -8    0.95    0.28
   4  -1  -8    1.53    0.33
  -4   1   8    1.52    0.19
  -4   1   8    1.62    0.19
   3  -1  -8    2.03    0.33
   3  -1  -8    1.58    0.38
   3  -1  -8    3.84    0.63
   3  -1  -8    2.01    0.35
  -3   1   8    2.22    0.22
  -3   1   8    2.88    0.24
   2  -1  -8    7.74    0.98
   2  -1  -8    7.47    0.63
   2  -1  -8    7.45    0.74
  -2   1   8    8.64    0.52
  -2   1   8    7.59    0.48
  -2   1   8    8.38    0.47
   1  -1  -8   55.49    4.43
   1  -1  -8   56.66    3.77
   1  -1  -8   57.93    3.40
  -1   1   8   60.37    3.32
  -1   1   8   62.94    3.10
  -1   1   8   62.02    2.95
   0  -1  -8    8.42    0.94
   0  -1  -8    8.84    0.84
   0  -1  -8    9.90    0.65
   0   1   8    8.67    0.50
   0   1   8    9.32    0.52
   0   1   8    9.00    0.55
  -1  -1  -8    0.51    0.15
  -1  -1  -8    0.61    0.35
  -1  -1  -8    1.12    0.34
   1   1   8    0.64    0.09
   1   1   8    0.63    0.10
   1   1   8    0.63    0.09
  -2  -1  -8    2.24    0.21
  -2  -1  -8    1.83    0.41
  -2  -1  -8    2.46    0.53
   2   1   8    1.81    0.17
   2   1   8    2.44    0.19
   2   1   8    2.35    0.19
  -3  -1  -8    0.59    0.31
  -3  -1  -8    0.63    0.38
   3   1   8    0.70    0.12
   3   1   8    0.45    0.11
   3   1   8    0.57    0.11
  -4  -1  -8    0.37    0.29
  -4  -1  -8   -0.02    0.28
   4   1   8    0.26    0.12
   4   1   8    0.35    0.12
   4   1   8    0.15    0.10
  -5  -1  -8    5.40    0.64
  -5  -1  -8    4.37    0.40
   5   1   8    2.97    0.34
   4  -2  -8    1.81    0.36
   4  -2  -8    1.65    0.33
   4  -2  -8    1.53    0.52
  -4   2   8    1.52    0.19
  -4   2   8    0.94    0.16
   3  -2  -8    0.28    0.19
   3  -2  -8    0.07    0.36
   3  -2  -8    0.22    0.20
  -3   2   8    0.10    0.08
  -3   2   8    0.01    0.06
   2  -2  -8   44.10    3.79
   2  -2  -8   50.45    2.95
   2  -2  -8   49.98    2.94
  -2   2   8   52.27    2.52
  -2   2   8   53.11    2.64
   1  -2  -8    0.66    0.21
   1  -2  -8    0.90    0.38
   1  -2  -8    0.43    0.28
  -1   2   8    0.18    0.07
  -1   2   8    0.21    0.08
   0  -2  -8    3.26    0.63
   0  -2  -8    3.58    0.39
   0  -2  -8    3.81    0.56
   0   2   8    4.20    0.27
   0   2   8    4.51    0.27
   0   2   8    4.23    0.28
  -1  -2  -8    0.18    0.29
  -1  -2  -8    0.11    0.30
  -1  -2  -8    0.12    0.13
   1   2   8    0.04    0.05
   1   2   8    0.03    0.04
   1   2   8   -0.03    0.04
  -2  -2  -8    0.01    0.11
  -2  -2  -8    0.25    0.30
  -2  -2  -8    0.04    0.32
   2   2   8    0.00    0.05
   2   2   8    0.02    0.05
   2   2   8    0.16    0.06
  -3  -2  -8    1.41    0.49
  -3  -2  -8    0.92    0.37
   3   2   8    1.19    0.14
   3   2   8    1.48    0.17
   3   2   8    1.11    0.15
  -4  -2  -8    1.31    0.43
  -4  -2  -8    1.04    0.42
   4   2   8    0.87    0.16
   4   2   8    0.97    0.16
  -5  -2  -8    1.73    0.25
  -5  -2  -8    2.13    0.45
   5   2   8    1.23    0.20
   4  -3  -8    0.22    0.21
   4  -3  -8    0.07    0.25
  -4   3   8    0.10    0.10
  -4   3   8    0.14    0.09
   3  -3  -8    0.07    0.17
   3  -3  -8   -0.11    0.21
   3  -3  -8    1.24    0.49
  -3   3   8    0.20    0.10
  -3   3   8    0.11    0.07
  -3   3   8    0.22    0.11
   2  -3  -8   23.36    1.44
   2  -3  -8   20.90    1.38
   2  -3  -8   17.99    1.83
  -2   3   8   24.26    1.41
  -2   3   8   22.04    1.20
  -2   3   8   21.71    1.15
   1  -3  -8   45.20    2.80
   1  -3  -8   47.53    2.79
  -1   3   8   48.83    2.52
  -1   3   8   50.96    2.95
  -1   3   8   47.79    2.41
   0  -3  -8    4.24    0.46
   0  -3  -8    3.52    0.66
   0   3   8    5.20    0.31
   0   3   8    4.91    0.31
   0   3   8    4.64    0.30
  -1  -3  -8    0.13    0.30
  -1  -3  -8    0.26    0.15
  -1  -3  -8    0.39    0.30
   1   3   8    0.21    0.07
   1   3   8    0.15    0.05
   1   3   8    0.14    0.05
  -2  -3  -8    9.31    0.62
  -2  -3  -8    7.48    1.01
  -2  -3  -8    7.70    0.94
   2   3   8    9.81    0.54
   2   3   8   10.10    0.54
   2   3   8    9.40    0.54
  -3  -3  -8    1.64    0.55
  -3  -3  -8    3.37    0.58
   3   3   8    3.07    0.23
   3   3   8    3.34    0.24
  -4  -3  -8    0.58    0.46
  -4  -3  -8    0.55    0.38
   4   3   8    0.71    0.13
   4   3   8    0.71    0.14
  -5  -3  -8    0.88    0.39
   5   3   8    0.45    0.14
   5   3   8    0.21    0.12
   3  -4  -8    3.75    0.54
   3  -4  -8    4.45    0.80
   3  -4  -8    3.07    0.45
  -3   4   8    4.39    0.34
  -3   4   8    6.03    0.44
  -3   4   8    5.99    0.37
   2  -4  -8    5.57    0.60
   2  -4  -8    4.58    0.78
   2  -4  -8    4.63    0.51
  -2   4   8    5.99    0.46
  -2   4   8    5.72    0.37
  -2   4   8    5.71    0.38
   1  -4  -8    0.23    0.36
   1  -4  -8    0.24    0.15
   1  -4  -8   -0.03    0.18
  -1   4   8    0.25    0.07
  -1   4   8    0.32    0.09
  -1   4   8    0.39    0.14
   0  -4  -8    0.63    0.21
   0  -4  -8    1.63    0.45
   0   4   8    0.59    0.15
   0   4   8    0.68    0.10
   0   4   8    0.76    0.12
  -1  -4  -8    1.63    0.28
  -1  -4  -8    1.42    0.43
   1   4   8    1.63    0.13
   1   4   8    1.62    0.13
   1   4   8    1.88    0.24
   1   4   8    1.92    0.19
  -2  -4  -8    9.37    0.67
  -2  -4  -8    8.21    1.08
  -2  -4  -8    9.79    1.06
   2   4   8   10.99    0.56
   2   4   8    9.88    0.56
  -3  -4  -8    6.99    0.94
  -3  -4  -8    8.15    1.07
   3   4   8    9.50    0.53
   3   4   8    8.92    0.52
  -4  -4  -8    0.09    0.44
  -4  -4  -8    0.36    0.41
   4   4   8   -0.07    0.07
   4   4   8    0.31    0.10
  -5  -4  -8    0.31    0.39
   5   4   8    0.22    0.11
   5   4   8   -0.11    0.09
   3  -5  -8    2.90    0.50
   3  -5  -8    2.62    0.71
   3  -5  -8    3.61    0.48
  -3   5   8    5.75    0.45
  -3   5   8    4.36    0.33
  -3   5   8    4.81    0.36
   2  -5  -8    2.61    0.36
   2  -5  -8    1.98    0.58
  -2   5   8    3.19    0.35
  -2   5   8    3.48    0.30
  -2   5   8    2.91    0.24
   1  -5  -8    0.12    0.15
   1  -5  -8   -0.16    0.18
   1  -5  -8    0.05    0.33
  -1   5   8    0.08    0.11
  -1   5   8    0.22    0.09
  -1   5   8    0.14    0.06
   0  -5  -8    5.58    0.84
   0  -5  -8    5.31    0.58
   0  -5  -8    6.51    0.49
   0   5   8    6.68    0.41
   0   5   8    6.92    0.39
   0   5   8    6.27    0.51
  -1  -5  -8    0.14    0.17
  -1  -5  -8    0.45    0.35
   1   5   8    0.01    0.07
   1   5   8    0.19    0.05
   1   5   8    0.07    0.04
   1   5   8    0.14    0.11
  -2  -5  -8    0.08    0.18
  -2  -5  -8    0.39    0.38
   2   5   8    0.23    0.12
   2   5   8    0.19    0.08
   2   5   8    0.16    0.06
  -3  -5  -8    0.43    0.39
  -3  -5  -8    0.44    0.39
   3   5   8    0.10    0.08
   3   5   8    0.09    0.06
  -4  -5  -8    2.58    0.65
  -4  -5  -8    1.59    0.55
   4   5   8    2.61    0.23
   4   5   8    3.35    0.25
  -5  -5  -8    1.65    0.55
   5   5   8    0.78    0.16
   2  -6  -8   -0.04    0.16
   2  -6  -8   -0.14    0.21
   2  -6  -8    0.11    0.45
  -2   6   8    0.06    0.07
  -2   6   8    0.15    0.12
  -2   6   8   -0.10    0.12
   1  -6  -8   -0.04    0.16
   1  -6  -8   -0.18    0.18
   1  -6  -8    0.54    0.43
  -1   6   8    0.08    0.10
  -1   6   8    0.07    0.07
  -1   6   8    0.11    0.13
   0  -6  -8    0.75    0.25
   0  -6  -8    1.09    0.21
   0  -6  -8    1.20    0.46
   0   6   8    0.99    0.15
   0   6   8    0.95    0.20
   0   6   8    1.33    0.14
  -1  -6  -8    4.37    0.76
   1   6   8    6.43    0.37
   1   6   8    6.45    0.40
  -2  -6  -8    0.27    0.19
  -2  -6  -8   -0.03    0.33
   2   6   8    0.06    0.13
   2   6   8   -0.05    0.07
   2   6   8    0.03    0.05
  -3  -6  -8    0.87    0.47
   3   6   8    0.52    0.11
  -4  -6  -8    1.20    0.52
  -4  -6  -8    0.91    0.55
   4   6   8    1.68    0.19
  -5  -6  -8    1.12    0.56
   1  -7  -8    4.06    0.46
   1  -7  -8    3.50    0.76
   1  -7  -8    5.09    0.59
  -1   7   8    4.69    0.45
  -1   7   8    4.32    0.31
   0  -7  -8    4.21    0.51
   0  -7  -8    2.43    0.62
   0   7   8    4.34    0.31
   0   7   8    2.95    0.38
   0   7   8    3.76    0.26
  -1  -7  -8    0.01    0.36
  -1  -7  -8    0.05    0.19
   1   7   8    0.07    0.09
   1   7   8    0.05    0.12
  -2  -7  -8    5.86    0.87
  -2  -7  -8    5.58    0.55
   2   7   8    5.44    0.36
   2   7   8    4.87    0.47
  -3  -7  -8    1.23    0.52
   3   7   8    0.90    0.14
   3   7   8    0.96    0.22
  -4  -7  -8    0.44    0.49
  -4  -7  -8    0.15    0.53
   4   7   8    0.32    0.11
   0  -8  -8    0.81    0.51
   0  -8  -8    0.79    0.32
   0   8   8    1.81    0.30
   0   8   8    1.11    0.19
  -1  -8  -8    0.04    0.42
  -1  -8  -8    0.31    0.24
   1   8   8    0.04    0.10
   1   8   8   -0.09    0.14
  -2  -8  -8    0.16    0.23
  -2  -8  -8    0.19    0.40
   2   8   8    0.10    0.10
   2   8   8    0.14    0.13
  -3  -8  -8    0.25    0.43
   3   8   8    0.13    0.10
   3   8   8    0.06    0.14
   2   6  -9    0.47    0.32
   2   6  -9    0.37    0.19
  -2  -6   9    0.32    0.14
  -2  -6   9    0.47    0.12
   1   6  -9    0.53    0.22
   1   6  -9    0.25    0.30
  -1  -6   9    0.28    0.14
  -1  -6   9    0.05    0.09
  -1  -6   9    0.28    0.15
   3   5  -9    0.15    0.17
   3   5  -9    0.22    0.25
  -3  -5   9    0.11    0.10
  -3  -5   9    0.00    0.07
   2   5  -9    4.66    0.42
   2   5  -9    4.69    0.43
  -2  -5   9    4.62    0.38
  -2  -5   9    5.09    0.33
   1   5  -9    5.48    0.51
   1   5  -9    5.93    0.64
  -1  -5   9    4.99    0.42
  -1  -5   9    5.85    0.38
   0   5  -9    0.56    0.24
   0   5  -9    0.54    0.15
   0   5  -9    0.62    0.28
   0  -5   9    0.71    0.13
   0  -5   9    0.56    0.17
   0  -5   9    0.72    0.17
  -1   5  -9    0.20    0.24
  -1   5  -9    0.24    0.21
  -1   5  -9    0.11    0.15
   1  -5   9    0.17    0.11
   1  -5   9    0.12    0.13
   1  -5   9    0.10    0.13
   4   4  -9    0.50    0.24
   4   4  -9    1.07    0.33
  -4  -4   9    0.61    0.13
  -4  -4   9    0.62    0.14
   3   4  -9    1.48    0.36
   3   4  -9    1.23    0.25
  -3  -4   9    1.47    0.20
  -3  -4   9    1.16    0.15
   2   4  -9   -0.02    0.15
   2   4  -9    0.01    0.24
   2   4  -9    0.03    0.12
  -2  -4   9    0.05    0.08
  -2  -4   9    0.02    0.06
   1   4  -9    2.18    0.30
   1   4  -9    2.96    0.36
  -1  -4   9    2.94    0.24
  -1  -4   9    2.66    0.24
  -1  -4   9    3.10    0.30
   0   4  -9    1.14    0.26
   0   4  -9    1.17    0.32
   0   4  -9    1.15    0.19
   0  -4   9    1.34    0.20
   0  -4   9    1.02    0.15
  -1   4  -9    1.06    0.32
  -1   4  -9    1.01    0.26
  -1   4  -9    1.22    0.21
   1  -4   9    1.17    0.20
   1  -4   9    0.93    0.18
   1  -4   9    1.14    0.17
  -2   4  -9    3.00    0.50
  -2   4  -9    2.77    0.31
  -2   4  -9    2.24    0.39
   2  -4   9    2.37    0.28
   2  -4   9    2.89    0.34
   4   3  -9    0.45    0.22
   4   3  -9    0.47    0.28
  -4  -3   9    0.02    0.08
  -4  -3   9    0.30    0.11
   3   3  -9    1.21    0.36
   3   3  -9    1.60    0.28
  -3  -3   9    1.38    0.19
  -3  -3   9    1.34    0.16
   2   3  -9    5.82    0.60
   2   3  -9    3.96    0.43
   2   3  -9    5.33    0.41
  -2  -3   9    3.63    0.32
  -2  -3   9    4.09    0.27
  -2  -3   9    4.22    0.29
   1   3  -9    5.79    0.45
   1   3  -9    5.87    0.50
   1   3  -9    7.23    0.67
  -1  -3   9    5.26    0.39
  -1  -3   9    5.36    0.33
  -1  -3   9    4.85    0.35
   0   3  -9    0.71    0.26
   0   3  -9    0.78    0.23
   0   3  -9    0.76    0.17
   0  -3   9    0.64    0.11
   0  -3   9    0.52    0.13
   0  -3   9    0.60    0.11
  -1   3  -9    0.04    0.23
  -1   3  -9    0.35    0.20
   1  -3   9    0.08    0.10
   1  -3   9    0.00    0.08
   1  -3   9    0.11    0.07
  -2   3  -9    0.10    0.13
  -2   3  -9    0.28    0.27
  -2   3  -9    0.30    0.20
   2  -3   9   -0.01    0.11
   2  -3   9   -0.01    0.08
   2  -3   9    0.15    0.11
  -3   3  -9    0.48    0.29
  -3   3  -9   -0.17    0.15
  -3   3  -9    0.24    0.22
   3  -3   9    0.04    0.11
   3  -3   9    0.21    0.15
   4   2  -9    0.24    0.28
   4   2  -9    0.17    0.23
  -4  -2   9    0.20    0.09
  -4  -2   9    0.33    0.12
   3   2  -9    0.03    0.17
   3   2  -9    0.05    0.25
  -3  -2   9    0.07    0.07
  -3  -2   9    0.04    0.07
   2   2  -9    2.29    0.32
   2   2  -9    2.17    0.32
   2   2  -9    2.34    0.46
  -2  -2   9    2.12    0.22
  -2  -2   9    2.32    0.21
  -2  -2   9    2.21    0.19
   1   2  -9    0.43    0.27
   1   2  -9    0.47    0.20
   1   2  -9    0.37    0.15
  -1  -2   9    0.23    0.08
  -1  -2   9    0.22    0.08
  -1  -2   9    0.30    0.07
   0   2  -9    8.77    0.83
   0   2  -9    9.90    0.73
   0   2  -9    8.71    0.57
   0  -2   9    7.97    0.53
   0  -2   9    7.71    0.46
   0  -2   9    7.24    0.48
  -1   2  -9   14.38    1.08
  -1   2  -9   15.86    0.89
  -1   2  -9   14.00    1.24
   1  -2   9   14.17    0.79
   1  -2   9   13.58    0.82
   1  -2   9   14.41    0.89
  -2   2  -9    2.17    0.39
  -2   2  -9    3.21    0.49
   2  -2   9    2.55    0.26
   2  -2   9    2.41    0.27
   2  -2   9    3.44    0.30
  -3   2  -9    0.24    0.15
  -3   2  -9    0.41    0.24
  -3   2  -9   -0.09    0.25
   3  -2   9    0.45    0.14
   3  -2   9    0.20    0.12
   4   1  -9    0.43    0.35
   4   1  -9    0.14    0.23
  -4  -1   9    0.14    0.09
  -4  -1   9    0.03    0.08
   3   1  -9    3.11    0.41
   3   1  -9    5.33    0.67
  -3  -1   9    3.07    0.24
  -3  -1   9    3.32    0.28
  -3  -1   9    3.20    0.25
   2   1  -9    6.67    0.79
   2   1  -9    5.61    0.58
   2   1  -9    4.89    0.50
  -2  -1   9    5.36    0.37
  -2  -1   9    4.88    0.32
  -2  -1   9    4.94    0.34
   1   1  -9   10.82    0.76
   1   1  -9   12.95    1.12
   1   1  -9   10.97    0.89
  -1  -1   9   10.49    0.63
  -1  -1   9   11.20    0.60
  -1  -1   9   10.93    0.68
   0   1  -9    1.55    0.23
   0   1  -9    1.02    0.37
   0   1  -9    1.38    0.35
   0  -1   9    1.75    0.17
   0  -1   9    1.44    0.17
   0  -1   9    1.04    0.13
  -1   1  -9    4.18    0.53
  -1   1  -9    3.52    0.29
  -1   1  -9    4.61    0.62
   1  -1   9    3.15    0.25
   1  -1   9    3.21    0.27
   1  -1   9    3.38    0.25
  -2   1  -9    4.09    0.58
  -2   1  -9    3.57    0.53
   2  -1   9    3.03    0.25
   2  -1   9    3.05    0.27
   2  -1   9    2.92    0.27
  -3   1  -9    0.34    0.24
  -3   1  -9    0.88    0.34
   3  -1   9    0.23    0.10
   3  -1   9    0.28    0.13
  -4   1  -9    0.21    0.17
  -4   1  -9    0.15    0.22
   4  -1   9    0.44    0.15
   4  -1   9    0.46    0.14
   4   0  -9    1.57    0.35
   4   0  -9    2.30    0.50
  -4   0   9    1.56    0.19
  -4   0   9    1.48    0.20
  -4   0   9    1.54    0.19
   3   0  -9    3.13    0.59
   3   0  -9    1.32    0.32
  -3   0   9    1.95    0.21
  -3   0   9    2.47    0.22
  -3   0   9    2.13    0.23
   2   0  -9    4.45    0.53
   2   0  -9    5.60    0.66
   2   0  -9    6.01    0.83
  -2   0   9    5.97    0.39
  -2   0   9    6.71    0.38
  -2   0   9    6.32    0.41
   1   0  -9    8.13    0.61
   1   0  -9    8.35    0.88
   1   0  -9    7.27    0.79
  -1   0   9    7.40    0.50
  -1   0   9    7.53    0.46
  -1   0   9    8.21    0.45
   0   0  -9   94.66    5.64
   0   0  -9   92.86    6.61
   0   0  -9   93.41    5.06
   0   0   9   88.49    5.03
   0   0   9   91.35    4.45
   0   0   9   86.13    4.67
  -1   0  -9   12.67    1.10
  -1   0  -9   14.91    0.85
  -1   0  -9   13.21    1.26
   1   0   9   13.58    0.73
   1   0   9   13.06    0.76
   1   0   9   13.29    0.81
  -2   0  -9    0.21    0.31
  -2   0  -9    0.06    0.08
  -2   0  -9    0.29    0.28
   2   0   9    0.03    0.06
   2   0   9    0.01    0.07
   2   0   9    0.24    0.08
  -3   0  -9    2.28    0.46
  -3   0  -9    2.56    0.52
   3   0   9    2.45    0.25
   3   0   9    1.99    0.23
   3   0   9    2.28    0.24
  -4   0  -9    0.25    0.15
  -4   0  -9    0.12    0.26
   4   0   9    0.18    0.13
   4  -1  -9    0.20    0.25
   4  -1  -9    0.76    0.42
   4  -1  -9    0.34    0.22
  -4   1   9    0.35    0.12
  -4   1   9    0.15    0.09
   3  -1  -9    0.43    0.38
   3  -1  -9    0.20    0.20
  -3   1   9    0.15    0.08
  -3   1   9   -0.03    0.08
  -3   1   9    0.02    0.06
   2  -1  -9    0.43    0.42
   2  -1  -9    0.25    0.22
   2  -1  -9    0.82    0.37
  -2   1   9    0.35    0.09
  -2   1   9    0.39    0.09
  -2   1   9    0.44    0.10
   1  -1  -9   34.64    2.85
   1  -1  -9   36.53    2.15
   1  -1  -9   33.02    2.42
  -1   1   9   37.79    1.83
  -1   1   9   35.45    1.91
  -1   1   9   37.98    2.05
   0  -1  -9    1.54    0.47
   0  -1  -9    1.67    0.42
   0  -1  -9    1.33    0.26
   0   1   9    1.73    0.17
   0   1   9    1.79    0.17
   0   1   9    1.33    0.15
  -1  -1  -9    0.73    0.41
  -1  -1  -9    1.49    0.23
  -1  -1  -9    2.09    0.48
   1   1   9    1.25    0.15
   1   1   9    1.20    0.14
   1   1   9    1.50    0.16
  -2  -1  -9    0.67    0.37
  -2  -1  -9    1.33    0.45
  -2  -1  -9    1.28    0.17
   2   1   9    1.30    0.16
   2   1   9    0.87    0.13
   2   1   9    1.23    0.15
  -3  -1  -9    0.35    0.31
  -3  -1  -9   -0.18    0.33
   3   1   9    0.48    0.11
   3   1   9    0.21    0.10
   3   1   9    0.39    0.11
  -4  -1  -9    1.17    0.41
  -4  -1  -9    1.12    0.37
   4   1   9    0.92    0.17
   4   1   9    0.79    0.17
   4  -2  -9    0.66    0.30
   4  -2  -9    1.40    0.52
   4  -2  -9    0.98    0.29
  -4   2   9    1.70    0.21
  -4   2   9    0.95    0.15
   3  -2  -9    1.38    0.32
   3  -2  -9    0.53    0.24
   3  -2  -9    0.30    0.48
  -3   2   9    1.35    0.18
  -3   2   9    1.44    0.17
   2  -2  -9    4.97    0.69
   2  -2  -9    4.54    0.54
   2  -2  -9    4.89    0.81
  -2   2   9    5.59    0.37
  -2   2   9    6.69    0.38
  -2   2   9    5.70    0.39
   1  -2  -9   16.10    1.73
   1  -2  -9   18.59    1.49
   1  -2  -9   21.24    1.31
  -1   2   9   20.01    1.10
  -1   2   9   22.54    1.07
  -1   2   9   20.18    1.17
   0  -2  -9   22.06    1.36
   0  -2  -9   17.03    1.82
   0  -2  -9   20.34    1.61
   0   2   9   23.09    1.26
   0   2   9   23.24    1.18
   0   2   9   22.39    1.14
  -1  -2  -9   10.69    0.69
  -1  -2  -9    8.60    0.99
  -1  -2  -9    8.32    1.11
   1   2   9    9.95    0.60
   1   2   9   10.03    0.56
   1   2   9   10.35    0.57
  -2  -2  -9    0.69    0.39
  -2  -2  -9    1.11    0.46
  -2  -2  -9    1.03    0.18
   2   2   9    0.84    0.13
   2   2   9    0.72    0.11
   2   2   9    0.86    0.11
  -3  -2  -9    0.59    0.46
  -3  -2  -9    1.30    0.42
   3   2   9    0.73    0.14
   3   2   9    0.87    0.14
  -4  -2  -9    1.90    0.54
  -4  -2  -9    1.64    0.50
   4   2   9    1.51    0.20
   4   2   9    1.67    0.21
   3  -3  -9    3.19    0.48
   3  -3  -9    3.44    0.76
   3  -3  -9    3.17    0.44
  -3   3   9    3.52    0.28
  -3   3   9    4.56    0.31
   2  -3  -9    1.20    0.53
   2  -3  -9    0.75    0.23
   2  -3  -9    0.73    0.25
  -2   3   9    0.71    0.17
  -2   3   9    1.26    0.15
  -2   3   9    1.03    0.16
   1  -3  -9    1.99    0.34
   1  -3  -9    1.98    0.56
  -1   3   9    2.39    0.24
  -1   3   9    2.99    0.22
  -1   3   9    2.75    0.21
   0  -3  -9    1.18    0.43
   0  -3  -9    0.59    0.23
   0  -3  -9    0.81    0.43
   0   3   9    0.89    0.11
   0   3   9    1.09    0.15
   0   3   9    1.00    0.12
  -1  -3  -9    2.35    0.56
  -1  -3  -9    1.80    0.29
  -1  -3  -9    1.56    0.46
   1   3   9    2.22    0.21
   1   3   9    2.38    0.17
   1   3   9    2.67    0.19
  -2  -3  -9   14.44    0.92
  -2  -3  -9   13.05    1.24
  -2  -3  -9   12.54    1.37
   2   3   9   16.11    0.82
   2   3   9   15.13    0.80
  -3  -3  -9    0.60    0.36
  -3  -3  -9    0.57    0.46
   3   3   9    0.23    0.08
   3   3   9    0.34    0.10
  -4  -3  -9    0.76    0.39
  -4  -3  -9    0.22    0.48
   4   3   9    0.49    0.12
   4   3   9    0.49    0.13
  -5  -3  -9    0.64    0.42
   5   3   9    0.77    0.16
   5   3   9    0.56    0.16
   3  -4  -9    0.24    0.51
   3  -4  -9    0.49    0.25
   3  -4  -9    0.39    0.26
  -3   4   9    0.73    0.13
  -3   4   9    0.32    0.12
   2  -4  -9    2.74    0.38
   2  -4  -9    2.38    0.40
   2  -4  -9    3.16    0.72
  -2   4   9    2.78    0.27
  -2   4   9    2.83    0.24
  -2   4   9    3.86    0.37
   1  -4  -9    1.90    0.55
   1  -4  -9    2.42    0.38
   1  -4  -9    2.25    0.32
  -1   4   9    2.14    0.21
  -1   4   9    2.61    0.24
  -1   4   9    2.28    0.28
   0  -4  -9    0.07    0.19
   0  -4  -9    0.59    0.43
   0   4   9   -0.01    0.09
   0   4   9    0.06    0.05
   0   4   9    0.14    0.06
   0   4   9    0.11    0.07
  -1  -4  -9   13.87    1.49
  -1  -4  -9   12.71    1.31
  -1  -4  -9   14.19    1.05
   1   4   9   17.23    0.94
   1   4   9   17.79    0.89
   1   4   9   17.97    0.90
  -2  -4  -9    0.65    0.21
  -2  -4  -9    0.49    0.43
  -2  -4  -9    1.36    0.49
   2   4   9    1.00    0.12
   2   4   9    1.06    0.14
  -3  -4  -9    1.83    0.63
  -3  -4  -9    2.14    0.56
   3   4   9    2.61    0.24
   3   4   9    2.73    0.21
  -4  -4  -9    0.79    0.55
  -4  -4  -9    0.45    0.41
   4   4   9    1.12    0.16
   4   4   9    0.80    0.14
  -5  -4  -9    0.27    0.49
   5   4   9    0.62    0.15
   5   4   9    0.86    0.17
   2  -5  -9    2.87    0.41
   2  -5  -9    3.01    0.46
   2  -5  -9    2.46    0.69
  -2   5   9    3.28    0.30
  -2   5   9    3.58    0.38
  -2   5   9    2.90    0.25
   1  -5  -9    1.74    0.56
   1  -5  -9    1.21    0.33
   1  -5  -9    1.76    0.30
  -1   5   9    1.90    0.21
  -1   5   9    1.64    0.18
  -1   5   9    1.48    0.24
   0  -5  -9    0.59    0.41
   0  -5  -9    0.25    0.21
   0   5   9    0.31    0.13
   0   5   9    0.24    0.10
   0   5   9    0.31    0.08
  -1  -5  -9    1.17    0.46
  -1  -5  -9    0.78    0.24
   1   5   9    1.09    0.16
   1   5   9    1.19    0.13
   1   5   9    1.11    0.21
  -2  -5  -9    7.48    0.61
  -2  -5  -9    6.64    0.99
   2   5   9    8.15    0.47
   2   5   9    8.64    0.49
  -3  -5  -9    0.55    0.49
  -3  -5  -9    0.52    0.42
   3   5   9    0.24    0.08
   3   5   9    0.28    0.10
  -4  -5  -9    0.78    0.57
  -4  -5  -9    0.71    0.50
   4   5   9    0.50    0.12
   4   5   9    0.48    0.13
   2  -6  -9    0.46    0.54
   2  -6  -9   -0.01    0.22
   2  -6  -9    0.08    0.26
  -2   6   9    0.02    0.08
  -2   6   9    0.12    0.17
  -2   6   9    0.08    0.11
   1  -6  -9    1.03    0.55
   1  -6  -9    0.13    0.19
   1  -6  -9    0.56    0.27
  -1   6   9    0.24    0.15
  -1   6   9    0.29    0.10
  -1   6   9    0.14    0.11
   0  -6  -9    2.08    0.37
   0  -6  -9    2.34    0.67
   0   6   9    3.17    0.23
   0   6   9    3.57    0.38
   0   6   9    2.70    0.27
  -1  -6  -9    0.67    0.26
  -1  -6  -9    0.47    0.44
   1   6   9    0.72    0.14
   1   6   9    0.85    0.11
   1   6   9    0.80    0.19
  -2  -6  -9    0.60    0.44
  -2  -6  -9    0.15    0.20
   2   6   9    0.21    0.07
   2   6   9    0.33    0.10
   2   6   9    0.18    0.13
  -3  -6  -9    0.87    0.50
  -3  -6  -9    0.13    0.40
   3   6   9    0.41    0.11
  -4  -6  -9    0.21    0.51
  -4  -6  -9    0.37    0.49
   4   6   9    0.04    0.10
   1  -7  -9    0.65    0.33
   1  -7  -9    0.98    0.60
  -1   7   9    0.46    0.12
  -1   7   9    0.16    0.13
  -1   7   9    0.74    0.21
   0  -7  -9    1.80    0.40
   0  -7  -9    2.51    0.70
   0   7   9    2.78    0.36
   0   7   9    2.45    0.22
   0   7   9    3.05    0.28
  -1  -7  -9    0.42    0.27
  -1  -7  -9    0.11    0.41
   1   7   9    0.59    0.19
   1   7   9    0.94    0.16
  -2  -7  -9    0.99    0.30
  -2  -7  -9    1.30    0.52
   2   7   9    0.73    0.21
   2   7   9    1.32    0.18
  -3  -7  -9    0.54    0.48
   3   7   9    0.30    0.11
  -4  -7  -9    0.71    0.60
  -4  -7  -9    0.19    0.46
   4   7   9    0.46    0.13
  -1  -8  -9    0.26    0.52
  -1  -8  -9    0.06    0.25
   1   8   9    0.18    0.12
   1   8   9    0.06    0.15
  -2  -8  -9    0.30    0.24
  -2  -8  -9    0.63    0.49
   2   8   9    0.26    0.12
   2   8   9    0.16    0.16
  -2  -5  10    0.17    0.09
  -2  -5  10    0.14    0.12
   1   5 -10    0.60    0.32
   1   5 -10    0.56    0.22
  -1  -5  10    0.32    0.10
  -1  -5  10    0.06    0.12
   3   4 -10    0.18    0.18
   3   4 -10    0.45    0.32
  -3  -4  10    0.25    0.09
  -3  -4  10    0.28    0.12
   2   4 -10    1.93    0.42
   2   4 -10    2.01    0.31
   2   4 -10    2.50    0.32
  -2  -4  10    1.73    0.24
  -2  -4  10    1.95    0.21
   1   4 -10    0.15    0.29
   1   4 -10    0.32    0.17
   1   4 -10    0.38    0.21
  -1  -4  10    0.37    0.12
  -1  -4  10    0.40    0.10
   0   4 -10    0.22    0.20
   0   4 -10    0.18    0.24
   0   4 -10    0.16    0.13
   0  -4  10    0.08    0.08
   0  -4  10    0.12    0.10
  -1   4 -10    0.51    0.24
  -1   4 -10    0.24    0.16
  -1   4 -10    0.04    0.29
   1  -4  10    0.28    0.11
   1  -4  10    0.42    0.16
   1  -4  10    0.32    0.15
   3   3 -10    0.38    0.21
   3   3 -10    0.41    0.30
  -3  -3  10    0.51    0.13
  -3  -3  10    0.43    0.10
   2   3 -10    0.11    0.15
   2   3 -10    0.16    0.15
   2   3 -10    0.02    0.25
  -2  -3  10    0.02    0.06
  -2  -3  10    0.04    0.09
   1   3 -10    4.75    0.43
   1   3 -10    4.48    0.62
   1   3 -10    4.09    0.46
  -1  -3  10    3.48    0.27
  -1  -3  10    3.22    0.30
  -1  -3  10    3.72    0.26
   0   3 -10    0.20    0.14
   0   3 -10    0.55    0.23
   0   3 -10    0.19    0.25
   0  -3  10    0.22    0.11
   0  -3  10    0.14    0.08
   0  -3  10    0.08    0.09
  -1   3 -10   11.48    0.88
   1  -3  10   10.82    0.69
   1  -3  10    9.90    0.70
   1  -3  10   10.45    0.66
  -2   3 -10   20.31    1.39
  -2   3 -10   19.52    1.09
  -2   3 -10   21.99    1.60
   2  -3  10   17.41    1.09
   2  -3  10   16.76    1.16
   4   2 -10    0.84    0.38
   4   2 -10    0.95    0.30
  -4  -2  10    0.91    0.16
  -4  -2  10    0.41    0.12
   3   2 -10    0.23    0.32
   3   2 -10    0.11    0.20
  -3  -2  10    0.33    0.12
  -3  -2  10    0.38    0.10
   2   2 -10    0.93    0.36
   2   2 -10    0.86    0.23
   2   2 -10    0.76    0.23
  -2  -2  10    0.55    0.13
  -2  -2  10    0.43    0.10
  -2  -2  10    0.47    0.10
   1   2 -10    3.81    0.60
   1   2 -10    3.81    0.48
   1   2 -10    4.07    0.42
  -1  -2  10    3.21    0.25
  -1  -2  10    3.56    0.30
  -1  -2  10    3.47    0.25
   0   2 -10    9.36    0.73
   0   2 -10    8.10    0.55
   0   2 -10    7.72    0.81
   0  -2  10    7.02    0.50
   0  -2  10    7.53    0.45
   0  -2  10    6.72    0.46
  -1   2 -10    1.20    0.36
  -1   2 -10    1.31    0.33
  -1   2 -10    1.24    0.20
   1  -2  10    0.94    0.15
   1  -2  10    1.25    0.19
   1  -2  10    0.82    0.15
  -2   2 -10    5.32    0.61
  -2   2 -10    5.09    0.65
   2  -2  10    3.74    0.34
   2  -2  10    3.28    0.33
  -3   2 -10    2.56    0.45
  -3   2 -10    2.81    0.35
  -3   2 -10    3.47    0.54
   3  -2  10    2.24    0.29
   3  -2  10    2.13    0.29
   4   1 -10    0.93    0.40
   4   1 -10    0.60    0.29
  -4  -1  10    0.16    0.10
  -4  -1  10    0.52    0.15
   3   1 -10    4.76    0.53
   3   1 -10    6.07    0.80
  -3  -1  10    4.32    0.34
  -3  -1  10    4.98    0.32
  -3  -1  10    4.62    0.36
   2   1 -10    2.51    0.39
   2   1 -10    1.86    0.50
   2   1 -10    1.89    0.32
  -2  -1  10    1.72    0.20
  -2  -1  10    1.37    0.17
  -2  -1  10    1.69    0.17
   1   1 -10    0.06    0.31
   1   1 -10    0.06    0.26
   1   1 -10    0.08    0.15
  -1  -1  10    0.15    0.07
  -1  -1  10    0.10    0.06
  -1  -1  10    0.14    0.08
   0   1 -10    8.63    0.61
   0   1 -10    9.07    0.95
   0   1 -10   10.35    0.83
   0  -1  10    7.71    0.51
   0  -1  10    9.03    0.50
   0  -1  10    8.39    0.56
  -1   1 -10   36.45    2.19
  -1   1 -10   33.31    1.82
  -1   1 -10   32.30    2.50
   1  -1  10   28.92    1.69
   1  -1  10   30.39    1.82
   1  -1  10   30.71    1.62
  -2   1 -10    1.99    0.42
  -2   1 -10    1.69    0.46
   2  -1  10    1.97    0.23
   2  -1  10    1.98    0.23
   2  -1  10    1.73    0.21
  -3   1 -10    0.13    0.24
  -3   1 -10   -0.18    0.31
   3  -1  10    0.09    0.10
   3  -1  10    0.11    0.11
   4   0 -10    0.33    0.39
   4   0 -10    0.47    0.28
  -4   0  10    0.40    0.12
  -4   0  10    0.25    0.10
  -4   0  10    0.05    0.10
   3   0 -10   -0.03    0.20
   3   0 -10    0.81    0.45
  -3   0  10    0.19    0.10
  -3   0  10    0.05    0.08
  -3   0  10    0.14    0.09
   2   0 -10    6.50    0.87
   2   0 -10    4.59    0.52
  -2   0  10    4.89    0.32
  -2   0  10    4.83    0.33
  -2   0  10    4.67    0.35
   1   0 -10    0.31    0.30
   1   0 -10    0.32    0.34
   1   0 -10    0.14    0.17
  -1   0  10    0.23    0.08
  -1   0  10    0.27    0.07
  -1   0  10    0.19    0.08
   0   0 -10    3.15    0.62
   0   0 -10    4.00    0.58
   0   0 -10    3.55    0.38
   0   0  10    2.59    0.23
   0   0  10    2.64    0.21
   0   0  10    2.77    0.24
  -1   0 -10    5.08    0.39
  -1   0 -10    4.45    0.73
  -1   0 -10    4.43    0.64
   1   0  10    4.74    0.32
   1   0  10    4.42    0.33
   1   0  10    4.44    0.32
  -2   0 -10   -0.02    0.28
  -2   0 -10   -0.10    0.34
   2   0  10    0.12    0.08
   2   0  10    0.14    0.09
   2   0  10    0.07    0.08
  -3   0 -10    7.12    0.85
  -3   0 -10    6.52    0.75
   3   0  10    5.72    0.41
   3   0  10    5.32    0.41
   3   0  10    5.12    0.40
   3  -1 -10    3.06    0.46
   3  -1 -10    5.20    0.82
  -3   1  10    4.58    0.31
  -3   1  10    3.35    0.30
   2  -1 -10    1.22    0.44
   2  -1 -10    1.91    0.58
   2  -1 -10    1.32    0.30
  -2   1  10    1.20    0.16
  -2   1  10    1.77    0.19
  -2   1  10    2.17    0.21
   1  -1 -10    8.58    1.11
   1  -1 -10    8.64    0.93
   1  -1 -10    8.16    0.67
  -1   1  10    9.08    0.51
  -1   1  10    8.90    0.53
  -1   1  10    8.59    0.55
   0  -1 -10    9.84    0.70
   0  -1 -10    8.24    1.12
   0  -1 -10    9.34    1.00
   0   1  10    9.69    0.55
   0   1  10    9.55    0.59
   0   1  10    9.92    0.56
  -1  -1 -10    8.11    0.93
  -1  -1 -10    7.95    0.58
  -1  -1 -10    7.47    1.00
   1   1  10    7.89    0.47
   1   1  10    7.55    0.50
   1   1  10    8.66    0.49
  -2  -1 -10    7.94    0.89
  -2  -1 -10    6.04    0.89
   2   1  10    5.82    0.41
   2   1  10    6.33    0.41
   2   1  10    5.74    0.39
  -3  -1 -10    0.07    0.41
  -3  -1 -10    0.54    0.33
   3   1  10    0.31    0.12
   3   1  10    0.08    0.09
  -4  -1 -10    0.13    0.33
   4   1  10    0.25    0.12
   4   1  10    0.14    0.11
   3  -2 -10    0.24    0.23
   3  -2 -10    0.06    0.46
  -3   2  10   -0.03    0.07
  -3   2  10    0.08    0.11
  -3   2  10    0.14    0.09
   2  -2 -10    1.62    0.60
   2  -2 -10    1.10    0.29
   2  -2 -10    0.86    0.45
  -2   2  10    0.86    0.14
  -2   2  10    1.12    0.16
  -2   2  10    1.50    0.18
   1  -2 -10    0.37    0.42
   1  -2 -10    0.05    0.19
   1  -2 -10    0.10    0.36
  -1   2  10    0.09    0.07
  -1   2  10    0.29    0.08
  -1   2  10    0.01    0.06
   0  -2 -10    2.81    0.69
   0  -2 -10    3.44    0.44
   0  -2 -10    3.34    0.62
   0   2  10    4.32    0.30
   0   2  10    4.48    0.30
   0   2  10    4.87    0.30
  -1  -2 -10    0.11    0.39
  -1  -2 -10    0.91    0.41
  -1  -2 -10    0.12    0.18
   1   2  10    0.00    0.07
   1   2  10    0.06    0.06
   1   2  10    0.17    0.07
  -2  -2 -10    0.47    0.42
  -2  -2 -10    0.83    0.41
   2   2  10    0.20    0.09
   2   2  10    0.54    0.11
   2   2  10    0.35    0.09
  -3  -2 -10    9.39    1.21
  -3  -2 -10    9.98    1.11
   3   2  10   10.65    0.62
   3   2  10   10.64    0.64
  -4  -2 -10    1.32    0.51
  -4  -2 -10    1.18    0.45
   4   2  10    0.73    0.16
   4   2  10    0.95    0.18
   3  -3 -10    0.10    0.22
   3  -3 -10    0.56    0.28
   3  -3 -10    0.22    0.59
  -3   3  10    0.45    0.13
  -3   3  10    0.16    0.11
   2  -3 -10    1.06    0.56
   2  -3 -10   -0.08    0.20
   2  -3 -10    0.59    0.43
  -2   3  10    0.19    0.09
  -2   3  10    0.21    0.10
  -2   3  10    0.20    0.09
   1  -3 -10   -0.01    0.37
   1  -3 -10    0.14    0.20
   1  -3 -10    0.26    0.41
  -1   3  10    0.00    0.07
  -1   3  10    0.10    0.07
  -1   3  10   -0.02    0.07
   0  -3 -10    0.28    0.42
   0  -3 -10    0.37    0.44
   0  -3 -10   -0.04    0.18
   0   3  10    0.11    0.08
   0   3  10    0.01    0.05
   0   3  10    0.08    0.06
  -1  -3 -10    0.98    0.25
  -1  -3 -10    1.83    0.52
  -1  -3 -10    0.52    0.41
   1   3  10    1.24    0.13
   1   3  10    0.92    0.14
   1   3  10    1.02    0.12
  -2  -3 -10    3.68    0.40
  -2  -3 -10    3.53    0.69
  -2  -3 -10    3.89    0.77
   2   3  10    4.60    0.30
   2   3  10    4.29    0.30
  -3  -3 -10    0.07    0.49
  -3  -3 -10    0.54    0.48
   3   3  10    0.07    0.09
   3   3  10    0.32    0.10
  -4  -3 -10    0.81    0.49
  -4  -3 -10    0.63    0.48
   4   3  10    0.66    0.15
   4   3  10    0.79    0.16
   2  -4 -10    0.28    0.25
   2  -4 -10    0.49    0.22
   2  -4 -10    0.73    0.55
  -2   4  10    0.20    0.10
  -2   4  10    0.26    0.12
  -2   4  10   -0.04    0.12
   1  -4 -10    0.13    0.21
   1  -4 -10    0.53    0.48
  -1   4  10    0.51    0.11
  -1   4  10    0.33    0.12
  -1   4  10    0.62    0.11
   0  -4 -10    1.02    0.28
   0  -4 -10    1.31    0.55
   0  -4 -10    1.98    0.54
   0   4  10    1.64    0.17
   0   4  10    2.16    0.19
   0   4  10    1.85    0.20
  -1  -4 -10    2.80    0.72
  -1  -4 -10    2.92    0.66
  -1  -4 -10    3.79    0.44
   1   4  10    4.03    0.27
   1   4  10    4.21    0.29
  -2  -4 -10    3.54    0.40
  -2  -4 -10    4.00    0.73
  -2  -4 -10    2.29    0.70
   2   4  10    3.91    0.26
   2   4  10    3.14    0.29
  -3  -4 -10   -0.05    0.40
  -3  -4 -10    0.39    0.57
   3   4  10    0.89    0.15
   3   4  10    0.60    0.12
  -4  -4 -10    0.68    0.60
  -4  -4 -10    0.16    0.43
   4   4  10    0.66    0.14
   4   4  10    0.77    0.16
   2  -5 -10    0.85    0.57
   2  -5 -10    0.23    0.22
   2  -5 -10    0.16    0.25
  -2   5  10   -0.08    0.13
  -2   5  10    0.09    0.09
  -2   5  10    0.16    0.12
   1  -5 -10    0.01    0.18
   1  -5 -10    0.25    0.24
   1  -5 -10    0.58    0.53
  -1   5  10    0.04    0.13
  -1   5  10    0.07    0.08
  -1   5  10    0.05    0.10
   0  -5 -10    1.61    0.35
   0  -5 -10    1.36    0.59
   0   5  10    1.55    0.27
   0   5  10    2.39    0.20
   0   5  10    2.33    0.24
  -1  -5 -10    1.93    0.35
  -1  -5 -10    1.72    0.62
  -1  -5 -10    2.24    0.61
   1   5  10    2.78    0.25
   1   5  10    2.44    0.19
  -2  -5 -10    0.11    0.22
  -2  -5 -10    0.08    0.46
  -2  -5 -10    0.02    0.38
   2   5  10    0.24    0.09
   2   5  10    0.07    0.06
  -3  -5 -10    0.36    0.52
  -3  -5 -10    0.04    0.42
   3   5  10    0.46    0.12
   3   5  10    0.40    0.10
  -4  -5 -10    0.05    0.46
  -4  -5 -10    0.50    0.58
   4   5  10    0.30    0.13
   4   5  10    0.13    0.10
   1  -6 -10    0.47    0.29
   1  -6 -10    0.11    0.53
  -1   6  10    0.19    0.11
  -1   6  10    0.28    0.10
  -1   6  10    0.24    0.17
   0  -6 -10    0.63    0.29
   0  -6 -10    0.36    0.51
   0   6  10    0.45    0.10
   0   6  10    0.65    0.20
   0   6  10    0.59    0.14
  -1  -6 -10    1.90    0.62
  -1  -6 -10    1.23    0.32
   1   6  10    1.32    0.25
   1   6  10    1.38    0.19
   1   6  10    1.61    0.16
  -2  -6 -10    0.81    0.49
  -2  -6 -10    0.10    0.25
  -2  -6 -10    0.10    0.48
   2   6  10    0.00    0.06
   2   6  10    0.25    0.10
  -3  -6 -10    0.79    0.61
  -3  -6 -10    0.17    0.45
   3   6  10    0.15    0.10
   0  -7 -10    0.66    0.54
   0  -7 -10    0.61    0.32
   0   7  10    0.51    0.19
   0   7  10    0.36    0.14
  -1  -7 -10    0.50    0.53
  -1  -7 -10   -0.06    0.25
   1   7  10    0.00    0.15
   1   7  10    0.15    0.12
  -2  -7 -10    2.38    0.42
  -2  -7 -10    2.27    0.67
   2   7  10    3.49    0.41
   2   7  10    2.53    0.27
   3   7  10    0.67    0.15
   2   3 -11    0.38    0.20
   2   3 -11   -0.15    0.33
  -2  -3  11    0.24    0.09
  -2  -3  11    0.03    0.11
   1   3 -11    0.84    0.26
   1   3 -11    0.57    0.22
   1   3 -11    0.93    0.37
  -1  -3  11    0.82    0.17
  -1  -3  11    0.63    0.13
   0   3 -11   -0.02    0.28
   0   3 -11    0.52    0.26
   0   3 -11   -0.05    0.14
   0  -3  11    0.12    0.09
   0  -3  11    0.17    0.11
   0  -3  11    0.12    0.11
  -1   3 -11    0.55    0.29
  -1   3 -11    0.35    0.34
   1  -3  11    0.42    0.15
   1  -3  11    0.51    0.13
   1  -3  11    0.06    0.13
   3   2 -11    2.46    0.40
   3   2 -11    2.69    0.56
  -3  -2  11    1.68    0.21
  -3  -2  11    2.05    0.26
   2   2 -11    4.12    0.67
   2   2 -11    2.62    0.38
  -2  -2  11    3.29    0.28
  -2  -2  11    2.89    0.25
   1   2 -11    0.00    0.22
   1   2 -11    0.00    0.32
   1   2 -11   -0.05    0.17
  -1  -2  11    0.04    0.09
  -1  -2  11    0.09    0.08
  -1  -2  11    0.02    0.06
   0   2 -11    1.83    0.47
   0   2 -11    1.47    0.37
   0   2 -11    1.54    0.25
   0  -2  11    1.02    0.18
   0  -2  11    1.08    0.16
   0  -2  11    1.27    0.17
  -1   2 -11    9.06    0.88
  -1   2 -11    8.73    0.78
  -1   2 -11    7.72    0.54
   1  -2  11    6.93    0.52
   1  -2  11    7.35    0.49
   1  -2  11    5.97    0.45
  -2   2 -11    7.28    0.79
  -2   2 -11    7.95    0.83
   2  -2  11    5.81    0.45
   2  -2  11    5.77    0.47
   3   1 -11    0.89    0.45
   3   1 -11    0.18    0.21
  -3  -1  11    0.10    0.08
  -3  -1  11   -0.01    0.09
   2   1 -11    0.27    0.40
   2   1 -11    0.52    0.22
   2   1 -11    1.15    0.34
  -2  -1  11    0.57    0.14
  -2  -1  11    0.67    0.12
  -2  -1  11    0.61    0.12
   1   1 -11    3.16    0.62
   1   1 -11    2.34    0.36
   1   1 -11    3.55    0.53
  -1  -1  11    3.07    0.26
  -1  -1  11    3.10    0.24
  -1  -1  11    2.83    0.23
   0   1 -11   -0.03    0.36
   0   1 -11    0.14    0.30
   0   1 -11   -0.10    0.14
   0  -1  11    0.03    0.07
   0  -1  11    0.16    0.10
   0  -1  11   -0.03    0.07
  -1   1 -11    0.40    0.17
  -1   1 -11    0.47    0.32
  -1   1 -11    0.08    0.37
   1  -1  11    0.36    0.11
   1  -1  11    0.28    0.10
   1  -1  11    0.30    0.13
  -2   1 -11    1.45    0.40
  -2   1 -11    1.17    0.46
   2  -1  11    1.26    0.20
   2  -1  11    1.59    0.21
   2  -1  11    0.90    0.18
   3   0 -11    3.55    0.70
   3   0 -11    2.35    0.40
  -3   0  11    3.06    0.30
  -3   0  11    2.58    0.26
  -3   0  11    3.27    0.28
   2   0 -11    1.32    0.41
   2   0 -11    0.89    0.49
   2   0 -11    0.32    0.22
  -2   0  11    0.34    0.11
  -2   0  11    0.85    0.13
  -2   0  11    0.54    0.11
   1   0 -11    0.46    0.37
   1   0 -11    1.03    0.49
   1   0 -11    0.13    0.21
  -1   0  11    0.40    0.10
  -1   0  11    0.44    0.12
  -1   0  11    0.35    0.09
   0   0 -11    0.23    0.35
   0   0 -11    0.51    0.41
   0   0 -11    0.83    0.24
   0   0  11    0.49    0.12
   0   0  11    0.61    0.12
   0   0  11    0.42    0.10
  -1   0 -11    0.33    0.42
  -1   0 -11    0.23    0.33
  -1   0 -11    0.40    0.17
   1   0  11    0.50    0.11
   1   0  11    0.33    0.10
   1   0  11    0.26    0.10
  -2   0 -11    3.07    0.67
  -2   0 -11    5.48    0.72
   2   0  11    3.81    0.33
   2   0  11    3.74    0.30
   2   0  11    3.38    0.30
  -3   0 -11    0.43    0.32
  -3   0 -11    0.42    0.42
   3   0  11    0.51    0.14
   3   0  11    0.15    0.12
   3  -1 -11    0.46    0.25
   3  -1 -11    0.63    0.53
  -3   1  11    0.52    0.13
  -3   1  11    0.37    0.13
  -3   1  11    0.62    0.13
   2  -1 -11    0.07    0.22
   2  -1 -11    1.07    0.54
   2  -1 -11    0.42    0.35
  -2   1  11    0.73    0.14
  -2   1  11    0.55    0.13
  -2   1  11    0.39    0.10
   1  -1 -11    0.30    0.21
   1  -1 -11    0.74    0.46
   1  -1 -11    0.30    0.37
  -1   1  11    0.48    0.10
  -1   1  11    0.74    0.13
  -1   1  11    0.50    0.11
   0  -1 -11    1.02    0.26
   0  -1 -11    1.14    0.50
   0  -1 -11    1.29    0.44
   0   1  11    1.61    0.18
   0   1  11    1.00    0.14
   0   1  11    1.39    0.17
  -1  -1 -11    1.92    0.54
  -1  -1 -11    2.47    0.32
  -1  -1 -11    2.55    0.63
   1   1  11    2.38    0.23
   1   1  11    2.34    0.24
   1   1  11    2.46    0.22
  -2  -1 -11    1.25    0.51
  -2  -1 -11    1.71    0.52
   2   1  11    1.51    0.19
   2   1  11    1.49    0.19
  -3  -1 -11    0.50    0.40
  -3  -1 -11    1.05    0.53
   3   1  11    1.33    0.19
   3   1  11    1.10    0.19
   2  -2 -11    0.14    0.24
   2  -2 -11   -0.31    0.49
   2  -2 -11    1.07    0.46
  -2   2  11    0.02    0.09
  -2   2  11   -0.01    0.08
  -2   2  11    0.07    0.08
   1  -2 -11    0.14    0.21
   1  -2 -11    0.15    0.38
   1  -2 -11    0.50    0.46
  -1   2  11    0.15    0.08
  -1   2  11    0.22    0.09
  -1   2  11   -0.03    0.09
   0  -2 -11   -0.14    0.18
   0  -2 -11    0.56    0.42
   0  -2 -11    0.12    0.43
   0   2  11    0.02    0.07
   0   2  11    0.03    0.06
   0   2  11    0.09    0.08
  -1  -2 -11    0.35    0.41
  -1  -2 -11    0.16    0.18
  -1  -2 -11    0.30    0.42
   1   2  11    0.18    0.09
   1   2  11    0.03    0.06
   1   2  11    0.07    0.07
  -2  -2 -11    0.59    0.50
  -2  -2 -11    0.25    0.43
   2   2  11    0.45    0.11
   2   2  11    0.30    0.11
  -3  -2 -11    0.20    0.51
  -3  -2 -11    0.28    0.38
   3   2  11    0.11    0.09
   3   2  11    0.02    0.09
   2  -3 -11    0.70    0.31
   2  -3 -11    1.09    0.47
   2  -3 -11    0.48    0.55
  -2   3  11    0.71    0.15
  -2   3  11    0.56    0.13
  -2   3  11    0.86    0.15
   1  -3 -11    0.07    0.22
   1  -3 -11    0.37    0.41
   1  -3 -11    0.12    0.44
  -1   3  11    0.04    0.08
  -1   3  11    0.07    0.08
  -1   3  11    0.09    0.08
   0  -3 -11    0.59    0.46
   0  -3 -11   -0.10    0.20
   0  -3 -11   -0.26    0.38
   0   3  11    0.06    0.08
   0   3  11    0.06    0.06
   0   3  11   -0.01    0.07
  -1  -3 -11    0.46    0.52
  -1  -3 -11   -0.02    0.18
  -1  -3 -11    0.79    0.44
  -2  -3 -11    1.45    0.64
  -2  -3 -11    1.61    0.56
   2   3  11    2.38    0.22
   2   3  11    2.34    0.24
  -3  -3 -11    5.06    0.92
  -3  -3 -11    4.96    0.83
   3   3  11    4.84    0.37
   3   3  11    5.54    0.38
   2  -4 -11    0.86    0.34
   2  -4 -11    1.06    0.51
   2  -4 -11    1.73    0.68
  -2   4  11    1.06    0.17
  -2   4  11    0.86    0.17
  -2   4  11    1.06    0.17
   1  -4 -11   -0.01    0.44
   1  -4 -11    0.19    0.24
   1  -4 -11    0.57    0.53
  -1   4  11    0.17    0.10
  -1   4  11    0.20    0.08
  -1   4  11   -0.06    0.07
   0  -4 -11    0.12    0.44
   0  -4 -11    0.54    0.26
   0  -4 -11    0.17    0.46
   0   4  11    0.46    0.10
   0   4  11    0.39    0.12
  -1  -4 -11    0.45    0.46
  -1  -4 -11    0.13    0.46
  -1  -4 -11    0.16    0.20
   1   4  11    0.03    0.08
   1   4  11    0.06    0.06
  -2  -4 -11    0.63    0.57
  -2  -4 -11    2.16    0.61
   2   4  11    0.88    0.13
   2   4  11    0.82    0.15
  -3  -4 -11    0.03    0.58
  -3  -4 -11    0.11    0.48
   3   4  11    0.04    0.10
   3   4  11    0.06    0.08
   1  -5 -11    0.23    0.54
   1  -5 -11   -0.08    0.23
  -1   5  11    0.17    0.09
  -1   5  11   -0.05    0.09
   0  -5 -11    0.27    0.46
   0  -5 -11   -0.08    0.53
   0  -5 -11    0.06    0.25
   0   5  11   -0.06    0.09
   0   5  11    0.05    0.07
  -1  -5 -11    0.63    0.29
  -1  -5 -11    0.02    0.51
  -1  -5 -11    0.36    0.53
   1   5  11    0.59    0.10
   1   5  11    0.26    0.11
  -2  -5 -11   -0.16    0.41
  -2  -5 -11    0.44    0.55
   2   5  11    0.08    0.07
   2   5  11    0.02    0.09
  -3  -5 -11    0.14    0.59
  -3  -5 -11    0.49    0.52
   3   5  11    0.11    0.09
   3   5  11    0.17    0.11
   0  -6 -11    0.95    0.33
   0  -6 -11   -0.09    0.58
   0   6  11    0.73    0.22
   0   6  11    0.67    0.12
   0   6  11    0.64    0.15
  -1  -6 -11    0.03    0.46
  -1  -6 -11    1.17    0.63
  -1  -6 -11    0.06    0.26
   1   6  11    0.11    0.11
   1   6  11    0.11    0.07
  -2  -6 -11   -0.11    0.48
  -2  -6 -11   -0.12    0.47
   2   6  11   -0.03    0.09
   1   2 -12    0.59    0.31
   1   2 -12    0.29    0.37
   1   2 -12    0.22    0.21
  -1  -2  12    0.07    0.11
  -1  -2  12    0.27    0.10
  -1  -2  12    0.10    0.10
   0   2 -12    0.00    0.26
   0   2 -12    0.12    0.17
   0   2 -12   -0.19    0.34
   0  -2  12    0.05    0.09
   0  -2  12   -0.01    0.10
   0  -2  12    0.19    0.12
   2   1 -12    1.86    0.37
  -2  -1  12    1.93    0.21
  -2  -1  12    1.96    0.25
  -2  -1  12    2.50    0.23
   1   1 -12    1.39    0.41
   1   1 -12    0.35    0.23
   1   1 -12    0.26    0.40
  -1  -1  12    0.41    0.12
  -1  -1  12    0.14    0.11
  -1  -1  12    0.30    0.10
   0   1 -12    0.33    0.43
   0   1 -12    0.26    0.20
   0   1 -12    0.06    0.31
   0  -1  12   -0.05    0.09
   0  -1  12    0.12    0.11
   0  -1  12    0.11    0.08
  -1   1 -12    0.55    0.44
  -1   1 -12    0.05    0.34
   1  -1  12    0.31    0.13
   1  -1  12    0.26    0.11
   1  -1  12    0.14    0.11
   2   0 -12    0.33    0.24
   2   0 -12    0.29    0.50
  -2   0  12    0.19    0.11
  -2   0  12    0.01    0.08
  -2   0  12    0.21    0.10
   1   0 -12    0.93    0.51
   1   0 -12    0.68    0.26
   1   0 -12    1.41    0.46
  -1   0  12    0.51    0.13
  -1   0  12    0.42    0.11
  -1   0  12    0.41    0.11
   0   0 -12    0.80    0.43
   0   0 -12    0.43    0.42
   0   0 -12    0.16    0.19
   0   0  12    0.44    0.11
   0   0  12    0.45    0.12
   0   0  12    0.65    0.14
  -1   0 -12   -0.09    0.43
  -1   0 -12    0.28    0.38
   1   0  12    0.13    0.10
   1   0  12    0.12    0.09
   1   0  12    0.18    0.09
  -2   0 -12    0.21    0.35
  -2   0 -12    0.03    0.42
   2   0  12   -0.01    0.09
   2   0  12    0.12    0.11
   2  -1 -12    1.67    0.64
   2  -1 -12    0.34    0.28
  -2   1  12    0.35    0.13
  -2   1  12    0.41    0.11
  -2   1  12    0.44    0.13
   1  -1 -12    1.11    0.48
   1  -1 -12    0.85    0.28
   1  -1 -12    1.18    0.56
  -1   1  12    1.21    0.17
  -1   1  12    1.07    0.15
  -1   1  12    1.09    0.16
   0  -1 -12    1.39    0.29
   0  -1 -12    0.60    0.48
   0  -1 -12    0.98    0.44
   0   1  12    0.86    0.14
   0   1  12    0.96    0.16
   0   1  12    1.00    0.16
  -1  -1 -12    0.46    0.46
  -1  -1 -12    0.20    0.20
  -1  -1 -12    0.04    0.39
   1   1  12   -0.08    0.08
   1   1  12    0.02    0.08
   1   1  12    0.10    0.08
  -2  -1 -12    1.32    0.50
  -2  -1 -12    0.41    0.50
   2   1  12    0.29    0.13
   2   1  12    1.12    0.18
   1  -2 -12    0.65    0.58
   1  -2 -12    0.05    0.22
   1  -2 -12    0.57    0.48
  -1   2  12    0.54    0.13
  -1   2  12    0.41    0.11
  -1   2  12    0.19    0.10
   0  -2 -12    0.14    0.46
   0  -2 -12    0.33    0.22
   0  -2 -12    0.28    0.47
   0   2  12    0.25    0.10
   0   2  12    0.41    0.10
   0   2  12    0.16    0.09
  -1  -2 -12    0.21    0.45
  -1  -2 -12   -0.14    0.45
  -1  -2 -12    0.06    0.21
   1   2  12    0.10    0.08
   1   2  12   -0.03    0.06
  -2  -2 -12    0.76    0.51
  -2  -2 -12    0.42    0.48
   2   2  12    0.08    0.09
   2   2  12    0.14    0.10
   1  -3 -12    0.09    0.46
   1  -3 -12    0.25    0.28
   1  -3 -12   -0.01    0.59
  -1   3  12    0.00    0.09
  -1   3  12    0.02    0.08
  -1   3  12   -0.04    0.10
   0  -3 -12    0.72    0.54
   0  -3 -12    0.01    0.20
   0  -3 -12    0.92    0.59
   0   3  12    0.10    0.10
  -1  -3 -12    0.54    0.52
  -1  -3 -12    0.00    0.22
  -1  -3 -12    1.05    0.53
   1   3  12    0.28    0.10
   1   3  12    0.28    0.11
  -2  -3 -12    1.04    0.57
  -2  -3 -12    1.25    0.64
   2   3  12    1.38    0.19
   2   3  12    1.47    0.19
   0  -4 -12    1.97    0.40
   0  -4 -12    1.44    0.61
   0  -4 -12    1.10    0.62
   0   4  12    2.44    0.25
   0   4  12    2.47    0.23
  -1  -4 -12    0.62    0.53
  -1  -4 -12    0.50    0.54
  -1  -4 -12   -0.05    0.24
   1   4  12    0.05    0.09
   1   4  12    0.14    0.08
  -2  -4 -12    0.95    0.56
  -2  -4 -12   -0.36    0.55
   2   4  12    0.24    0.12
   2   4  12    0.21    0.09
   1   5  12    1.22    0.16
   1   5  12    1.56    0.20
   0   0   0    0.00    0.00
;
_shelx_hkl_checksum              76411
_shelx_res_file
;
TITL scan_0m_P-1 in P-1
REM scan_0m_P-1 in P-1
CELL 0.71073 5.7659 8.5396 10.8043 81.579 88.02 71.167
ZERR 2 0.0011 0.0017 0.0023 0.006 0.006 0.006
LATT 1
SFAC C H O
UNIT 22 28 6
L.S. 64
PLAN  -1 0 0
SIZE 0.05 0.4 0.6
TEMP -73
BOND $H
EQIV
HTAB
MORE -1
CONF
fmap 2
acta 50
OMIT -4 50
OMIT 0 0 1
OMIT 0 1 0
OMIT 3 3 0
OMIT 0 3 5
REM <olex2.extras>
REM <HklSrc "%./dioleugenol05152015.hkl">
REM </olex2.extras>
WGHT    0.044000    0.212800
FVAR       0.30999
O1    3    0.630143    0.809399    0.115361    11.00000    0.04807    0.04318 =
         0.03296   -0.00552    0.01031   -0.02564
AFIX 147
H1    2    0.664374    0.898086    0.113906    11.00000   -1.50000
AFIX   0
O2    3    0.284205    0.903212    0.902022    11.00000    0.07626    0.04833 =
         0.03618    0.00476   -0.01105   -0.03282
AFIX 147
H2    2    0.336511    0.836678    0.967861    11.00000   -1.50000
AFIX   0
O3    3    0.354461    0.621452    0.116050    11.00000    0.04614    0.04390 =
         0.02725   -0.00595    0.00039   -0.02328
C1    1    0.520772    0.776990    0.226108    11.00000    0.03041    0.03078 =
         0.02895    0.00028    0.00275   -0.00997
C2    1    0.551551    0.835747    0.334553    11.00000    0.03352    0.03454 =
         0.03699   -0.00492    0.00138   -0.01733
AFIX  43
H2A   2    0.656283    0.901655    0.335259    11.00000   -1.20000
AFIX   0
C3    1    0.430069    0.799133    0.443196    11.00000    0.03646    0.03570 =
         0.02986   -0.00619   -0.00099   -0.01239
AFIX  43
H3    2    0.454226    0.839384    0.517553    11.00000   -1.20000
AFIX   0
C4    1    0.274762    0.704861    0.443949    11.00000    0.03073    0.02858 =
         0.02922   -0.00045    0.00019   -0.00736
C5    1    0.139213    0.661248    0.560280    11.00000    0.03826    0.03705 =
         0.03109    0.00087    0.00241   -0.01436
AFIX  23
H5A   2   -0.014156    0.646524    0.533713    11.00000   -1.20000
H5B   2    0.241398    0.552669    0.605501    11.00000   -1.20000
AFIX   0
C6    1    0.076586    0.785978    0.648299    11.00000    0.03988    0.03818 =
         0.03516   -0.00290    0.00690   -0.01451
AFIX  43
H6    2   -0.017088    0.897684    0.616796    11.00000   -1.20000
AFIX   0
C7    1    0.142545    0.752109    0.768095    11.00000    0.04215    0.03805 =
         0.04195   -0.00173    0.00609   -0.01718
AFIX  43
H7    2    0.240449    0.641197    0.799011    11.00000   -1.20000
AFIX   0
C8    1    0.073855    0.875479    0.856757    11.00000    0.05596    0.04955 =
         0.03712   -0.00490    0.00660   -0.02180
AFIX  23
H8A   2   -0.038766    0.982408    0.814416    11.00000   -1.20000
H8B   2   -0.013651    0.834485    0.928145    11.00000   -1.20000
AFIX   0
C9    1    0.369884    0.677544    0.227117    11.00000    0.03213    0.02833 =
         0.02803   -0.00117   -0.00229   -0.00919
C10   1    0.220768    0.506376    0.116090    11.00000    0.04472    0.04715 =
         0.04275   -0.01225   -0.00078   -0.02486
AFIX 137
H10A  2    0.284929    0.411996    0.182700    11.00000   -1.50000
H10B  2    0.238815    0.465310    0.035056    11.00000   -1.50000
H10C  2    0.047029    0.563035    0.130539    11.00000   -1.50000
AFIX   0
C11   1    0.246327    0.644292    0.334540    11.00000    0.03262    0.03185 =
         0.03175   -0.00031   -0.00037   -0.01444
AFIX  43
H11   2    0.140505    0.579178    0.333684    11.00000   -1.20000
AFIX   0
HKLF 4
REM  scan_0m_P-1 in P-1
REM R1 =  0.0456 for    1487 Fo > 4sig(Fo)  and  0.0551 for all    1736 data
REM    130 parameters refined using      0 restraints
END
WGHT      0.0440      0.2127
REM Instructions for potential hydrogen bonds
EQIV $1 -x+1, -y+2, -z+1
HTAB O1 O2_$1
EQIV $2 x, y, z+1
HTAB O2 O1_$2
HTAB O2 O3_$2
EQIV $3 x-1, y, z
HTAB C10 O1_$3
REM Highest difference peak  0.489,  deepest hole -0.183,  1-sigma level  0.037
Q1    1   0.0165  0.8762  0.7391  11.00000  0.05    0.49
;
_shelx_res_checksum              90794
_shelxl_version_number           .2013
loop_
_space_group_symop_operation_xyz
'x, y, z'
'-x, -y, -z'
loop_
_atom_site_type_symbol
_atom_site_label
_atom_site_fract_x
_atom_site_fract_y
_atom_site_fract_z
_atom_site_U_iso_or_equiv
_atom_site_adp_type
_atom_site_calc_flag
_atom_site_occupancy
O O1 0.6301(2) 0.80940(16) 0.11536(11) 0.0390(4) Uani d 1
H H1 0.6644 0.8981 0.1139 0.058 Uiso calc 1
O O2 0.2842(3) 0.90321(18) 0.90202(13) 0.0513(4) Uani d 1
H H2 0.3365 0.8367 0.9679 0.077 Uiso calc 1
O O3 0.3545(2) 0.62145(15) 0.11605(11) 0.0369(3) Uani d 1
C C1 0.5208(3) 0.7770(2) 0.22611(16) 0.0306(4) Uani d 1
C C2 0.5516(3) 0.8357(2) 0.33455(16) 0.0335(4) Uani d 1
H H2A 0.6563 0.9017 0.3353 0.040 Uiso calc 1
C C3 0.4301(3) 0.7991(2) 0.44320(16) 0.0336(4) Uani d 1
H H3 0.4542 0.8394 0.5176 0.040 Uiso calc 1
C C4 0.2748(3) 0.7049(2) 0.44395(16) 0.0304(4) Uani d 1
C C5 0.1392(3) 0.6612(2) 0.56028(16) 0.0356(4) Uani d 1
H H5A -0.0142 0.6465 0.5337 0.043 Uiso calc 1
H H5B 0.2414 0.5527 0.6055 0.043 Uiso calc 1
C C6 0.0766(3) 0.7860(2) 0.64830(17) 0.0377(5) Uani d 1
H H6 -0.0171 0.8977 0.6168 0.045 Uiso calc 1
C C7 0.1425(4) 0.7521(2) 0.76809(18) 0.0402(5) Uani d 1
H H7 0.2404 0.6412 0.7990 0.048 Uiso calc 1
C C8 0.0739(4) 0.8755(3) 0.85676(19) 0.0467(5) Uani d 1
H H8A -0.0388 0.9824 0.8144 0.056 Uiso calc 1
H H8B -0.0137 0.8345 0.9281 0.056 Uiso calc 1
C C9 0.3699(3) 0.6775(2) 0.22712(15) 0.0299(4) Uani d 1
C C10 0.2208(4) 0.5064(2) 0.11609(19) 0.0418(5) Uani d 1
H H10A 0.2849 0.4120 0.1827 0.063 Uiso calc 1
H H10B 0.2388 0.4653 0.0351 0.063 Uiso calc 1
H H10C 0.0470 0.5630 0.1305 0.063 Uiso calc 1
C C11 0.2463(3) 0.6443(2) 0.33454(16) 0.0315(4) Uani d 1
H H11 0.1405 0.5792 0.3337 0.038 Uiso calc 1
loop_
_atom_site_aniso_label
_atom_site_aniso_U_11
_atom_site_aniso_U_22
_atom_site_aniso_U_33
_atom_site_aniso_U_12
_atom_site_aniso_U_13
_atom_site_aniso_U_23
O1 0.0481(8) 0.0432(8) 0.0330(7) -0.0256(6) 0.0103(6) -0.0055(6)
O2 0.0763(11) 0.0483(9) 0.0362(8) -0.0328(8) -0.0110(7) 0.0048(6)
O3 0.0461(8) 0.0439(7) 0.0273(7) -0.0233(6) 0.0004(5) -0.0059(5)
C1 0.0304(9) 0.0308(9) 0.0289(9) -0.0100(7) 0.0027(7) 0.0003(7)
C2 0.0335(10) 0.0345(9) 0.0370(10) -0.0173(8) 0.0014(8) -0.0049(8)
C3 0.0365(10) 0.0357(10) 0.0299(9) -0.0124(8) -0.0010(7) -0.0062(7)
C4 0.0307(9) 0.0286(9) 0.0292(9) -0.0074(7) 0.0002(7) -0.0005(7)
C5 0.0383(10) 0.0371(10) 0.0311(10) -0.0144(8) 0.0024(8) 0.0009(7)
C6 0.0399(11) 0.0382(10) 0.0352(10) -0.0145(8) 0.0069(8) -0.0029(8)
C7 0.0421(11) 0.0381(10) 0.0419(11) -0.0172(9) 0.0061(9) -0.0017(8)
C8 0.0560(13) 0.0495(12) 0.0371(11) -0.0218(10) 0.0066(9) -0.0049(9)
C9 0.0321(9) 0.0283(9) 0.0280(9) -0.0092(7) -0.0023(7) -0.0012(7)
C10 0.0447(11) 0.0472(11) 0.0427(11) -0.0249(9) -0.0008(9) -0.0123(9)
C11 0.0326(10) 0.0319(9) 0.0318(9) -0.0144(8) -0.0004(7) -0.0003(7)
loop_
_atom_type_symbol
_atom_type_description
_atom_type_scat_dispersion_real
_atom_type_scat_dispersion_imag
_atom_type_scat_source
C C 0.0033 0.0016 'International Tables Vol C Tables 4.2.6.8 and 6.1.1.4'
H H 0.0000 0.0000 'International Tables Vol C Tables 4.2.6.8 and 6.1.1.4'
O O 0.0106 0.0060 'International Tables Vol C Tables 4.2.6.8 and 6.1.1.4'
loop_
_geom_angle_atom_site_label_1
_geom_angle_atom_site_label_2
_geom_angle_atom_site_label_3
_geom_angle
C1 O1 H1 109.5
C8 O2 H2 109.5
C9 O3 C10 116.99(14)
O1 C1 C2 124.05(16)
O1 C1 C9 116.82(15)
C2 C1 C9 119.13(16)
C1 C2 H2A 119.8
C1 C2 C3 120.46(16)
C3 C2 H2A 119.8
C2 C3 H3 119.6
C4 C3 C2 120.74(16)
C4 C3 H3 119.6
C3 C4 C5 122.59(16)
C3 C4 C11 118.57(16)
C11 C4 C5 118.82(15)
C4 C5 H5A 108.5
C4 C5 H5B 108.5
H5A C5 H5B 107.5
C6 C5 C4 115.18(15)
C6 C5 H5A 108.5
C6 C5 H5B 108.5
C5 C6 H6 117.8
C7 C6 C5 124.35(18)
C7 C6 H6 117.8
C6 C7 H7 117.8
C6 C7 C8 124.33(19)
C8 C7 H7 117.8
O2 C8 C7 111.23(18)
O2 C8 H8A 109.4
O2 C8 H8B 109.4
C7 C8 H8A 109.4
C7 C8 H8B 109.4
H8A C8 H8B 108.0
O3 C9 C1 115.16(15)
O3 C9 C11 124.74(16)
C11 C9 C1 120.09(16)
O3 C10 H10A 109.5
O3 C10 H10B 109.5
O3 C10 H10C 109.5
H10A C10 H10B 109.5
H10A C10 H10C 109.5
H10B C10 H10C 109.5
C4 C11 H11 119.5
C9 C11 C4 120.96(16)
C9 C11 H11 119.5
loop_
_geom_bond_atom_site_label_1
_geom_bond_atom_site_label_2
_geom_bond_distance
O1 H1 0.8400
O1 C1 1.367(2)
O2 H2 0.8400
O2 C8 1.424(3)
O3 C9 1.371(2)
O3 C10 1.431(2)
C1 C2 1.378(3)
C1 C9 1.397(2)
C2 H2A 0.9500
C2 C3 1.394(2)
C3 H3 0.9500
C3 C4 1.383(3)
C4 C5 1.521(2)
C4 C11 1.392(2)
C5 H5A 0.9900
C5 H5B 0.9900
C5 C6 1.481(3)
C6 H6 0.9500
C6 C7 1.325(3)
C7 H7 0.9500
C7 C8 1.478(3)
C8 H8A 0.9900
C8 H8B 0.9900
C9 C11 1.383(2)
C10 H10A 0.9800
C10 H10B 0.9800
C10 H10C 0.9800
C11 H11 0.9500
loop_
_geom_hbond_atom_site_label_D
_geom_hbond_atom_site_label_H
_geom_hbond_atom_site_label_A
_geom_hbond_site_symmetry_A
_geom_hbond_distance_DH
_geom_hbond_distance_HA
_geom_hbond_distance_DA
_geom_hbond_angle_DHA
O1 H1 O2 2_676 0.8400 1.798(3) 2.635(2) 174(2)
loop_
_geom_torsion_atom_site_label_1
_geom_torsion_atom_site_label_2
_geom_torsion_atom_site_label_3
_geom_torsion_atom_site_label_4
_geom_torsion
O1 C1 C2 C3 178.96(16)
O1 C1 C9 O3 1.3(2)
O1 C1 C9 C11 -177.74(15)
O3 C9 C11 C4 179.28(15)
C1 C2 C3 C4 -0.7(3)
C1 C9 C11 C4 -1.8(3)
C2 C1 C9 O3 -178.53(15)
C2 C1 C9 C11 2.4(3)
C2 C3 C4 C5 179.76(16)
C2 C3 C4 C11 1.3(3)
C3 C4 C5 C6 30.2(2)
C3 C4 C11 C9 -0.1(3)
C4 C5 C6 C7 -123.8(2)
C5 C4 C11 C9 -178.60(15)
C5 C6 C7 C8 -178.11(18)
C6 C7 C8 O2 -116.2(2)
C9 C1 C2 C3 -1.2(3)
C10 O3 C9 C1 174.23(15)
C10 O3 C9 C11 -6.8(2)
C11 C4 C5 C6 -151.41(16)

_cod_database_fobs_code 1543481
