#------------------------------------------------------------------------------
#$Date: 2016-06-23 04:31:56 +0300 (Thu, 23 Jun 2016) $
#$Revision: 183851 $
#$URL: file:///home/coder/svn-repositories/cod/cif/1/54/35/1543505.cif $
#------------------------------------------------------------------------------
#
# This file is available in the Crystallography Open Database (COD),
# http://www.crystallography.net/. The original data for this entry
# were provided by IUCr Journals, http://journals.iucr.org/.
#
# The file may be used within the scientific community so long as
# proper attribution is given to the journal article from which the
# data were obtained.
#
data_1543505
loop_
_publ_author_name
'Becker, Lisanne'
'Altenburger, Kai'
'Spannenberg, Anke'
'Arndt, Perdita'
'Rosenthal, Uwe'
_publ_section_title
;
 A second polymorph of 3,4-bis(6-bromopyridin-3-yl)-1,2,5-thiadiazole
;
_journal_coeditor_code           IS4008
_journal_issue                   6
_journal_name_full               IUCrData
_journal_page_first              x160960
_journal_paper_doi               10.1107/S2414314616009603
_journal_volume                  1
_journal_year                    2016
_chemical_formula_iupac          'C12 H6 Br2 N4 S'
_chemical_formula_moiety         'C12 H6 Br2 N4 S'
_chemical_formula_sum            'C12 H6 Br2 N4 S'
_chemical_formula_weight         398.09
_chemical_name_systematic
;
3,4-Bis(6-bromopyridin-3-yl)-1,2,5-thiadiazole
;
_space_group_crystal_system      triclinic
_space_group_IT_number           2
_space_group_name_Hall           '-P 1'
_space_group_name_H-M_alt        'P -1'
_symmetry_space_group_name_Hall  '-P 1'
_symmetry_space_group_name_H-M   'P -1'
_atom_sites_solution_hydrogens   geom
_audit_creation_method           SHELXL-2014/7
_cell_angle_alpha                77.0382(9)
_cell_angle_beta                 78.7453(8)
_cell_angle_gamma                61.5479(7)
_cell_formula_units_Z            2
_cell_length_a                   7.1617(4)
_cell_length_b                   7.2787(4)
_cell_length_c                   14.4257(8)
_cell_measurement_reflns_used    5554
_cell_measurement_temperature    150(2)
_cell_measurement_theta_max      28.72
_cell_measurement_theta_min      2.91
_cell_volume                     640.88(6)
_computing_cell_refinement
;
SAINT (Bruker, 2013)
;
_computing_data_collection
;
APEX2 (Bruker, 2014)
;
_computing_data_reduction
;
SAINT (Bruker, 2013)
;
_computing_molecular_graphics
;
XP in SHELXTL (Sheldrick, 2008) and Mercury (Macrae <i>et al.</i>,
2006)
;
_computing_publication_material
;
publCIF (Westrip, 2010) and PLATON (Spek, 2009)
;
_computing_structure_refinement
;
SHELXL2014 (Sheldrick, 2015)
;
_computing_structure_solution
;
SHELXS97 (Sheldrick, 2008)
;
_diffrn_ambient_temperature      150(2)
_diffrn_detector_area_resol_mean 8.3333
_diffrn_measured_fraction_theta_full 1.000
_diffrn_measured_fraction_theta_max 1.000
_diffrn_measurement_device_type  'Bruker APEXII CCD'
_diffrn_measurement_method       '\f and \w scans'
_diffrn_radiation_type           MoK\a
_diffrn_radiation_wavelength     0.71073
_diffrn_reflns_av_R_equivalents  0.0203
_diffrn_reflns_limit_h_max       9
_diffrn_reflns_limit_h_min       -8
_diffrn_reflns_limit_k_max       9
_diffrn_reflns_limit_k_min       -9
_diffrn_reflns_limit_l_max       18
_diffrn_reflns_limit_l_min       -18
_diffrn_reflns_number            8969
_diffrn_reflns_theta_full        25.242
_diffrn_reflns_theta_max         27.498
_diffrn_reflns_theta_min         1.456
_exptl_absorpt_coefficient_mu    6.476
_exptl_absorpt_correction_T_max  0.38
_exptl_absorpt_correction_T_min  0.24
_exptl_absorpt_correction_type   multi-scan
_exptl_absorpt_process_details
;
(SADABS; Bruker, 2014)
;
_exptl_crystal_colour            yellow
_exptl_crystal_density_diffrn    2.063
_exptl_crystal_description       prism
_exptl_crystal_F_000             384
_exptl_crystal_size_max          0.494
_exptl_crystal_size_mid          0.361
_exptl_crystal_size_min          0.186
_refine_diff_density_max         0.519
_refine_diff_density_min         -0.840
_refine_ls_extinction_method     none
_refine_ls_goodness_of_fit_ref   1.061
_refine_ls_hydrogen_treatment    constr
_refine_ls_matrix_type           full
_refine_ls_number_parameters     172
_refine_ls_number_reflns         2957
_refine_ls_number_restraints     0
_refine_ls_restrained_S_all      1.061
_refine_ls_R_factor_all          0.0300
_refine_ls_R_factor_gt           0.0262
_refine_ls_shift/su_max          0.001
_refine_ls_shift/su_mean         0.000
_refine_ls_structure_factor_coef Fsqd
_refine_ls_weighting_details
'w=1/[\s^2^(Fo^2^)+(0.0370P)^2^+1.1147P] where P=(Fo^2^+2Fc^2^)/3'
_refine_ls_weighting_scheme      calc
_refine_ls_wR_factor_gt          0.0727
_refine_ls_wR_factor_ref         0.0747
_reflns_number_gt                2672
_reflns_number_total             2957
_reflns_threshold_expression     'I > 2\s(I)'
_cod_data_source_file            is4008sup1.cif
_cod_data_source_block           I
_cod_database_code               1543505
_shelx_space_group_comment
;
The symmetry employed for this shelxl refinement is uniquely defined
by the following loop, which should always be used as a source of
symmetry information in preference to the above space-group names.
They are only intended as comments.
;
_shelx_hkl_file
;
   1   0   0    4.78    0.17
   1   0   0    5.14    0.19
  -2   0   0  357.14    7.99
   2   0   0  371.48    8.01
   2   0   0  367.67    8.07
  -3   0   0    7.66    0.30
  -3   0   0    6.99    0.34
   3   0   0    8.33    0.41
   3   0   0    7.75    0.32
  -4   0   0  195.97    4.44
  -4   0   0  200.69    4.50
   4   0   0  196.43    4.63
   4   0   0  196.88    4.48
  -5   0   0   55.00    1.44
  -5   0   0   54.12    1.39
   5   0   0   54.15    1.43
   5   0   0   51.38    1.63
  -6   0   0  111.79    2.65
  -6   0   0  108.94    2.68
   6   0   0  110.24    2.70
   6   0   0  105.39    2.97
  -7   0   0   16.09    0.72
   7   0   0   15.65    0.74
   7   0   0   13.71    1.00
   8   0   0    4.84    0.52
   7  -1   0    3.33    0.43
  -7   1   0    3.54    0.45
   6  -1   0   69.61    1.86
  -6   1   0   68.87    1.82
  -6   1   0   70.99    1.86
   5  -1   0   -0.18    0.32
   5  -1   0    0.23    0.21
  -5   1   0    0.03    0.22
  -5   1   0    0.67    0.23
   4  -1   0  128.49    3.32
   4  -1   0  137.49    3.13
  -4   1   0  132.88    3.11
  -4   1   0  137.17    3.12
   3  -1   0    8.04    0.49
   3  -1   0    8.69    0.36
  -3   1   0    8.80    0.35
  -3   1   0    8.46    0.23
  -3   1   0    8.10    0.35
   2  -1   0  395.58    8.49
   2  -1   0  370.48    8.58
  -2   1   0  379.33    8.49
  -2   1   0  396.80    8.49
  -2   1   0  391.72    8.41
   1  -1   0   39.23    0.87
   1  -1   0   38.60    0.91
   1  -1   0   40.13    0.93
  -1   1   0   38.64    0.88
  -1   1   0   38.92    0.92
  -1   1   0   38.69    0.93
   0  -1   0   71.75    1.61
   0   1   0   72.00    1.60
   0   1   0   73.27    1.61
  -1  -1   0   13.39    0.33
  -1  -1   0   12.60    0.31
   1   1   0   12.31    0.32
   1   1   0   12.99    0.31
   1   1   0   12.58    0.33
  -2  -1   0  414.61    8.60
  -2  -1   0  372.75    8.61
   2   1   0  399.63    8.68
   3   1   0   56.46    1.43
   3   1   0   58.90    1.40
   4   1   0  125.63    2.90
   4   1   0  124.04    2.97
  -5  -1   0    9.61    0.41
   5   1   0    9.54    0.47
   5   1   0   10.29    0.58
  -6  -1   0   62.88    1.71
  -6  -1   0   63.31    1.58
   6   1   0   60.92    1.84
   6   1   0   61.43    1.67
  -7  -1   0   21.32    0.86
  -7  -1   0   21.65    0.78
   7   1   0   21.10    0.86
   7   1   0   20.42    1.08
   8   1   0   34.51    1.54
   8   1   0   32.90    1.20
  -7   2   0   11.11    0.77
   6  -2   0   11.94    0.65
  -6   2   0   11.56    0.69
   5  -2   0    0.24    0.23
  -5   2   0    0.12    0.25
  -5   2   0    0.09    0.22
   4  -2   0    9.47    0.46
  -4   2   0    9.24    0.45
  -4   2   0    9.13    0.49
   3  -2   0    0.57    0.17
  -3   2   0    0.65    0.17
  -3   2   0    1.35    0.21
  -3   2   0    0.85    0.11
   2  -2   0   30.10    0.79
  -2   2   0   29.00    0.81
  -2   2   0   29.29    0.78
  -2   2   0   29.20    0.72
   1  -2   0   28.72    0.72
   1  -2   0   29.20    0.75
  -1   2   0   28.70    0.69
  -1   2   0   27.17    0.72
   0  -2   0   78.85    1.78
   0   2   0   76.59    1.76
   0   2   0   80.54    1.79
   0   2   0   76.89    1.78
   1   2   0  548.21   11.96
   1   2   0  536.24   11.93
  -2  -2   0    2.13    0.13
   2   2   0    1.63    0.15
   2   2   0    1.87    0.11
   2   2   0    2.30    0.16
   2   2   0    1.89    0.16
  -3  -2   0   23.08    0.57
   3   2   0   23.35    0.67
   3   2   0   23.06    0.66
  -4  -2   0  232.49    5.00
   4   2   0  228.41    5.17
   4   2   0  222.82    5.13
  -5  -2   0   18.47    0.48
   5   2   0   18.72    0.71
   5   2   0   18.78    0.67
  -6  -2   0    4.39    0.33
   6   2   0    3.59    0.37
   6   2   0    3.94    0.44
   7   2   0   10.53    0.63
   7   2   0    9.82    0.75
   8   2   0    4.97    0.66
   8   2   0    4.36    0.49
   9   2   0    0.33    0.51
   9   2   0    0.62    0.39
  -6   3   0    0.49    0.37
   5  -3   0    0.19    0.24
  -5   3   0    0.11    0.31
  -5   3   0    0.18    0.25
   4  -3   0    1.76    0.27
  -4   3   0    1.38    0.27
  -4   3   0    1.66    0.30
   3  -3   0    2.17    0.26
  -3   3   0    2.24    0.29
  -3   3   0    2.23    0.26
  -3   3   0    2.39    0.20
   2  -3   0    0.24    0.14
   2  -3   0    0.23    0.15
  -2   3   0    0.10    0.16
  -2   3   0    0.27    0.12
  -2   3   0    0.10    0.15
   1  -3   0   16.26    0.51
   1  -3   0   16.87    0.55
  -1   3   0   16.70    0.52
  -1   3   0   15.63    0.47
  -1   3   0   15.95    0.54
   0  -3   0   29.66    0.78
   0   3   0   30.74    0.79
   0   3   0   28.79    0.75
   0   3   0   29.82    0.78
  -1  -3   0   55.02    1.32
   1   3   0   55.57    1.33
   1   3   0   55.85    1.32
   1   3   0   54.77    1.30
  -2  -3   0   16.13    0.47
   2   3   0   16.27    0.45
   2   3   0   15.29    0.49
   2   3   0   16.32    0.47
   2   3   0   16.12    0.48
  -3  -3   0    1.04    0.12
   3   3   0    1.11    0.16
   3   3   0    1.17    0.17
   3   3   0    0.98    0.11
   3   3   0    1.23    0.16
  -4  -3   0   41.99    1.01
   4   3   0   41.70    1.12
   4   3   0   41.58    1.14
  -5  -3   0   19.67    0.56
   5   3   0   20.85    0.72
   5   3   0   20.91    0.75
   6   3   0    0.23    0.25
   6   3   0    0.45    0.27
   7   3   0    1.45    0.38
   7   3   0    1.00    0.32
   8   3   0    0.54    0.42
   8   3   0    0.40    0.34
   9   3   0    2.20    0.59
   9   3   0    1.63    0.45
  -5   4   0   -0.01    0.37
  -4   4   0   24.05    0.87
  -4   4   0   25.15    0.97
   3  -4   0    2.73    0.30
  -3   4   0    2.11    0.34
  -3   4   0    1.64    0.28
  -3   4   0    2.34    0.24
   2  -4   0   54.26    1.44
   2  -4   0   57.82    1.48
  -2   4   0   57.16    1.41
  -2   4   0   58.81    1.47
  -2   4   0   55.48    1.52
   1  -4   0   17.98    0.61
   1  -4   0   20.32    0.66
  -1   4   0   17.14    0.56
  -1   4   0   17.68    0.61
  -1   4   0   18.11    0.65
   0  -4   0   29.74    0.83
   0   4   0   29.11    0.84
   0   4   0   29.14    0.79
  -1  -4   0    2.61    0.22
   1   4   0    2.03    0.18
   1   4   0    2.75    0.22
   1   4   0    2.73    0.23
  -2  -4   0  250.24    5.71
   2   4   0  266.43    5.71
   2   4   0  254.50    5.72
   2   4   0  254.60    5.69
  -3  -4   0  125.64    2.96
   3   4   0  133.14    2.99
   3   4   0  125.49    3.02
   3   4   0  129.74    3.00
   3   4   0  135.56    2.95
  -4  -4   0   37.27    0.98
   4   4   0   35.77    1.01
   4   4   0   39.98    0.95
   4   4   0   39.18    1.06
   4   4   0   38.29    1.08
  -5  -4   0   12.09    0.44
  -6  -4   0   11.38    0.48
   6   4   0   10.52    0.63
   7   4   0   61.72    1.74
   7   4   0   61.93    1.83
   8   4   0    5.95    0.61
   8   4   0    5.07    0.53
   9   4   0   27.09    1.13
   9   4   0   25.81    1.28
  -5   5   0    1.41    0.48
  -4   5   0   33.45    1.32
  -4   5   0   33.95    1.25
  -3   5   0    7.03    0.60
  -3   5   0    7.12    0.48
  -3   5   0    7.34    0.55
   2  -5   0   62.80    1.67
  -2   5   0   62.60    1.74
  -2   5   0   65.38    1.67
  -2   5   0   63.11    1.62
   1  -5   0   25.15    0.82
   1  -5   0   25.21    0.85
  -1   5   0   25.32    0.82
  -1   5   0   25.40    0.78
  -1   5   0   24.77    0.86
   0  -5   0   91.29    2.21
   0   5   0   90.77    2.20
   0   5   0   89.01    2.23
   0   5   0   90.91    2.17
  -1  -5   0  103.50    2.49
   1   5   0  104.61    2.49
   1   5   0  104.61    2.45
   1   5   0  104.78    2.49
  -2  -5   0   13.10    0.52
   2   5   0   12.72    0.50
   2   5   0   12.52    0.48
  -3  -5   0   71.00    1.76
   3   5   0   70.39    1.72
   3   5   0   73.91    1.76
   3   5   0   69.81    1.78
   3   5   0   71.98    1.80
  -4  -5   0   63.49    1.57
   4   5   0   62.82    1.63
   4   5   0   62.59    1.52
   4   5   0   63.15    1.61
   4   5   0   61.72    1.65
  -5  -5   0  142.71    3.30
   5   5   0  146.45    3.45
   5   5   0  147.21    3.24
   5   5   0  139.34    3.33
   5   5   0  139.84    3.40
  -6  -5   0    0.82    0.20
   6   5   0    0.68    0.29
   7   5   0   13.13    0.78
   8   5   0    1.64    0.45
   9   5   0   25.03    1.25
  -3   6   0   14.43    0.84
  -3   6   0   14.56    0.76
  -2   6   0   20.10    0.83
  -2   6   0   20.67    0.78
  -2   6   0   19.40    0.91
   1  -6   0   43.94    1.28
  -1   6   0   43.01    1.34
  -1   6   0   43.72    1.29
  -1   6   0   43.03    1.23
   0  -6   0   19.21    0.73
   0   6   0   18.71    0.69
   0   6   0   18.02    0.72
   0   6   0   17.50    0.75
  -1  -6   0   41.50    1.21
   1   6   0   43.26    1.22
   1   6   0   41.29    1.21
   1   6   0   42.20    1.17
  -2  -6   0  153.03    3.55
   2   6   0  146.64    3.49
   2   6   0  151.12    3.53
   2   6   0  151.86    3.54
  -3  -6   0  126.93    3.03
   3   6   0  125.58    2.98
   3   6   0  131.54    3.07
   3   6   0  127.64    3.02
   3   6   0  125.56    3.04
  -4  -6   0    2.40    0.28
   4   6   0    2.54    0.26
   4   6   0    2.62    0.33
   4   6   0    2.91    0.34
   4   6   0    2.80    0.31
  -5  -6   0   32.61    1.01
   5   6   0   35.25    0.96
   5   6   0   35.12    1.10
   5   6   0   35.01    1.12
  -6  -6   0   20.70    0.74
   6   6   0   20.48    0.86
   6   6   0   21.22    0.90
   7   6   0   67.24    1.97
   8   6   0    0.33    0.41
   9   6   0   31.34    1.39
  -2   7   0   14.12    0.75
  -2   7   0   13.38    0.89
  -2   7   0   14.33    0.78
  -1   7   0    8.20    0.62
  -1   7   0    9.84    0.72
  -1   7   0    9.48    0.65
   0  -7   0    5.53    0.48
   0   7   0    5.87    0.49
   0   7   0    6.61    0.54
   0   7   0    5.56    0.50
  -1  -7   0   34.17    1.14
   1   7   0   37.00    1.10
   1   7   0   34.84    1.14
   1   7   0   33.94    1.12
  -2  -7   0    0.30    0.26
   2   7   0   -0.11    0.24
   2   7   0    0.52    0.28
   2   7   0    0.32    0.24
  -3  -7   0   25.66    0.90
   3   7   0   24.59    0.88
   3   7   0   25.30    0.85
   3   7   0   25.56    0.91
   3   7   0   25.35    0.92
  -4  -7   0    2.20    0.32
   4   7   0    2.85    0.38
   4   7   0    3.31    0.38
   4   7   0    2.61    0.30
   4   7   0    2.95    0.35
  -5  -7   0   38.96    1.19
   5   7   0   39.56    1.26
   5   7   0   40.06    1.28
   5   7   0   38.61    1.11
  -6  -7   0    1.37    0.31
   6   7   0    1.84    0.38
   6   7   0    0.99    0.37
  -7  -7   0    9.03    0.58
   7   7   0    8.93    0.75
   8   7   0    1.60    0.47
  -1   8   0    3.22    0.54
  -1   8   0    3.02    0.48
  -1   8   0    2.41    0.43
   0   8   0   -0.09    0.30
   0   8   0   -0.10    0.37
   0   8   0   -0.51    0.33
  -1  -8   0    0.51    0.32
   1   8   0    0.43    0.30
   1   8   0    0.24    0.34
   1   8   0    0.57    0.35
  -2  -8   0    2.92    0.41
   2   8   0    3.20    0.43
   2   8   0    3.10    0.38
   2   8   0    4.34    0.47
  -3  -8   0   18.07    0.85
   3   8   0   17.33    0.84
   3   8   0   17.76    0.82
   3   8   0   18.32    0.82
   3   8   0   18.96    0.78
  -4  -8   0   15.62    0.78
   4   8   0   15.44    0.71
   4   8   0   16.21    0.79
   4   8   0   15.65    0.79
  -5  -8   0    1.31    0.34
   5   8   0    1.60    0.29
   5   8   0    2.11    0.40
   5   8   0    1.70    0.40
  -6  -8   0   10.03    0.68
   6   8   0   11.23    0.77
   6   8   0   11.22    0.79
  -7  -8   0    2.25    0.40
   7   8   0    2.79    0.51
   7   8   0    2.60    0.49
   8   8   0    0.70    0.48
  -2  -9   0    0.67    0.39
   2   9   0    0.50    0.36
   2   9   0    0.60    0.41
   2   9   0    1.21    0.42
  -3  -9   0   10.39    0.77
   3   9   0    9.24    0.72
   3   9   0    9.71    0.69
   3   9   0    9.79    0.76
  -4  -9   0    0.17    0.35
   4   9   0    0.62    0.32
   4   9   0    0.26    0.39
   4   9   0    0.06    0.36
  -5  -9   0    3.92    0.50
   5   9   0    4.78    0.56
   5   9   0    4.25    0.42
   5   9   0    4.41    0.55
  -6  -9   0    2.10    0.44
   6   9   0    2.14    0.49
   6   9   0    2.78    0.52
   7   9   0    6.08    0.68
   7   9   0    5.41    0.63
   6   9  -1   40.68    1.52
   6   9  -1   43.74    1.54
  -6  -9   1   45.15    1.48
   5   9  -1    1.24    0.43
   5   9  -1    1.31    0.34
   5   9  -1    1.67    0.45
  -5  -9   1    1.39    0.42
   4   9  -1   17.42    0.92
   4   9  -1   18.57    0.84
   4   9  -1   18.75    0.95
  -4  -9   1   17.48    0.92
   3   9  -1    4.48    0.51
   3   9  -1    4.74    0.49
   3   9  -1    4.56    0.54
  -3  -9   1    4.84    0.55
   2   9  -1   12.48    0.85
   2   9  -1   13.93    0.87
   2   9  -1   12.62    0.80
  -2  -9   1   11.46    0.85
   8   8  -1   16.40    1.06
   7   8  -1    6.52    0.64
  -7  -8   1    6.63    0.54
   6   8  -1    1.61    0.44
   6   8  -1    2.10    0.44
  -6  -8   1    1.20    0.36
   5   8  -1   21.13    0.95
   5   8  -1   19.90    0.79
   5   8  -1   22.83    0.97
  -5  -8   1   21.45    0.92
   4   8  -1   19.84    0.91
   4   8  -1   20.62    0.91
   4   8  -1   20.00    0.81
  -4  -8   1   21.03    0.90
   3   8  -1    7.78    0.64
   3   8  -1    7.01    0.57
   3   8  -1    7.28    0.61
   3   8  -1    7.26    0.61
  -3  -8   1    7.34    0.63
   2   8  -1   17.14    0.83
   2   8  -1   16.70    0.78
   2   8  -1   17.88    0.81
   2   8  -1   17.18    0.83
  -2  -8   1   16.26    0.84
   1   8  -1   16.77    0.82
   1   8  -1   15.43    0.85
   1   8  -1   16.27    0.80
  -1  -8   1   16.56    0.86
   0   8  -1    0.27    0.38
   0   8  -1    0.13    0.32
   0   8  -1   -0.19    0.35
   8   7  -1    0.60    0.45
   7   7  -1    0.37    0.38
  -7  -7   1    0.23    0.27
   6   7  -1    1.25    0.39
   6   7  -1    1.19    0.36
  -6  -7   1    1.12    0.30
   5   7  -1   19.78    0.86
   5   7  -1   18.32    0.84
   5   7  -1   20.11    0.71
  -5  -7   1   18.78    0.78
   4   7  -1    1.22    0.32
   4   7  -1    0.91    0.31
   4   7  -1    1.06    0.31
   4   7  -1    1.00    0.25
  -4  -7   1    1.19    0.30
   3   7  -1    2.44    0.34
   3   7  -1    2.00    0.32
   3   7  -1    2.36    0.35
   3   7  -1    2.51    0.31
  -3  -7   1    1.91    0.33
   2   7  -1    7.24    0.51
   2   7  -1    8.48    0.55
   2   7  -1    8.32    0.57
   2   7  -1    8.36    0.56
  -2  -7   1    8.10    0.57
   1   7  -1    0.09    0.29
   1   7  -1    0.24    0.25
   1   7  -1    0.29    0.29
  -1  -7   1    0.22    0.29
   0   7  -1   -0.08    0.28
   0   7  -1   -0.01    0.26
   0   7  -1   -0.17    0.31
   0  -7   1    0.72    0.31
  -1   7  -1    1.72    0.38
  -1   7  -1    2.00    0.36
  -1   7  -1    2.06    0.43
  -2   7  -1    2.27    0.42
  -2   7  -1    1.89    0.38
  -2   7  -1    2.65    0.49
   9   6  -1    3.27    0.62
   8   6  -1    0.07    0.41
   7   6  -1    2.00    0.43
   6   6  -1    3.59    0.46
  -6  -6   1    3.82    0.34
   5   6  -1   44.65    1.36
   5   6  -1   45.80    1.19
   5   6  -1   44.93    1.35
  -5  -6   1   44.62    1.25
   4   6  -1   11.34    0.56
   4   6  -1   11.96    0.61
   4   6  -1   10.76    0.48
   4   6  -1   10.38    0.58
  -4  -6   1   10.95    0.54
   3   6  -1    5.58    0.44
   3   6  -1    5.37    0.46
   3   6  -1    5.82    0.44
   3   6  -1    6.00    0.39
  -3  -6   1    5.45    0.43
   2   6  -1   15.32    0.65
   2   6  -1   16.86    0.64
   2   6  -1   16.73    0.67
   2   6  -1   15.58    0.61
  -2  -6   1   15.30    0.65
   1   6  -1    1.26    0.28
   1   6  -1    1.35    0.27
   1   6  -1    0.88    0.23
  -1  -6   1    1.32    0.27
   0   6  -1    7.30    0.51
   0   6  -1    7.20    0.48
   0   6  -1    8.24    0.54
   0  -6   1    7.17    0.51
  -1   6  -1   29.02    0.94
  -1   6  -1   30.20    0.98
  -1   6  -1   28.59    1.03
   1  -6   1   29.04    1.03
   1  -6   1   28.60    0.99
  -2   6  -1    0.95    0.31
  -2   6  -1    1.52    0.31
  -2   6  -1    1.26    0.38
  -3   6  -1    1.63    0.39
  -3   6  -1    1.03    0.42
   9   5  -1    3.30    0.60
   8   5  -1   16.39    0.97
   7   5  -1   15.88    0.86
   6   5  -1   18.31    0.82
  -6  -5   1   20.32    0.66
   5   5  -1   23.83    0.86
   5   5  -1   23.58    0.79
   5   5  -1   24.82    0.69
   5   5  -1   23.01    0.87
  -5  -5   1   25.06    0.75
   4   5  -1   43.12    1.21
   4   5  -1   42.21    1.22
   4   5  -1   42.87    1.10
   4   5  -1   41.40    1.20
  -4  -5   1   43.02    1.15
   3   5  -1   90.40    2.17
   3   5  -1   87.42    2.10
   3   5  -1   88.17    2.17
   3   5  -1   86.80    2.16
  -3  -5   1   90.52    2.14
   2   5  -1   34.32    0.99
   2   5  -1   35.30    1.00
   2   5  -1   35.27    0.96
   2   5  -1   35.81    1.00
  -2  -5   1   35.05    1.00
   1   5  -1   58.17    1.47
   1   5  -1   56.07    1.44
   1   5  -1   56.23    1.48
  -1  -5   1   58.09    1.49
   0   5  -1    5.73    0.41
   0   5  -1    5.24    0.37
   0   5  -1    5.28    0.41
   0  -5   1    5.32    0.41
  -1   5  -1   59.52    1.53
  -1   5  -1   60.90    1.56
  -1   5  -1   60.03    1.62
   1  -5   1   60.03    1.65
   1  -5   1   59.52    1.59
  -2   5  -1    0.36    0.28
  -2   5  -1   -0.04    0.20
  -2   5  -1   -0.09    0.23
   2  -5   1    0.11    0.24
  -3   5  -1   81.31    2.03
  -3   5  -1   80.84    2.19
  -3   5  -1   80.63    2.06
  -4   5  -1   12.29    0.82
   9   4  -1   23.19    1.25
   8   4  -1   17.12    0.98
   7   4  -1   33.93    1.24
   6   4  -1   95.93    2.49
   5   4  -1  180.97    4.30
  -5  -4   1  186.19    4.13
   4   4  -1    5.84    0.39
   4   4  -1    6.61    0.42
   4   4  -1    5.36    0.36
   4   4  -1    5.83    0.27
  -4  -4   1    5.61    0.30
   3   4  -1  108.76    2.57
   3   4  -1  110.46    2.51
   3   4  -1  111.01    2.59
  -3  -4   1  107.61    2.53
   2   4  -1    0.53    0.16
   2   4  -1    0.50    0.15
   2   4  -1    0.37    0.13
   2   4  -1    0.32    0.15
  -2  -4   1    1.11    0.17
   1   4  -1  301.33    6.56
   1   4  -1  290.03    6.54
   1   4  -1  294.86    6.52
  -1  -4   1  291.52    6.55
   0   4  -1    1.40    0.19
   0   4  -1    1.54    0.22
   0   4  -1    0.98    0.16
   0  -4   1    1.19    0.19
  -1   4  -1  174.94    3.99
  -1   4  -1  170.89    3.91
  -1   4  -1  173.57    3.93
   1  -4   1  171.43    3.97
  -2   4  -1    7.91    0.50
  -2   4  -1    8.47    0.45
  -2   4  -1    8.14    0.40
   2  -4   1    8.16    0.48
   2  -4   1    7.89    0.45
  -3   4  -1   44.29    1.18
  -3   4  -1   45.41    1.23
  -3   4  -1   42.82    1.31
   3  -4   1   45.70    1.28
  -4   4  -1    0.59    0.34
  -4   4  -1    0.56    0.26
   4  -4   1    0.43    0.26
  -5   4  -1   54.80    1.68
   9   3  -1    1.96    0.58
   9   3  -1    2.81    0.50
   8   3  -1   37.64    1.28
   8   3  -1   36.94    1.46
   7   3  -1   36.87    1.33
   7   3  -1   36.92    1.20
   6   3  -1    8.05    0.58
   6   3  -1    8.34    0.51
   5   3  -1   72.72    1.88
   5   3  -1   71.80    1.82
  -5  -3   1   70.32    1.66
   4   3  -1   58.77    1.52
  -4  -3   1   59.11    1.39
   3   3  -1  210.39    4.55
   3   3  -1  204.54    4.63
   3   3  -1  202.81    4.63
   3   3  -1  205.72    4.64
  -3  -3   1  204.36    4.56
   2   3  -1   21.83    0.63
   2   3  -1   21.58    0.62
   2   3  -1   21.81    0.63
   2   3  -1   22.24    0.59
  -2  -3   1   22.70    0.61
   1   3  -1  181.23    3.98
   1   3  -1  174.47    3.97
   1   3  -1  178.26    3.95
  -1  -3   1  175.90    3.97
   0   3  -1   15.26    0.45
   0   3  -1   16.36    0.47
   0   3  -1   14.71    0.49
   0  -3   1   14.33    0.48
  -1   3  -1  130.98    3.04
  -1   3  -1  128.81    3.00
  -1   3  -1  130.79    2.98
   1  -3   1  136.75    3.03
  -2   3  -1    0.43    0.19
  -2   3  -1    0.61    0.17
  -2   3  -1    0.79    0.14
   2  -3   1    1.21    0.21
   2  -3   1    0.63    0.17
  -3   3  -1  113.54    2.64
  -3   3  -1  109.08    2.58
  -3   3  -1  111.82    2.71
   3  -3   1  115.49    2.70
  -4   3  -1   42.71    1.29
  -4   3  -1   46.21    1.21
   4  -3   1   43.68    1.26
  -5   3  -1    6.87    0.60
   5  -3   1    6.44    0.50
  -6   3  -1    0.39    0.36
   9   2  -1   10.71    0.80
   9   2  -1   12.45    1.09
   8   2  -1    1.59    0.39
   8   2  -1    1.64    0.52
   7   2  -1   16.93    0.94
   7   2  -1   16.02    0.74
  -7  -2   1   18.12    0.76
   6   2  -1   30.99    1.11
   6   2  -1   30.24    0.98
   5   2  -1   70.56    1.90
   5   2  -1   73.42    1.82
   4   2  -1    5.15    0.38
   4   2  -1    5.48    0.34
  -4  -2   1    5.04    0.19
   3   2  -1   94.63    2.22
   3   2  -1   94.33    2.20
  -3  -2   1   93.64    2.10
   2   2  -1    0.35    0.10
   2   2  -1    0.50    0.07
   2   2  -1    0.32    0.11
   2   2  -1    0.35    0.10
  -2  -2   1    0.44    0.08
   1   2  -1  179.19    4.00
   1   2  -1  183.39    4.01
   1   2  -1  182.90    4.02
   1   2  -1  177.59    4.01
  -1  -2   1  181.50    4.01
   0   2  -1    1.46    0.13
   0   2  -1    1.34    0.12
   0   2  -1    1.57    0.12
   0  -2   1    1.24    0.12
  -1   2  -1  100.68    2.33
  -1   2  -1  101.95    2.30
  -1   2  -1  101.09    2.28
   1  -2   1  101.66    2.33
  -2   2  -1    8.13    0.31
  -2   2  -1    7.84    0.35
  -2   2  -1    7.96    0.27
   2  -2   1    8.14    0.36
   2  -2   1    7.83    0.29
  -3   2  -1    6.48    0.32
  -3   2  -1    6.56    0.26
  -3   2  -1    5.55    0.36
   3  -2   1    6.91    0.37
  -4   2  -1    0.01    0.18
  -4   2  -1   -0.11    0.20
   4  -2   1    0.18    0.19
  -5   2  -1   16.96    0.72
  -5   2  -1   16.45    0.64
   5  -2   1   18.23    0.71
  -6   2  -1    9.98    0.65
   6  -2   1    8.67    0.60
  -7   2  -1    1.96    0.44
   7  -2   1    1.30    0.39
   8   1  -1    3.14    0.65
   8   1  -1    3.84    0.48
   7   1  -1    4.41    0.61
   7   1  -1    3.29    0.40
  -7  -1   1    3.75    0.37
  -7  -1   1    4.34    0.47
   6   1  -1   -0.02    0.23
   6   1  -1   -0.11    0.31
  -6  -1   1    0.25    0.21
  -6  -1   1    0.05    0.27
   5   1  -1    3.33    0.40
   5   1  -1    3.59    0.32
   4   1  -1    0.10    0.15
   4   1  -1    0.08    0.18
   3   1  -1   61.23    1.45
   3   1  -1   58.67    1.50
   2   1  -1    0.53    0.10
   2   1  -1    0.44    0.11
  -2  -1   1    0.50    0.06
   1   1  -1    9.30    0.30
   1   1  -1    8.86    0.28
   1   1  -1    9.44    0.28
   1   1  -1    9.30    0.26
  -1  -1   1    9.79    0.26
   0   1  -1   99.87    2.22
   0   1  -1   99.53    2.20
   0   1  -1   99.83    2.20
   0  -1   1   99.50    2.22
  -1   1  -1    3.98    0.15
  -1   1  -1    4.32    0.17
  -1   1  -1    4.49    0.18
   1  -1   1    4.15    0.22
   1  -1   1    4.12    0.21
  -2   1  -1    0.30    0.06
  -2   1  -1    0.42    0.10
  -2   1  -1    0.46    0.10
   2  -1   1    0.26    0.11
  -3   1  -1    0.74    0.08
  -3   1  -1    1.09    0.16
  -3   1  -1    0.71    0.13
   3  -1   1    0.75    0.21
   3  -1   1    0.73    0.16
  -4   1  -1    5.37    0.21
  -4   1  -1    5.00    0.35
  -4   1  -1    5.56    0.32
   4  -1   1    5.23    0.36
   4  -1   1    5.95    0.50
  -5   1  -1   27.82    0.85
  -5   1  -1   28.22    0.89
   5  -1   1   30.60    1.11
   5  -1   1   27.24    0.90
  -6   1  -1   22.28    0.83
   6  -1   1   21.90    0.84
  -7   1  -1    3.48    0.43
   7  -1   1    3.44    0.44
   8  -1   1    0.45    0.37
   8   0  -1    3.87    0.80
   8   0  -1    4.52    0.50
   7   0  -1   44.05    1.37
   7   0  -1   44.53    1.73
  -7   0   1   46.97    1.52
  -7   0   1   45.02    1.35
   6   0  -1    1.05    0.44
   6   0  -1    1.52    0.30
  -6   0   1    2.02    0.30
  -6   0   1    1.90    0.33
   5   0  -1    8.92    0.68
   5   0  -1    9.19    0.48
  -5   0   1    9.63    0.46
  -5   0   1    9.54    0.52
   4   0  -1    1.36    0.30
   4   0  -1    1.45    0.20
  -4   0   1    1.14    0.19
  -4   0   1    0.88    0.22
   3   0  -1  430.00    9.23
   3   0  -1  418.89    9.36
  -3   0   1  410.34    9.29
   2   0  -1   15.02    0.42
   2   0  -1   14.86    0.51
   1   0  -1  441.65    9.64
   1   0  -1  428.80    9.52
   0   0  -1    0.39    0.04
   0   0   1    0.61    0.05
  -1   0  -1   22.20    0.50
  -1   0  -1   21.59    0.52
  -1   0  -1   21.94    0.50
  -1   0  -1   21.95    0.51
   1   0   1   21.80    0.49
   1   0   1   22.43    0.49
   1   0   1   22.39    0.54
   1   0   1   21.48    0.52
  -2   0  -1   45.13    1.04
  -2   0  -1   44.89    1.04
   2   0   1   43.36    1.08
   2   0   1   44.03    1.07
  -3   0  -1  103.54    2.31
  -3   0  -1   98.13    2.28
   3   0   1   99.53    2.33
   3   0   1   99.83    2.39
  -4   0  -1  117.23    2.67
  -4   0  -1  112.47    2.65
   4   0   1  115.64    2.70
   4   0   1  114.60    2.81
  -5   0  -1    0.75    0.20
  -5   0  -1    0.49    0.19
   5   0   1    0.95    0.33
   5   0   1    0.55    0.22
  -6   0  -1    8.87    0.49
  -6   0  -1    8.95    0.49
   6   0   1    8.08    0.69
   6   0   1    8.51    0.54
  -7   0  -1    6.59    0.53
   7   0   1    6.53    0.57
   7   0   1    6.32    0.71
   8   0   1   27.73    1.10
   7  -1  -1   42.07    1.34
  -7   1   1   44.84    1.38
   6  -1  -1    1.17    0.30
  -6   1   1    0.91    0.30
  -6   1   1    0.64    0.28
   5  -1  -1   71.26    2.17
   5  -1  -1   77.55    1.91
  -5   1   1   76.33    1.93
  -5   1   1   76.12    1.93
   4  -1  -1   24.57    1.02
   4  -1  -1   27.34    0.79
  -4   1   1   26.91    0.81
  -4   1   1   27.22    0.83
   3  -1  -1  182.26    3.90
   3  -1  -1  160.24    4.07
  -3   1   1  175.63    3.93
  -3   1   1  171.46    3.91
   2  -1  -1   35.81    0.85
   2  -1  -1   31.75    0.98
  -2   1   1   34.29    0.87
  -2   1   1   33.35    0.88
  -2   1   1   35.32    0.78
   1  -1  -1  305.13    6.53
  -1   1   1  297.74    6.55
  -1   1   1  287.41    6.56
  -1   1   1  305.13    6.50
   0  -1  -1   17.43    0.43
   0   1   1   17.16    0.43
   0   1   1   16.85    0.44
   0   1   1   17.08    0.44
  -1  -1  -1   20.46    0.49
   1   1   1   20.98    0.48
   1   1   1   20.93    0.49
   1   1   1   20.26    0.49
  -2  -1  -1  103.65    2.37
   2   1   1  110.47    2.41
   2   1   1  107.09    2.41
  -3  -1  -1  201.63    4.42
   3   1   1  200.62    4.49
   3   1   1  200.52    4.51
  -4  -1  -1  178.30    4.05
   4   1   1  185.28    4.14
   4   1   1  181.76    4.18
  -5  -1  -1   68.41    1.64
   5   1   1   69.16    1.84
   5   1   1   67.16    1.74
  -6  -1  -1  154.76    3.61
  -6  -1  -1  153.85    3.51
   6   1   1  147.05    3.62
   6   1   1  153.74    3.79
  -7  -1  -1    4.27    0.38
   7   1   1    3.98    0.43
   7   1   1    4.10    0.56
   8   1   1   21.03    1.23
   8   1   1   23.70    0.99
  -7   2   1   34.98    1.28
   6  -2  -1   13.24    0.67
  -6   2   1   13.93    0.77
  -6   2   1   13.81    0.75
   5  -2  -1   66.86    1.75
  -5   2   1   68.67    1.78
  -5   2   1   67.03    1.80
   4  -2  -1    7.01    0.39
  -4   2   1    7.44    0.47
  -4   2   1    6.91    0.43
   3  -2  -1  180.22    3.96
  -3   2   1  177.33    4.00
  -3   2   1  170.30    3.97
  -3   2   1  169.79    3.86
   2  -2  -1  201.61    4.41
  -2   2   1  202.05    4.36
  -2   2   1  191.56    4.45
  -2   2   1  195.47    4.44
   1  -2  -1   60.93    1.37
   1  -2  -1   59.47    1.38
  -1   2   1   59.15    1.36
  -1   2   1   58.64    1.41
  -1   2   1   58.48    1.41
   0  -2  -1  857.59   18.71
   0   2   1  859.09   18.73
   0   2   1  852.02   18.80
   0   2   1  833.45   18.81
  -1  -2  -1  833.99   18.24
   1   2   1  808.72   18.13
   1   2   1  826.90   18.12
   1   2   1  827.26   18.13
  -2  -2  -1  365.35    8.02
   2   2   1  365.38    8.01
   2   2   1  370.27    8.05
   2   2   1  365.04    8.04
   2   2   1  366.78    8.06
   2   2   1  371.31    8.01
  -3  -2  -1  199.44    4.32
   3   2   1  196.77    4.39
   3   2   1  193.77    4.37
   3   2   1  193.32    4.39
  -4  -2  -1  210.03    4.61
   4   2   1  208.12    4.75
   4   2   1  209.88    4.73
  -5  -2  -1    0.44    0.10
  -5  -2  -1    0.47    0.13
   5   2   1    0.04    0.18
   5   2   1    0.36    0.21
  -6  -2  -1   75.18    1.80
   6   2   1   74.53    2.03
   6   2   1   75.50    1.95
   7   2   1   20.90    0.96
   7   2   1   18.73    0.82
   8   2   1   60.92    2.02
   8   2   1   63.25    1.82
   9   2   1    1.05    0.42
   9   2   1    0.38    0.70
  -6   3   1    0.40    0.38
  -5   3   1   39.24    1.21
  -5   3   1   42.36    1.31
   4  -3  -1   31.80    0.94
  -4   3   1   31.51    1.03
  -4   3   1   30.85    0.97
   3  -3  -1   45.98    1.19
  -3   3   1   44.88    1.27
  -3   3   1   45.45    1.23
  -3   3   1   44.43    1.12
   2  -3  -1   29.07    0.79
  -2   3   1   27.88    0.82
  -2   3   1   28.03    0.84
  -2   3   1   27.68    0.74
   1  -3  -1   38.67    0.99
   1  -3  -1   41.41    1.01
  -1   3   1   39.14    0.97
  -1   3   1   38.85    1.02
   0  -3  -1   41.33    1.00
   0   3   1   40.39    1.02
   0   3   1   39.94    1.01
   0   3   1   39.92    0.98
  -1  -3  -1   30.65    0.80
   1   3   1   31.82    0.79
   1   3   1   31.88    0.81
   1   3   1   31.34    0.78
  -2  -3  -1   30.35    0.77
   2   3   1   29.55    0.78
   2   3   1   30.94    0.74
   2   3   1   29.92    0.75
  -3  -3  -1    7.39    0.28
   3   3   1    7.78    0.25
   3   3   1    6.82    0.28
   3   3   1    7.51    0.33
   3   3   1    7.45    0.33
   3   3   1    7.39    0.31
  -4  -3  -1   75.33    1.72
   4   3   1   74.50    1.79
   4   3   1   72.63    1.80
   4   3   1   73.12    1.82
  -5  -3  -1    8.70    0.33
   5   3   1    9.35    0.48
   5   3   1    9.10    0.49
  -6  -3  -1   65.68    1.70
   6   3   1   63.35    1.77
   6   3   1   64.37    1.72
   7   3   1    4.75    0.46
   7   3   1    3.92    0.48
   8   3   1    9.25    0.75
   8   3   1    8.14    0.66
   9   3   1   -0.25    0.46
   9   3   1    0.56    0.41
  -5   4   1    0.35    0.36
  -4   4   1    0.54    0.33
  -4   4   1    0.75    0.28
   3  -4  -1   14.75    0.57
  -3   4   1   14.22    0.67
  -3   4   1   14.95    0.62
  -3   4   1   14.45    0.53
   2  -4  -1    6.97    0.37
  -2   4   1    6.76    0.46
  -2   4   1    6.14    0.34
  -2   4   1    6.22    0.43
   1  -4  -1    1.50    0.20
   1  -4  -1    1.27    0.19
  -1   4   1    1.16    0.22
  -1   4   1    1.68    0.18
  -1   4   1    1.24    0.22
   0  -4  -1   13.37    0.47
   0   4   1   12.95    0.49
   0   4   1   14.04    0.45
   0   4   1   12.55    0.48
  -1  -4  -1   17.46    0.55
   1   4   1   16.71    0.55
   1   4   1   17.72    0.55
  -2  -4  -1   16.90    0.53
   2   4   1   17.42    0.51
   2   4   1   17.17    0.54
   2   4   1   16.10    0.50
  -3  -4  -1    4.47    0.27
   3   4   1    4.49    0.30
   3   4   1    5.02    0.25
   3   4   1    4.78    0.26
   3   4   1    4.81    0.31
  -4  -4  -1   24.39    0.69
   4   4   1   24.66    0.65
   4   4   1   25.37    0.76
   4   4   1   24.24    0.68
   4   4   1   24.14    0.78
  -5  -4  -1    0.06    0.13
   5   4   1   -0.02    0.20
   5   4   1    0.02    0.20
  -6  -4  -1    0.72    0.17
   6   4   1    0.23    0.25
   6   4   1    0.07    0.24
   7   4   1    0.70    0.33
   7   4   1    0.59    0.31
   8   4   1    4.30    0.49
   8   4   1    3.30    0.51
   9   4   1    0.49    0.45
   9   4   1    0.45    0.40
  -5   5   1    0.80    0.46
  -4   5   1    0.16    0.37
  -4   5   1   -0.31    0.29
  -3   5   1    5.00    0.50
  -3   5   1    4.72    0.43
  -2   5   1   11.72    0.59
  -2   5   1   11.67    0.65
  -2   5   1   12.66    0.53
   1  -5  -1    0.12    0.19
   1  -5  -1   -0.05    0.18
  -1   5   1    0.14    0.22
  -1   5   1    0.25    0.24
  -1   5   1   -0.02    0.17
   0  -5  -1   10.52    0.47
   0   5   1    9.19    0.48
   0   5   1    9.82    0.49
   0   5   1   10.61    0.45
  -1  -5  -1    1.87    0.24
   1   5   1    1.35    0.24
   1   5   1    1.48    0.22
   1   5   1    1.24    0.20
  -2  -5  -1   29.21    0.85
   2   5   1   29.29    0.86
   2   5   1   29.73    0.83
   2   5   1   28.27    0.82
  -3  -5  -1    7.98    0.41
   3   5   1    9.42    0.40
   3   5   1    8.84    0.46
   3   5   1    8.36    0.37
   3   5   1    9.03    0.43
  -4  -5  -1   25.97    0.77
   4   5   1   25.76    0.72
   4   5   1   24.54    0.84
   4   5   1   26.21    0.77
   4   5   1   25.94    0.82
  -5  -5  -1    0.99    0.20
   5   5   1    1.82    0.28
   5   5   1    1.56    0.17
   5   5   1    1.25    0.28
  -6  -5  -1   27.32    0.80
   6   5   1   25.61    0.97
   7   5   1    1.35    0.37
   8   5   1   22.01    1.05
   9   5   1   10.32    0.90
  -3   6   1    0.34    0.37
  -3   6   1    0.82    0.35
  -2   6   1    6.21    0.53
  -2   6   1    6.63    0.50
  -2   6   1    6.55    0.50
   1  -6  -1   13.05    0.61
  -1   6   1   12.70    0.68
  -1   6   1   12.19    0.57
  -1   6   1   12.69    0.64
   0  -6  -1   47.68    1.35
   0   6   1   48.74    1.39
   0   6   1   47.92    1.37
   0   6   1   50.78    1.33
  -1  -6  -1    0.72    0.23
   1   6   1    1.19    0.24
   1   6   1    1.03    0.27
   1   6   1    1.02    0.25
  -2  -6  -1  114.99    2.78
   2   6   1  118.69    2.77
   2   6   1  114.26    2.78
   2   6   1  115.32    2.74
  -3  -6  -1    0.55    0.22
   3   6   1    0.51    0.20
   3   6   1    0.67    0.20
   3   6   1    0.39    0.22
  -4  -6  -1   80.44    1.99
   4   6   1   77.65    2.03
   4   6   1   79.96    2.06
   4   6   1   79.73    1.94
   4   6   1   82.28    1.98
  -5  -6  -1    0.69    0.22
   5   6   1    0.74    0.27
   5   6   1    0.48    0.27
   5   6   1    0.42    0.17
  -6  -6  -1   77.43    1.93
   6   6   1   77.39    2.04
   6   6   1   75.12    2.09
  -7  -6  -1   31.46    0.99
   7   6   1   33.16    1.19
   8   6   1   32.79    1.30
   9   6   1    4.42    0.64
  -2   7   1   31.82    1.12
  -2   7   1   32.94    1.28
  -2   7   1   35.67    1.20
  -1   7   1    2.17    0.39
  -1   7   1    1.94    0.34
  -1   7   1    1.58    0.41
   0  -7  -1   38.84    1.21
   0   7   1   38.35    1.26
   0   7   1   38.12    1.22
   0   7   1   37.83    1.17
  -1  -7  -1    0.01    0.25
   1   7   1    0.19    0.26
   1   7   1   -0.01    0.28
   1   7   1    0.18    0.24
  -2  -7  -1   44.16    1.35
   2   7   1   49.42    1.33
   2   7   1   47.20    1.35
   2   7   1   48.02    1.38
  -3  -7  -1   16.10    0.71
   3   7   1   16.13    0.65
   3   7   1   15.95    0.71
   3   7   1   17.25    0.68
  -4  -7  -1   46.83    1.33
   4   7   1   47.31    1.27
   4   7   1   44.61    1.35
   4   7   1   45.02    1.36
  -5  -7  -1    5.57    0.43
   5   7   1    5.93    0.51
   5   7   1    4.70    0.39
   5   7   1    6.33    0.50
  -6  -7  -1   34.20    1.07
   6   7   1   33.28    1.19
   6   7   1   31.75    1.14
  -7  -7  -1    9.31    0.59
   7   7   1    9.38    0.76
   8   7   1   15.39    0.96
   9   7   1   11.24    0.96
  -1   8   1    0.95    0.45
  -1   8   1    0.68    0.36
  -1   8   1    0.07    0.39
   0   8   1   29.90    1.14
   0   8   1   29.08    1.07
   0   8   1   27.81    1.12
  -1  -8  -1    5.34    0.51
   1   8   1    5.45    0.48
   1   8   1    5.96    0.53
   1   8   1    4.36    0.49
  -2  -8  -1   30.86    1.12
   2   8   1   31.58    1.10
   2   8   1   31.10    1.12
   2   8   1   34.25    1.10
  -3  -8  -1    0.81    0.32
   3   8   1    0.16    0.31
   3   8   1    0.74    0.31
   3   8   1    1.05    0.29
   3   8   1    0.91    0.35
  -4  -8  -1   28.70    1.02
   4   8   1   27.99    1.04
   4   8   1   26.43    0.93
   4   8   1   26.71    1.03
  -5  -8  -1    1.54    0.34
   5   8   1    2.26    0.41
   5   8   1    1.75    0.38
   5   8   1    1.91    0.30
  -6  -8  -1   27.80    1.00
   6   8   1   25.36    1.09
   6   8   1   25.87    1.06
  -7  -8  -1   14.10    0.75
   7   8   1   13.97    0.86
   7   8   1   13.55    0.90
   8   8   1    2.77    0.54
  -1  -9  -1    0.56    0.41
   1   9   1    1.50    0.45
   1   9   1    1.82    0.46
   1   9   1    1.77    0.41
  -2  -9  -1    2.03    0.44
   2   9   1    2.63    0.43
   2   9   1    2.32    0.46
   2   9   1    2.32    0.44
  -3  -9  -1    0.30    0.37
   3   9   1    0.83    0.40
   3   9   1    1.35    0.35
   3   9   1    0.69    0.38
  -4  -9  -1    0.75    0.37
   4   9   1    0.71    0.38
   4   9   1    0.84    0.39
   4   9   1    1.07    0.34
  -5  -9  -1    4.32    0.49
   5   9   1    4.55    0.44
   5   9   1    3.62    0.49
   5   9   1    3.99    0.53
  -6  -9  -1    0.81    0.38
   6   9   1    0.44    0.42
   6   9   1    0.55    0.40
  -7  -9  -1    1.90    0.43
   7   9   1    2.01    0.49
   7   9   1    2.52    0.54
   6   9  -2    6.68    0.67
   6   9  -2    5.35    0.64
  -6  -9   2    5.30    0.57
   5   9  -2    1.66    0.45
   5   9  -2    0.74    0.33
   5   9  -2    1.81    0.48
  -5  -9   2    0.59    0.41
   4   9  -2    9.71    0.80
   4   9  -2    7.62    0.59
   4   9  -2    8.62    0.75
  -4  -9   2    9.31    0.78
   3   9  -2    7.18    0.69
   3   9  -2    7.84    0.60
   3   9  -2    7.74    0.64
  -3  -9   2    7.08    0.65
   2   9  -2   15.76    0.89
   2   9  -2   13.95    0.91
   2   9  -2   13.87    0.83
  -2  -9   2   14.40    0.93
   7   8  -2    2.31    0.51
  -7  -8   2    2.98    0.45
   6   8  -2   18.38    0.95
   6   8  -2   17.88    0.96
  -6  -8   2   18.31    0.88
   5   8  -2   33.91    1.24
   5   8  -2   33.92    1.23
   5   8  -2   33.17    1.08
  -5  -8   2   34.48    1.19
   4   8  -2   20.57    0.83
   4   8  -2   21.69    0.93
   4   8  -2   21.01    0.92
  -4  -8   2   21.58    0.94
   3   8  -2    6.67    0.59
   3   8  -2    7.73    0.65
   3   8  -2    6.25    0.49
   3   8  -2    8.13    0.65
  -3  -8   2    6.85    0.56
   2   8  -2   15.93    0.76
   2   8  -2   15.44    0.83
   2   8  -2   15.10    0.81
  -2  -8   2   16.67    0.86
   1   8  -2    1.62    0.43
   1   8  -2    1.59    0.39
   1   8  -2    1.25    0.36
  -1  -8   2    1.70    0.41
   0   8  -2   30.39    1.23
   0   8  -2   31.67    1.16
   0   8  -2   31.46    1.15
   0  -8   2   30.27    1.40
   8   7  -2    8.28    0.77
   7   7  -2   18.91    1.00
  -7  -7   2   17.23    0.78
   6   7  -2   47.37    1.56
  -6  -7   2   49.39    1.42
   5   7  -2   10.42    0.68
   5   7  -2   10.57    0.53
   5   7  -2    9.88    0.68
  -5  -7   2   10.01    0.62
   4   7  -2   23.33    0.83
   4   7  -2   24.54    0.93
   4   7  -2   24.79    0.95
   4   7  -2   24.65    0.94
  -4  -7   2   25.55    0.92
   3   7  -2    3.89    0.37
   3   7  -2    3.66    0.39
   3   7  -2    3.40    0.41
   3   7  -2    4.32    0.43
  -3  -7   2    3.07    0.39
   2   7  -2   83.38    2.23
   2   7  -2   85.64    2.20
   2   7  -2   85.20    2.16
   2   7  -2   86.26    2.16
  -2  -7   2   84.22    2.23
   1   7  -2    1.10    0.33
   1   7  -2    1.19    0.30
   1   7  -2    1.26    0.32
  -1  -7   2    0.94    0.32
   0   7  -2   14.74    0.72
   0   7  -2   15.64    0.81
   0   7  -2   15.81    0.74
   0  -7   2   15.30    0.79
  -1   7  -2    0.43    0.31
  -1   7  -2    0.73    0.39
  -1   7  -2    0.12    0.31
  -2   7  -2   17.86    0.86
  -2   7  -2   17.60    1.19
  -2   7  -2   18.48    1.00
   8   6  -2    9.07    0.78
   7   6  -2    1.41    0.43
   6   6  -2    0.05    0.31
  -6  -6   2    0.36    0.23
   5   6  -2    0.70    0.20
   5   6  -2    0.59    0.31
   5   6  -2    0.93    0.31
   5   6  -2    0.78    0.28
  -5  -6   2    0.72    0.24
   4   6  -2   73.61    1.93
   4   6  -2   72.94    1.82
   4   6  -2   75.77    1.95
   4   6  -2   69.24    1.91
  -4  -6   2   72.95    1.87
   3   6  -2    8.48    0.52
   3   6  -2    8.82    0.51
   3   6  -2    8.84    0.46
   3   6  -2    7.86    0.50
  -3  -6   2    8.59    0.51
   2   6  -2   12.60    0.58
   2   6  -2   12.81    0.61
   2   6  -2   12.20    0.55
   2   6  -2   12.38    0.56
  -2  -6   2   11.92    0.59
   1   6  -2    0.49    0.22
   1   6  -2    0.56    0.26
   1   6  -2    0.88    0.26
  -1  -6   2    1.08    0.27
   0   6  -2   18.85    0.71
   0   6  -2   18.28    0.79
   0   6  -2   18.64    0.73
   0  -6   2   19.05    0.78
  -1   6  -2    8.67    0.54
  -1   6  -2    9.02    0.63
  -1   6  -2    8.94    0.57
   1  -6   2    7.90    0.64
   1  -6   2    8.86    0.60
  -2   6  -2   25.11    0.90
  -2   6  -2   25.38    0.91
  -2   6  -2   25.17    1.02
  -3   6  -2    3.06    0.40
  -3   6  -2    2.94    0.51
   9   5  -2    2.95    0.61
   8   5  -2    2.80    0.51
   7   5  -2    6.49    0.62
   6   5  -2    4.01    0.46
  -6  -5   2    3.52    0.30
   5   5  -2   16.72    0.73
   5   5  -2   16.57    0.55
   5   5  -2   14.90    0.66
  -5  -5   2   15.84    0.59
   4   5  -2    0.09    0.22
   4   5  -2   -0.02    0.22
   4   5  -2    0.06    0.21
   4   5  -2    0.38    0.15
  -4  -5   2    0.20    0.18
   3   5  -2    0.13    0.20
   3   5  -2    0.10    0.16
   3   5  -2    0.03    0.18
   3   5  -2    0.24    0.21
  -3  -5   2    0.33    0.18
   2   5  -2    0.31    0.19
   2   5  -2    0.17    0.20
   2   5  -2    0.09    0.16
   2   5  -2    0.10    0.17
  -2  -5   2    0.06    0.18
   1   5  -2    1.12    0.23
   1   5  -2    0.76    0.21
   1   5  -2    0.65    0.19
  -1  -5   2    0.79    0.23
   0   5  -2   16.71    0.67
   0   5  -2   17.48    0.63
   0   5  -2   17.15    0.61
   0  -5   2   16.99    0.67
  -1   5  -2    0.59    0.21
  -1   5  -2    0.81    0.24
  -1   5  -2   -0.10    0.24
   1  -5   2    0.82    0.24
  -2   5  -2    1.17    0.24
  -2   5  -2    1.58    0.34
  -2   5  -2    0.68    0.25
   2  -5   2    1.49    0.32
  -3   5  -2    0.21    0.23
  -3   5  -2    0.27    0.27
  -3   5  -2    0.45    0.34
   3  -5   2    0.12    0.27
  -4   5  -2    6.10    0.59
   9   4  -2    3.56    0.66
   8   4  -2   11.58    0.89
   7   4  -2    0.04    0.34
   6   4  -2   46.79    1.45
   5   4  -2   57.02    1.57
  -5  -4   2   55.39    1.38
   4   4  -2   45.97    1.28
   4   4  -2   48.74    1.16
   4   4  -2   46.22    1.28
   4   4  -2   47.42    1.30
  -4  -4   2   45.70    1.18
   3   4  -2    8.85    0.35
   3   4  -2    8.01    0.41
   3   4  -2    8.46    0.42
   3   4  -2    8.87    0.45
  -3  -4   2    8.11    0.37
   2   4  -2  223.72    5.03
   2   4  -2  221.68    5.02
   2   4  -2  225.99    5.05
   2   4  -2  227.35    5.00
  -2  -4   2  218.97    5.02
   1   4  -2   11.57    0.46
   1   4  -2   11.17    0.43
   1   4  -2   10.84    0.41
  -1  -4   2   11.61    0.46
   0   4  -2   28.59    0.79
   0   4  -2   27.91    0.80
   0   4  -2   28.73    0.85
   0  -4   2   28.48    0.84
  -1   4  -2    3.10    0.27
  -1   4  -2    2.19    0.27
  -1   4  -2    2.96    0.25
   1  -4   2    2.91    0.29
  -2   4  -2   81.75    2.10
  -2   4  -2   82.33    2.01
  -2   4  -2   82.41    1.99
   2  -4   2   80.36    2.08
   2  -4   2   87.41    2.14
  -3   4  -2    0.68    0.29
  -3   4  -2   -0.03    0.18
  -3   4  -2    0.20    0.21
   3  -4   2    0.29    0.24
  -4   4  -2   26.00    1.00
   4  -4   2   26.04    0.95
  -5   4  -2    0.25    0.38
   9   3  -2    0.39    0.51
   8   3  -2   32.36    1.39
   7   3  -2    0.92    0.39
   6   3  -2   30.19    1.10
   5   3  -2    0.70    0.26
  -5  -3   2    0.40    0.12
   4   3  -2  268.97    5.95
  -4  -3   2  255.82    5.79
   3   3  -2   45.16    1.08
   3   3  -2   44.51    1.17
   3   3  -2   45.09    1.19
   3   3  -2   45.40    1.17
  -3  -3   2   43.86    1.09
   2   3  -2  275.63    6.29
   2   3  -2  287.96    6.26
   2   3  -2  289.61    6.32
   2   3  -2  281.13    6.29
  -2  -3   2  283.34    6.27
   1   3  -2    3.55    0.21
   1   3  -2    3.53    0.23
   1   3  -2    3.28    0.21
   1   3  -2    3.21    0.24
  -1  -3   2    3.15    0.23
   0   3  -2  290.07    6.51
   0   3  -2  288.55    6.51
   0   3  -2  298.81    6.56
   0  -3   2  302.76    6.56
  -1   3  -2  137.53    3.14
  -1   3  -2  137.02    3.14
  -1   3  -2  140.54    3.20
   1  -3   2  139.96    3.21
  -2   3  -2   82.03    2.05
  -2   3  -2   84.51    1.99
  -2   3  -2   84.94    1.97
   2  -3   2   82.80    2.06
   2  -3   2   86.99    2.11
  -3   3  -2   77.05    1.98
  -3   3  -2   77.56    1.86
  -3   3  -2   79.58    1.89
   3  -3   2   79.89    2.00
  -4   3  -2   29.06    0.86
  -4   3  -2   28.32    0.97
   4  -3   2   28.15    0.94
  -5   3  -2   75.57    2.03
   5  -3   2   75.15    2.02
  -6   3  -2   20.06    0.93
   6  -3   2   18.63    0.87
   9   2  -2    3.48    0.70
   9   2  -2    2.92    0.51
   8   2  -2   60.42    1.78
   8   2  -2   62.02    2.09
  -8  -2   2   60.76    1.89
   7   2  -2    0.97    0.41
   7   2  -2    0.95    0.31
  -7  -2   2    0.61    0.27
   6   2  -2  173.55    4.24
   6   2  -2  172.95    4.07
   5   2  -2   36.69    1.15
   5   2  -2   36.18    1.06
   4   2  -2  117.21    2.85
   4   2  -2  119.07    2.79
  -4  -2   2  119.83    2.64
   3   2  -2   20.43    0.65
  -3  -2   2   21.00    0.53
   2   2  -2  298.85    6.60
   2   2  -2  294.00    6.60
   2   2  -2  297.06    6.54
   2   2  -2  299.83    6.63
  -2  -2   2  302.30    6.55
   1   2  -2  461.37   10.37
   1   2  -2  478.32   10.40
   1   2  -2  476.76   10.37
   1   2  -2  480.57   10.36
  -1  -2   2  475.82   10.37
   0   2  -2   81.33    1.82
   0   2  -2   78.94    1.82
   0  -2   2   79.57    1.85
  -1   2  -2  204.31    4.59
  -1   2  -2  202.20    4.54
  -1   2  -2  203.77    4.54
   1  -2   2  211.65    4.61
  -2   2  -2   99.61    2.30
  -2   2  -2  101.07    2.31
  -2   2  -2  102.40    2.37
   2  -2   2  106.67    2.42
   2  -2   2   97.72    2.35
  -3   2  -2  130.06    3.04
  -3   2  -2  128.94    2.97
  -3   2  -2  129.54    2.94
   3  -2   2  133.97    3.08
  -4   2  -2   53.09    1.30
  -4   2  -2   53.95    1.35
  -4   2  -2   55.96    1.44
   4  -2   2   52.69    1.45
  -5   2  -2   54.29    1.51
   5  -2   2   54.96    1.53
  -6   2  -2   13.88    0.73
   6  -2   2   15.08    0.73
  -7   2  -2   23.80    1.01
   7  -2   2   21.89    0.99
   8   1  -2   15.27    1.12
   8   1  -2   15.40    0.81
   7   1  -2    0.65    0.30
   7   1  -2    1.13    0.46
  -7  -1   2    0.41    0.34
  -7  -1   2    0.16    0.26
   6   1  -2   31.10    1.21
   6   1  -2   29.63    0.98
  -6  -1   2   29.45    1.09
  -6  -1   2   30.84    0.94
   5   1  -2    0.50    0.21
   5   1  -2    0.31    0.28
   4   1  -2  144.92    3.49
   4   1  -2  147.62    3.37
   3   1  -2   77.66    1.83
   2   1  -2   51.77    1.27
  -2  -1   2   52.12    1.16
   1   1  -2   20.29    0.51
   1   1  -2   19.84    0.53
   1   1  -2   19.74    0.56
  -1  -1   2   20.95    0.50
   0   1  -2  478.74   10.40
   0   1  -2  485.78   10.46
   0   1  -2  476.56   10.44
   0   1  -2  461.28   10.53
   0  -1   2  480.49   10.55
  -1   1  -2  202.88    4.47
  -1   1  -2  209.29    4.51
  -1   1  -2  209.13    4.48
   1  -1   2  194.51    4.55
  -2   1  -2    0.95    0.13
  -2   1  -2    1.28    0.10
  -2   1  -2    1.45    0.11
   2  -1   2    1.23    0.16
   2  -1   2    1.45    0.11
  -3   1  -2   58.99    1.36
  -3   1  -2   57.15    1.32
  -3   1  -2   56.24    1.41
   3  -1   2   58.06    1.45
  -4   1  -2   20.85    0.56
  -4   1  -2   22.51    0.63
  -4   1  -2   21.62    0.68
   4  -1   2   20.81    0.72
   4  -1   2   22.03    0.81
  -5   1  -2   76.06    1.84
  -5   1  -2   77.99    1.91
   5  -1   2   74.19    1.95
  -6   1  -2    1.56    0.31
   6  -1   2    1.02    0.30
  -7   1  -2   18.22    0.81
   7  -1   2   17.00    0.85
   8  -1   2    2.00    0.46
   8   0  -2    3.96    0.74
   8   0  -2    3.62    0.48
   7   0  -2    0.89    0.51
   7   0  -2    1.40    0.33
  -7   0   2    0.82    0.32
  -7   0   2    0.74    0.35
   6   0  -2   12.77    0.92
   6   0  -2   15.09    0.66
  -6   0   2   15.61    0.74
  -6   0   2   15.77    0.66
   5   0  -2    7.10    0.43
   5   0  -2    6.54    0.59
  -5   0   2    8.20    0.45
  -5   0   2    7.21    0.53
   4   0  -2    4.46    0.44
   4   0  -2    4.42    0.30
  -4   0   2    4.40    0.38
   3   0  -2    9.54    0.50
   3   0  -2   10.22    0.37
   2   0  -2   73.44    1.83
   2   0  -2   76.44    1.72
   1   0  -2  314.90    7.05
  -1   0   2  324.14    6.96
   0   0  -2    1.71    0.11
   0   0   2    2.10    0.13
  -1   0  -2    2.46    0.11
  -1   0  -2    2.54    0.11
   1   0   2    2.42    0.09
   1   0   2    2.53    0.12
  -2   0  -2   19.94    0.48
  -2   0  -2   21.09    0.49
  -2   0  -2   19.36    0.51
   2   0   2   20.21    0.54
   2   0   2   19.66    0.56
  -3   0  -2    6.29    0.26
  -3   0  -2    6.58    0.25
  -3   0  -2    6.42    0.19
   3   0   2    6.72    0.31
   3   0   2    5.92    0.33
  -4   0  -2    0.30    0.13
  -4   0  -2    0.01    0.13
  -4   0  -2    0.15    0.07
   4   0   2    0.26    0.21
   4   0   2    0.32    0.17
  -5   0  -2   24.29    0.71
  -5   0  -2   23.46    0.73
   5   0   2   24.25    0.81
   5   0   2   23.35    0.93
  -6   0  -2    0.20    0.22
   6   0   2    0.31    0.26
   6   0   2    0.52    0.35
  -7   0  -2    2.09    0.34
   7   0   2    1.71    0.37
   8   0   2    3.36    0.48
   7  -1  -2    5.71    0.50
  -7   1   2    5.59    0.52
   6  -1  -2    0.29    0.25
  -6   1   2    0.57    0.31
  -6   1   2    0.45    0.30
   5  -1  -2   14.30    0.59
   5  -1  -2   14.26    0.88
  -5   1   2   14.44    0.66
  -5   1   2   14.04    0.62
   4  -1  -2    9.13    0.69
   4  -1  -2   10.31    0.44
  -4   1   2    9.88    0.46
  -4   1   2   10.34    0.51
   3  -1  -2    0.83    0.14
   3  -1  -2    0.75    0.27
  -3   1   2    1.27    0.21
  -3   1   2    0.84    0.17
   2  -1  -2    4.22    0.19
   2  -1  -2    3.06    0.30
  -2   1   2    3.73    0.26
   1  -1  -2   79.10    1.75
   1  -1  -2   78.79    1.77
   1  -1  -2   80.74    1.78
  -1   1   2   80.56    1.78
   0  -1  -2    5.97    0.18
   0   1   2    5.88    0.20
   0   1   2    5.79    0.18
  -1  -1  -2    1.01    0.10
   1   1   2    1.07    0.07
   1   1   2    0.99    0.08
   1   1   2    0.85    0.08
  -2  -1  -2  119.65    2.59
  -2  -1  -2  108.88    2.64
   2   1   2  117.03    2.64
   2   1   2  118.61    2.66
   2   1   2  123.19    2.62
   2   1   2  118.71    2.61
   2   1   2  120.25    2.59
  -3  -1  -2   92.41    2.08
  -3  -1  -2   93.14    2.08
   3   1   2   93.63    2.15
   3   1   2   92.40    2.16
  -4  -1  -2    8.00    0.30
  -4  -1  -2    8.03    0.25
   4   1   2    8.60    0.41
  -5  -1  -2   38.73    1.04
  -5  -1  -2   36.86    0.96
   5   1   2   36.85    1.13
   5   1   2   35.58    1.06
  -6  -1  -2    6.58    0.42
  -6  -1  -2    5.78    0.37
   6   1   2    6.96    0.59
   6   1   2    5.79    0.48
   7   1   2   15.41    0.91
   7   1   2   15.26    0.75
   8   1   2    0.80    0.36
  -7   2   2    1.85    0.45
  -6   2   2   28.06    1.02
  -6   2   2   28.04    1.04
   5  -2  -2   29.98    0.94
  -5   2   2   31.00    1.01
  -5   2   2   30.14    1.02
   4  -2  -2   43.57    1.17
  -4   2   2   44.28    1.24
  -4   2   2   43.35    1.25
   3  -2  -2  306.29    6.62
  -3   2   2  294.24    6.68
  -3   2   2  299.44    6.69
  -3   2   2  293.18    6.54
   2  -2  -2   19.68    0.53
  -2   2   2   18.64    0.60
  -2   2   2   18.00    0.49
   1  -2  -2  197.30    4.20
   1  -2  -2  191.06    4.20
  -1   2   2  190.07    4.27
  -1   2   2  185.92    4.27
  -1   2   2  190.12    4.21
   0  -2  -2  608.81   13.18
   0   2   2  594.23   13.34
   0   2   2  623.39   13.40
   0   2   2  581.28   13.31
  -1  -2  -2  694.11   15.52
   1   2   2  703.84   15.41
   1   2   2  707.85   15.55
   1   2   2  696.50   15.57
  -2  -2  -2    2.41    0.15
   2   2   2    2.68    0.13
   2   2   2    3.13    0.15
   2   2   2    2.25    0.15
  -3  -2  -2  112.59    2.50
  -3  -2  -2  112.30    2.43
   3   2   2  108.65    2.51
   3   2   2  115.46    2.44
   3   2   2  108.95    2.55
   3   2   2  107.90    2.54
  -4  -2  -2    0.86    0.12
  -4  -2  -2    0.91    0.10
   4   2   2    0.75    0.16
   4   2   2    0.97    0.18
  -5  -2  -2  101.22    2.36
  -5  -2  -2  104.71    2.36
   5   2   2  105.28    2.53
   5   2   2  104.27    2.51
  -6  -2  -2    0.87    0.18
   6   2   2    0.60    0.27
   6   2   2    0.23    0.23
   7   2   2   28.92    1.02
   7   2   2   28.51    1.12
   8   2   2    7.32    0.60
   8   2   2    8.07    0.74
   9   2   2    3.57    0.53
  -6   3   2   16.98    0.89
  -5   3   2   35.44    1.19
  -5   3   2   34.55    1.12
   4  -3  -2    1.53    0.25
  -4   3   2    1.80    0.32
  -4   3   2    1.72    0.30
   3  -3  -2  128.50    2.86
  -3   3   2  121.03    2.80
  -3   3   2  120.84    2.93
  -3   3   2  122.87    2.95
   2  -3  -2   50.19    1.19
  -2   3   2   46.77    1.17
  -2   3   2   47.05    1.26
  -2   3   2   48.51    1.28
   1  -3  -2  291.96    6.49
   1  -3  -2  307.55    6.49
  -1   3   2  288.83    6.48
  -1   3   2  284.55    6.55
  -1   3   2  298.98    6.56
   0  -3  -2   15.62    0.47
   0   3   2   15.94    0.47
   0   3   2   15.91    0.50
   0   3   2   16.50    0.50
  -1  -3  -2  106.86    2.46
   1   3   2  109.42    2.45
   1   3   2  105.59    2.47
   1   3   2  111.01    2.45
  -2  -3  -2   21.40    0.61
   2   3   2   23.64    0.57
   2   3   2   23.39    0.60
   2   3   2   23.30    0.62
  -3  -3  -2  415.25    9.32
   3   3   2  421.97    9.27
   3   3   2  421.34    9.29
   3   3   2  437.48    9.39
   3   3   2  423.47    9.36
   3   3   2  432.78    9.34
  -4  -3  -2    3.99    0.23
   4   3   2    4.48    0.27
   4   3   2    3.90    0.31
   4   3   2    4.16    0.30
   4   3   2    4.43    0.16
  -5  -3  -2  159.92    3.49
  -5  -3  -2  155.34    3.54
   5   3   2  157.88    3.67
   5   3   2  156.84    3.69
   6   3   2    7.65    0.52
   6   3   2    6.40    0.48
   7   3   2  126.19    3.22
   7   3   2  128.20    3.15
   8   3   2    4.31    0.48
   8   3   2    5.21    0.59
   9   3   2   40.70    1.63
   9   3   2   40.61    1.43
  -5   4   2   42.86    1.35
  -5   4   2   44.28    1.45
  -4   4   2   15.12    0.77
  -4   4   2   15.62    0.72
  -3   4   2   43.84    1.30
  -3   4   2   45.27    1.26
  -3   4   2   41.79    1.13
   2  -4  -2    0.99    0.18
  -2   4   2    0.83    0.17
  -2   4   2    1.19    0.26
  -2   4   2    0.44    0.23
   1  -4  -2   79.27    1.84
   1  -4  -2   78.59    1.86
  -1   4   2   76.03    1.92
  -1   4   2   78.29    1.85
  -1   4   2   77.37    1.92
   0  -4  -2    8.12    0.35
   0   4   2    7.91    0.39
   0   4   2    7.75    0.34
   0   4   2    7.70    0.38
  -1  -4  -2  783.23   16.91
   1   4   2  806.82   16.90
   1   4   2  747.00   16.95
   1   4   2  757.77   16.91
  -2  -4  -2   66.06    1.59
   2   4   2   66.99    1.57
   2   4   2   66.23    1.56
   2   4   2   65.83    1.60
  -3  -4  -2  259.89    5.81
   3   4   2  256.73    5.83
   3   4   2  266.28    5.77
   3   4   2  262.79    5.78
  -4  -4  -2    0.98    0.16
   4   4   2    1.64    0.14
   4   4   2    1.45    0.20
   4   4   2    1.47    0.23
   4   4   2    1.74    0.14
  -5  -4  -2  132.55    3.06
   5   4   2  130.90    3.19
   5   4   2  135.16    2.96
   5   4   2  135.95    3.17
   5   4   2  133.67    3.14
  -6  -4  -2   29.88    0.83
   6   4   2   30.86    1.00
   6   4   2   29.20    1.00
   7   4   2   51.20    1.59
   7   4   2   53.95    1.54
   8   4   2    7.63    0.66
   8   4   2    7.95    0.63
   9   4   2   23.03    1.17
   9   4   2   21.29    1.04
  -4   5   2   -0.09    0.32
  -4   5   2   -0.16    0.35
  -3   5   2   10.72    0.70
  -3   5   2   12.23    0.67
  -2   5   2    0.00    0.24
  -2   5   2    0.20    0.19
  -2   5   2    0.17    0.27
   1  -5  -2   47.57    1.26
  -1   5   2   46.79    1.32
  -1   5   2   48.11    1.25
  -1   5   2   47.23    1.33
   0  -5  -2   13.44    0.53
   0   5   2   13.26    0.57
   0   5   2   14.35    0.52
   0   5   2   13.21    0.55
  -1  -5  -2   11.03    0.47
   1   5   2   11.87    0.47
   1   5   2   10.85    0.45
   1   5   2   10.31    0.49
  -2  -5  -2    9.43    0.43
   2   5   2    9.32    0.39
   2   5   2    9.00    0.39
  -3  -5  -2   53.00    1.36
   3   5   2   52.69    1.33
   3   5   2   52.57    1.37
   3   5   2   54.65    1.32
  -4  -5  -2   54.41    1.40
   4   5   2   54.04    1.43
   4   5   2   55.40    1.37
   4   5   2   54.35    1.35
   4   5   2   57.53    1.48
  -5  -5  -2    5.66    0.36
   5   5   2    5.21    0.44
   5   5   2    5.59    0.29
   5   5   2    5.69    0.41
  -6  -5  -2    0.06    0.18
   6   5   2    0.23    0.26
   7   5   2    8.19    0.61
   7   5   2    8.36    0.59
   8   5   2    7.71    0.69
   8   5   2    6.52    0.62
   9   5   2    1.36    0.44
   9   5   2    1.79    0.50
  -3   6   2    0.42    0.39
  -3   6   2    0.26    0.34
  -2   6   2    0.27    0.24
  -2   6   2    0.59    0.32
  -2   6   2    0.04    0.32
  -1   6   2    5.01    0.38
  -1   6   2    4.76    0.43
  -1   6   2    4.35    0.43
   0  -6  -2    5.79    0.44
   0   6   2    5.42    0.46
   0   6   2    5.33    0.46
   0   6   2    5.12    0.42
  -1  -6  -2    1.43    0.26
   1   6   2    1.52    0.25
   1   6   2    1.40    0.26
   1   6   2    1.46    0.28
  -2  -6  -2   25.17    0.83
   2   6   2   24.32    0.84
   2   6   2   25.34    0.79
   2   6   2   25.95    0.79
  -3  -6  -2   31.68    0.95
   3   6   2   31.05    0.96
   3   6   2   30.10    0.90
   3   6   2   31.23    0.89
  -4  -6  -2    0.29    0.21
   4   6   2    0.54    0.25
   4   6   2    0.21    0.22
   4   6   2    0.88    0.21
   4   6   2    0.06    0.16
  -5  -6  -2    0.42    0.21
   5   6   2    0.31    0.26
   5   6   2    0.11    0.16
   5   6   2    0.23    0.23
  -6  -6  -2    0.28    0.21
   6   6   2    0.62    0.30
   6   6   2    0.66    0.28
  -7  -6  -2   -0.21    0.21
   7   6   2    0.01    0.33
   8   6   2    0.62    0.39
   9   6   2    0.21    0.44
  -2   7   2    0.09    0.38
  -2   7   2   -0.10    0.28
  -2   7   2    0.59    0.37
  -1   7   2   10.35    0.63
  -1   7   2   11.05    0.74
  -1   7   2   11.17    0.72
   0  -7  -2    1.50    0.31
   0   7   2    1.50    0.31
   0   7   2    1.24    0.35
   0   7   2    1.46    0.36
  -1  -7  -2   28.63    0.98
   1   7   2   29.68    1.00
   1   7   2   28.69    1.01
   1   7   2   29.03    0.96
  -2  -7  -2    6.05    0.49
   2   7   2    6.62    0.47
   2   7   2    6.36    0.53
   2   7   2    5.84    0.47
  -3  -7  -2    0.46    0.24
   3   7   2    0.33    0.22
   3   7   2    0.48    0.26
   3   7   2    0.67    0.23
  -4  -7  -2    2.27    0.32
   4   7   2    1.74    0.26
   4   7   2    2.14    0.33
   4   7   2    1.94    0.35
  -5  -7  -2   30.11    0.97
   5   7   2   28.28    1.04
   5   7   2   29.51    0.89
   5   7   2   29.70    1.02
  -6  -7  -2   34.33    1.08
   6   7   2   33.54    1.15
   6   7   2   34.62    1.22
  -7  -7  -2    3.12    0.37
   7   7   2    2.82    0.46
   7   7   2    3.67    0.46
   8   7   2    1.85    0.47
   9   7   2    3.12    0.59
  -1   8   2   16.35    0.86
  -1   8   2   18.09    0.98
  -1   8   2   18.18    0.92
   0   8   2    8.22    0.70
   0   8   2    8.76    0.74
   0   8   2    8.85    0.66
  -1  -8  -2   11.59    0.70
   1   8   2   13.62    0.77
   1   8   2   10.88    0.71
   1   8   2   11.78    0.69
  -2  -8  -2    3.58    0.43
   2   8   2    4.34    0.44
   2   8   2    3.70    0.40
   2   8   2    4.64    0.47
  -3  -8  -2   83.01    2.20
   3   8   2   82.53    2.13
   3   8   2   82.66    2.20
   3   8   2   83.40    2.22
  -4  -8  -2   38.94    1.25
   4   8   2   38.34    1.28
   4   8   2   38.18    1.16
   4   8   2   39.13    1.27
  -5  -8  -2    9.09    0.64
   5   8   2    9.48    0.54
   5   8   2    9.64    0.69
   5   8   2    9.45    0.65
  -6  -8  -2   13.26    0.73
   6   8   2   12.98    0.77
   6   8   2   13.58    0.64
   6   8   2   14.45    0.83
  -7  -8  -2    8.15    0.64
   7   8   2    9.33    0.74
   7   8   2    8.51    0.71
  -8  -8  -2   28.59    1.06
   8   8   2   28.12    1.28
  -1  -9  -2    8.81    0.75
   1   9   2    9.12    0.74
   1   9   2    9.34    0.77
   1   9   2   10.89    0.79
  -2  -9  -2   13.40    0.82
   2   9   2   14.57    0.81
   2   9   2   14.25    0.85
   2   9   2   13.39    0.81
  -3  -9  -2    2.35    0.42
   3   9   2    1.93    0.36
   3   9   2    2.81    0.46
  -4  -9  -2   14.06    0.82
   4   9   2   13.46    0.83
   4   9   2   13.53    0.82
   4   9   2   12.87    0.71
  -5  -9  -2    9.98    0.72
   5   9   2    7.90    0.60
   5   9   2   10.31    0.74
   5   9   2    9.13    0.75
  -6  -9  -2   21.42    0.96
   6   9   2   19.57    0.81
   6   9   2   18.58    0.96
   6   9   2   18.53    1.00
  -7  -9  -2    0.40    0.36
   7   9   2   -0.09    0.42
   7   9   2    0.23    0.41
   5   9  -3    0.68    0.42
   5   9  -3    0.44    0.33
   5   9  -3    0.04    0.41
  -5  -9   3    0.43    0.42
   4   9  -3    1.49    0.46
   4   9  -3    0.81    0.36
  -4  -9   3    1.19    0.44
   3   9  -3   -0.13    0.34
   3   9  -3    0.63    0.44
   3   9  -3   -0.17    0.39
  -3  -9   3   -0.26    0.39
   7   8  -3    8.90    0.77
  -7  -8   3    8.70    0.72
   6   8  -3    4.29    0.55
  -6  -8   3    4.31    0.49
   5   8  -3    0.23    0.37
   5   8  -3    0.16    0.38
   5   8  -3    0.30    0.27
  -5  -8   3    0.42    0.35
   4   8  -3    1.47    0.41
   4   8  -3    1.90    0.42
   4   8  -3    1.45    0.38
   4   8  -3    1.26    0.31
  -4  -8   3    1.63    0.39
   3   8  -3    3.24    0.42
   3   8  -3    4.13    0.51
   3   8  -3    3.18    0.41
   3   8  -3    3.47    0.46
  -3  -8   3    3.83    0.47
   2   8  -3    1.47    0.41
   2   8  -3    1.18    0.34
   2   8  -3    1.51    0.40
  -2  -8   3    1.62    0.42
   1   8  -3   23.74    0.99
   1   8  -3   21.27    0.94
   1   8  -3   20.81    1.02
  -1  -8   3   22.11    1.03
   0   8  -3    0.55    0.38
   0   8  -3   -0.34    0.40
   0   8  -3    0.66    0.37
   0  -8   3    0.02    0.39
   8   7  -3    0.56    0.48
   7   7  -3   11.50    0.90
  -7  -7   3   12.62    0.71
   6   7  -3    9.34    0.73
  -6  -7   3    9.51    0.63
   5   7  -3   60.04    1.56
   5   7  -3   58.14    1.72
   5   7  -3   56.38    1.71
  -5  -7   3   58.48    1.65
   4   7  -3    3.39    0.42
   4   7  -3    2.94    0.34
   4   7  -3    3.69    0.45
   4   7  -3    3.25    0.42
  -4  -7   3    3.35    0.40
   3   7  -3   43.16    1.31
   3   7  -3   44.29    1.29
   3   7  -3   40.82    1.24
   3   7  -3   42.16    1.34
  -3  -7   3   42.68    1.33
   2   7  -3    4.98    0.41
   2   7  -3    4.71    0.48
   2   7  -3    4.28    0.40
   2   7  -3    5.10    0.45
  -2  -7   3    4.41    0.45
   1   7  -3   18.63    0.78
   1   7  -3   20.55    0.82
   1   7  -3   19.07    0.87
  -1  -7   3   18.42    0.86
   0   7  -3    0.13    0.30
   0   7  -3    1.29    0.39
   0   7  -3    1.09    0.32
   0  -7   3    1.24    0.36
  -1   7  -3   35.60    1.21
  -1   7  -3   36.27    1.18
  -1   7  -3   36.66    1.32
  -2   7  -3   11.00    0.74
  -2   7  -3   10.64    0.87
   8   6  -3   -0.03    0.43
   7   6  -3   70.82    2.11
   6   6  -3   12.52    0.75
  -6  -6   3   12.60    0.61
   5   6  -3   98.67    2.59
   5   6  -3  100.10    2.41
   5   6  -3  101.05    2.60
   5   6  -3  100.43    2.59
  -5  -6   3  103.02    2.49
   4   6  -3    0.28    0.27
   4   6  -3   -0.25    0.24
   4   6  -3    0.19    0.20
   4   6  -3   -0.19    0.24
  -4  -6   3    0.41    0.24
   3   6  -3   84.17    2.10
   3   6  -3   84.01    2.18
   3   6  -3   84.47    2.16
   3   6  -3   87.42    2.15
  -3  -6   3   83.41    2.15
   2   6  -3    1.86    0.27
   2   6  -3    1.92    0.28
   2   6  -3    1.73    0.31
   2   6  -3    1.96    0.31
  -2  -6   3    1.77    0.30
   1   6  -3   60.89    1.70
   1   6  -3   63.01    1.60
   1   6  -3   63.11    1.65
   1   6  -3   61.84    1.64
  -1  -6   3   62.26    1.71
   0   6  -3   41.75    1.29
   0   6  -3   40.69    1.20
   0   6  -3   42.03    1.21
   0  -6   3   40.87    1.29
  -1   6  -3   37.42    1.15
  -1   6  -3   35.51    1.24
  -1   6  -3   37.80    1.13
   1  -6   3   38.52    1.24
   1  -6   3   36.90    1.33
  -2   6  -3    4.88    0.43
  -2   6  -3    4.21    0.42
  -2   6  -3    4.70    0.51
   2  -6   3    4.75    0.51
  -3   6  -3   35.48    1.30
  -3   6  -3   33.56    1.16
   9   5  -3   14.84    1.10
   8   5  -3    1.27    0.47
   7   5  -3   26.58    1.14
   6   5  -3    0.74    0.34
  -6  -5   3    1.01    0.23
   5   5  -3  144.53    3.59
   5   5  -3  151.83    3.63
  -5  -5   3  152.36    3.48
   4   5  -3   24.96    0.91
   4   5  -3   23.47    0.86
   4   5  -3   26.57    0.76
   4   5  -3   25.16    0.86
  -4  -5   3   24.26    0.79
   3   5  -3   32.73    0.97
   3   5  -3   30.66    1.00
   3   5  -3   31.42    0.98
   3   5  -3   31.84    0.91
  -3  -5   3   32.82    0.95
   2   5  -3   22.24    0.76
   2   5  -3   22.49    0.73
   2   5  -3   22.37    0.78
   2   5  -3   24.19    0.75
  -2  -5   3   23.67    0.78
   1   5  -3   73.95    1.82
   1   5  -3   71.72    1.88
   1   5  -3   75.58    1.84
   1   5  -3   72.04    1.79
  -1  -5   3   74.32    1.88
   0   5  -3   12.75    0.61
   0   5  -3   13.72    0.55
   0   5  -3   13.07    0.55
   0  -5   3   12.86    0.61
  -1   5  -3   26.22    0.85
  -1   5  -3   26.64    0.93
  -1   5  -3   27.00    0.84
   1  -5   3   25.88    0.92
  -2   5  -3   42.29    1.31
  -2   5  -3   42.38    1.19
  -2   5  -3   41.56    1.20
   2  -5   3   42.38    1.36
  -3   5  -3    0.85    0.28
  -3   5  -3    1.03    0.37
   3  -5   3    0.68    0.33
  -4   5  -3    5.38    0.57
   9   4  -3   -0.34    0.51
   8   4  -3    8.11    0.75
   7   4  -3   23.04    1.06
   6   4  -3   15.98    0.81
   5   4  -3    1.01    0.31
  -5  -4   3    0.65    0.17
   4   4  -3    2.64    0.31
   4   4  -3    2.27    0.20
   4   4  -3    2.48    0.30
  -4  -4   3    2.12    0.22
   3   4  -3   15.22    0.51
   3   4  -3   16.28    0.59
   3   4  -3   14.58    0.61
   3   4  -3   14.68    0.57
  -3  -4   3   14.98    0.53
   2   4  -3   22.78    0.74
   2   4  -3   23.04    0.68
   2   4  -3   23.11    0.71
   2   4  -3   22.57    0.69
  -2  -4   3   23.02    0.71
   1   4  -3   30.04    0.89
   1   4  -3   29.55    0.85
   1   4  -3   30.34    0.81
   1   4  -3   29.24    0.83
  -1  -4   3   30.70    0.88
   0   4  -3   34.83    1.01
   0   4  -3   36.12    0.96
   0   4  -3   34.79    0.95
   0  -4   3   35.56    1.02
  -1   4  -3    8.63    0.48
  -1   4  -3    8.91    0.42
  -1   4  -3    8.92    0.42
   1  -4   3    8.30    0.49
  -2   4  -3    7.55    0.52
  -2   4  -3    6.53    0.41
  -2   4  -3    8.12    0.41
   2  -4   3    7.61    0.53
   2  -4   3    6.97    0.50
  -3   4  -3   10.81    0.51
  -3   4  -3   10.71    0.61
  -3   4  -3   10.97    0.50
   3  -4   3   11.27    0.64
  -4   4  -3   29.08    1.07
   4  -4   3   28.28    1.03
  -5   4  -3    0.33    0.38
   5  -4   3    0.59    0.34
   9   3  -3    1.42    0.58
   8   3  -3    1.24    0.50
   7   3  -3    5.03    0.59
   6   3  -3   24.01    0.97
   5   3  -3    9.61    0.57
  -5  -3   3   10.26    0.37
   4   3  -3   12.07    0.55
  -4  -3   3   11.59    0.40
   3   3  -3   30.64    0.92
   3   3  -3   31.26    0.80
   3   3  -3   30.91    0.89
  -3  -3   3   31.02    0.81
   2   3  -3   31.35    0.88
   2   3  -3   31.50    0.81
   2   3  -3   30.18    0.84
   2   3  -3   29.76    0.83
  -2  -3   3   30.77    0.82
   1   3  -3    3.21    0.23
   1   3  -3    3.20    0.21
   1   3  -3    2.95    0.26
   1   3  -3    3.13    0.22
  -1  -3   3    3.48    0.26
   0   3  -3   27.02    0.78
   0   3  -3   26.52    0.74
   0   3  -3   27.30    0.73
   0  -3   3   27.15    0.79
  -1   3  -3    0.43    0.13
  -1   3  -3    0.29    0.16
  -1   3  -3    0.31    0.13
   1  -3   3    0.37    0.17
  -2   3  -3   11.46    0.43
  -2   3  -3   10.64    0.41
  -2   3  -3   11.81    0.51
   2  -3   3   10.08    0.54
   2  -3   3   11.35    0.53
  -3   3  -3   10.73    0.44
  -3   3  -3   11.11    0.44
  -3   3  -3   10.33    0.55
   3  -3   3   10.81    0.58
  -4   3  -3   58.49    1.64
  -4   3  -3   62.02    1.59
   4  -3   3   59.38    1.66
  -5   3  -3    1.47    0.37
   5  -3   3    1.69    0.35
  -6   3  -3    0.18    0.37
   6  -3   3   -0.07    0.31
   8   2  -3   17.25    1.12
  -8  -2   3   16.12    0.94
   7   2  -3    5.56    0.48
   7   2  -3    6.09    0.66
   6   2  -3    5.22    0.52
   6   2  -3    2.95    0.35
   5   2  -3   67.01    1.84
   4   2  -3  209.36    4.78
  -4  -2   3  203.75    4.55
   3   2  -3    8.04    0.39
   3   2  -3    8.21    0.39
  -3  -2   3    7.75    0.27
   2   2  -3  115.46    2.66
   2   2  -3  112.14    2.55
   2   2  -3  111.17    2.61
  -2  -2   3  114.13    2.56
   1   2  -3   90.95    2.08
   1   2  -3   90.59    2.03
   1   2  -3   87.27    2.04
   1   2  -3   89.15    2.03
  -1  -2   3   86.77    2.05
   0   2  -3  111.64    2.46
   0   2  -3  111.11    2.49
   0   2  -3  106.35    2.53
   0   2  -3  111.92    2.51
   0  -2   3  111.78    2.55
  -1   2  -3   28.59    0.72
  -1   2  -3   28.32    0.74
   1  -2   3   30.27    0.84
  -2   2  -3  176.31    3.97
  -2   2  -3  172.09    3.90
  -2   2  -3  175.73    3.88
   2  -2   3  182.43    4.05
   2  -2   3  166.73    3.97
  -3   2  -3    3.83    0.25
  -3   2  -3    4.24    0.34
  -3   2  -3    3.93    0.25
   3  -2   3    3.61    0.33
  -4   2  -3   45.05    1.15
  -4   2  -3   46.09    1.27
  -4   2  -3   47.37    1.17
   4  -2   3   46.03    1.32
  -5   2  -3   40.32    1.20
   5  -2   3   39.27    1.23
  -6   2  -3   25.73    0.95
   6  -2   3   25.12    0.98
  -7   2  -3    4.74    0.52
   7  -2   3    5.61    0.57
   8   1  -3    1.62    0.39
   8   1  -3    2.11    0.63
  -8  -1   3    1.83    0.47
   7   1  -3   47.86    1.46
   7   1  -3   49.93    1.80
  -7  -1   3   50.78    1.63
  -7  -1   3   50.94    1.45
   6   1  -3   46.30    1.59
   6   1  -3   45.81    1.33
  -6  -1   3   48.74    1.51
   5   1  -3   16.57    0.80
   5   1  -3   18.00    0.65
   4   1  -3   52.92    1.49
   4   1  -3   51.90    1.34
   3   1  -3  255.21    5.87
  -3  -1   3  263.67    5.66
   2   1  -3  474.46   10.78
   2   1  -3  486.94   10.92
   2   1  -3  521.72   10.79
  -2  -1   3  503.31   10.83
   1   1  -3   75.96    1.83
   1   1  -3   79.50    1.78
   1   1  -3   76.84    1.79
  -1  -1   3   77.17    1.76
   0   1  -3  343.14    7.61
   0   1  -3  353.89    7.59
   0   1  -3  339.22    7.57
   0  -1   3  353.95    7.65
  -1   1  -3   37.07    0.85
  -1   1  -3   35.93    0.90
  -1   1  -3   37.39    0.88
   1  -1   3   35.01    0.97
  -2   1  -3  239.02    5.32
  -2   1  -3  234.06    5.27
  -2   1  -3  234.63    5.25
   2  -1   3  242.71    5.39
   2  -1   3  247.78    5.30
  -3   1  -3    7.50    0.27
  -3   1  -3    7.54    0.27
  -3   1  -3    7.27    0.34
   3  -1   3    7.02    0.38
  -4   1  -3  248.85    5.45
  -4   1  -3  242.74    5.43
  -4   1  -3  242.80    5.53
   4  -1   3  250.45    5.60
  -5   1  -3  101.88    2.41
   5  -1   3   96.77    2.48
  -6   1  -3   46.95    1.30
   6  -1   3   42.70    1.35
  -7   1  -3    0.27    0.31
   7  -1   3   -0.01    0.31
   8   0  -3   24.34    1.13
   8   0  -3   29.27    1.53
  -8   0   3   25.82    1.25
   7   0  -3   20.26    0.84
   7   0  -3   19.62    1.21
  -7   0   3   20.76    0.87
  -7   0   3   19.35    0.93
   6   0  -3   30.99    1.35
   6   0  -3   31.01    1.01
  -6   0   3   33.77    1.06
  -6   0   3   31.33    1.15
   5   0  -3   84.90    2.45
   5   0  -3   86.33    2.14
  -5   0   3   86.40    2.16
  -5   0   3   90.83    2.31
   4   0  -3  264.90    5.76
   4   0  -3  254.11    6.01
  -4   0   3  251.21    5.90
   3   0  -3   26.12    0.90
   3   0  -3   26.60    0.72
   2   0  -3  184.86    3.99
   2   0  -3  175.60    4.13
  -2   0   3  177.32    3.92
   1   0  -3   25.65    0.74
   1   0  -3   25.82    0.61
  -1   0   3   25.43    0.65
   0   0  -3  194.73    4.27
   0   0  -3  186.08    4.27
   0   0  -3  195.63    4.28
   0   0   3  193.49    4.29
  -1   0  -3   18.67    0.50
  -1   0  -3   18.73    0.51
   1   0   3   19.24    0.55
   1   0   3   18.92    0.53
  -2   0  -3  402.63    8.79
  -2   0  -3  390.15    8.78
   2   0   3  410.80    8.85
   2   0   3  404.69    8.78
   2   0   3  402.86    8.78
  -3   0  -3    8.64    0.27
  -3   0  -3    8.42    0.31
  -3   0  -3    8.85    0.26
   3   0   3    8.53    0.37
   3   0   3    8.20    0.36
  -4   0  -3  105.46    2.32
  -4   0  -3  100.65    2.30
  -4   0  -3  101.12    2.37
   4   0   3  100.70    2.48
   4   0   3  103.77    2.46
  -5   0  -3    0.01    0.17
  -5   0  -3    0.15    0.14
   5   0   3    0.35    0.22
   5   0   3    0.08    0.28
  -6   0  -3   92.64    2.19
   6   0   3   87.75    2.29
   6   0   3   86.96    2.44
  -7   0  -3   15.51    0.83
   7   0   3   14.24    0.77
   8   0   3   12.38    0.80
  -7   1   3   21.49    0.99
  -7   1   3   22.71    0.97
   6  -1  -3   17.92    0.74
  -6   1   3   19.83    0.88
  -6   1   3   19.77    0.82
   5  -1  -3    6.43    0.42
   5  -1  -3    5.99    0.63
  -5   1   3    6.30    0.52
  -5   1   3    6.15    0.48
   4  -1  -3    8.94    0.70
   4  -1  -3   10.06    0.42
  -4   1   3    9.08    0.54
  -4   1   3    9.54    0.49
   3  -1  -3   66.42    1.54
   3  -1  -3   64.22    1.81
  -3   1   3   63.96    1.66
  -3   1   3   62.55    1.46
   2  -1  -3  260.42    6.14
   2  -1  -3  277.37    5.92
  -2   1   3  268.67    6.04
  -2   1   3  270.02    5.90
   1  -1  -3    8.05    0.23
   1  -1  -3    8.29    0.22
  -1   1   3    8.37    0.27
   0  -1  -3   40.82    0.94
   0   1   3   40.40    0.97
   0   1   3   40.19    0.95
  -1  -1  -3  206.55    4.47
  -1  -1  -3  202.99    4.44
   1   1   3  197.07    4.42
   1   1   3  207.70    4.44
   1   1   3  195.66    4.44
  -2  -1  -3   72.15    1.58
  -2  -1  -3   66.18    1.65
   2   1   3   72.70    1.61
   2   1   3   69.76    1.57
   2   1   3   71.93    1.59
   2   1   3   71.06    1.64
  -3  -1  -3    5.79    0.20
  -3  -1  -3    5.66    0.24
   3   1   3    5.77    0.28
   3   1   3    5.61    0.25
  -4  -1  -3   72.90    1.66
  -4  -1  -3   69.55    1.66
   4   1   3   73.85    1.77
   4   1   3   71.91    1.77
  -5  -1  -3   26.67    0.75
  -5  -1  -3   25.47    0.69
  -5  -1  -3   26.03    0.72
   5   1   3   26.75    0.85
   5   1   3   25.86    0.87
  -6  -1  -3    1.60    0.22
   6   1   3    1.16    0.29
   6   1   3    0.78    0.31
   7   1   3    4.94    0.58
   7   1   3    4.31    0.45
   8   1   3   10.88    0.75
  -7   2   3    3.63    0.52
  -6   2   3    1.05    0.35
  -6   2   3    0.61    0.35
   5  -2  -3   11.98    0.55
  -5   2   3   12.55    0.66
  -5   2   3   12.49    0.68
   4  -2  -3    8.14    0.40
  -4   2   3    8.50    0.51
  -4   2   3    8.03    0.52
   3  -2  -3    7.09    0.33
  -3   2   3    6.92    0.27
  -3   2   3    7.35    0.42
  -3   2   3    7.55    0.44
   2  -2  -3   14.57    0.42
  -2   2   3   14.85    0.54
  -2   2   3   14.34    0.51
  -2   2   3   14.31    0.41
   1  -2  -3    0.13    0.07
   1  -2  -3    0.26    0.07
  -1   2   3    0.03    0.12
  -1   2   3    0.15    0.08
  -1   2   3    0.44    0.13
   0  -2  -3   61.64    1.43
   0   2   3   61.37    1.47
   0   2   3   60.72    1.44
   0   2   3   64.21    1.43
  -1  -2  -3   57.17    1.34
   1   2   3   58.99    1.31
   1   2   3   57.01    1.33
   1   2   3   57.44    1.29
   1   2   3   56.63    1.32
  -2  -2  -3   13.48    0.41
   2   2   3   14.26    0.39
   2   2   3   13.87    0.38
   2   2   3   14.23    0.40
  -3  -2  -3    1.17    0.14
   3   2   3    1.31    0.16
   3   2   3    1.17    0.10
   3   2   3    1.41    0.13
   3   2   3    1.04    0.15
  -4  -2  -3   24.14    0.67
  -4  -2  -3   24.37    0.58
   4   2   3   23.42    0.72
   4   2   3   23.43    0.71
  -5  -2  -3    2.90    0.22
  -5  -2  -3    2.72    0.19
   5   2   3    2.88    0.29
   5   2   3    2.70    0.30
  -6  -2  -3   12.56    0.47
   6   2   3   13.22    0.64
   6   2   3   12.49    0.60
   7   2   3    1.95    0.40
   7   2   3    1.90    0.35
   8   2   3    4.21    0.58
   8   2   3    3.04    0.44
   9   2   3    7.91    0.69
  -6   3   3    4.66    0.54
  -6   3   3    3.66    0.48
  -5   3   3    0.69    0.32
  -5   3   3    0.14    0.30
  -4   3   3   23.65    0.86
  -4   3   3   23.34    0.88
   3  -3  -3   -0.10    0.14
  -3   3   3    0.15    0.22
  -3   3   3    0.33    0.23
  -3   3   3   -0.17    0.12
   2  -3  -3    2.49    0.20
  -2   3   3    1.71    0.23
  -2   3   3    2.42    0.18
  -2   3   3    2.83    0.28
   1  -3  -3    2.13    0.15
   1  -3  -3    2.29    0.18
  -1   3   3    2.06    0.17
  -1   3   3    1.58    0.19
  -1   3   3    2.58    0.24
   0  -3  -3  131.74    2.92
   0   3   3  125.27    2.96
   0   3   3  132.18    2.95
   0   3   3  129.16    2.92
  -1  -3  -3   27.63    0.72
   1   3   3   26.93    0.70
   1   3   3   27.80    0.73
   1   3   3   27.88    0.71
  -2  -3  -3   17.00    0.51
   2   3   3   17.92    0.49
   2   3   3   17.84    0.44
   2   3   3   17.76    0.49
  -3  -3  -3    7.38    0.30
   3   3   3    7.58    0.26
   3   3   3    7.65    0.30
   3   3   3    7.20    0.31
  -4  -3  -3   59.89    1.46
   4   3   3   60.74    1.51
   4   3   3   61.40    1.38
   4   3   3   60.98    1.52
   4   3   3   60.01    1.47
  -5  -3  -3   49.64    1.25
   5   3   3   50.87    1.35
   5   3   3   51.02    1.37
   6   3   3   82.02    2.09
   6   3   3   81.76    2.12
   7   3   3   58.59    1.70
   7   3   3   56.85    1.64
   8   3   3    0.15    0.32
   8   3   3   -0.02    0.35
   9   3   3    4.54    0.76
   9   3   3    4.51    0.55
  -5   4   3    0.55    0.39
  -5   4   3    0.30    0.33
  -4   4   3   25.29    1.00
  -4   4   3   25.76    0.95
  -3   4   3    0.89    0.27
  -3   4   3    0.52    0.28
  -2   4   3  206.12    4.55
  -2   4   3  199.66    4.67
  -2   4   3  200.63    4.65
   1  -4  -3   92.86    2.09
   1  -4  -3   92.64    2.14
  -1   4   3   89.93    2.22
  -1   4   3   91.16    2.14
  -1   4   3   90.50    2.22
   0  -4  -3  246.45    5.50
   0   4   3  250.54    5.54
   0   4   3  244.14    5.55
   0   4   3  245.70    5.49
  -1  -4  -3   10.21    0.40
   1   4   3    9.89    0.39
   1   4   3   10.87    0.42
   1   4   3   11.21    0.39
  -2  -4  -3  202.17    4.46
   2   4   3  199.05    4.40
   2   4   3  195.50    4.43
   2   4   3  197.22    4.46
  -3  -4  -3   77.16    1.87
   3   4   3   79.65    1.88
   3   4   3   79.49    1.80
   3   4   3   79.47    1.84
  -4  -4  -3   55.59    1.41
   4   4   3   58.36    1.43
   4   4   3   58.33    1.48
   4   4   3   55.33    1.45
   4   4   3   59.24    1.36
  -5  -4  -3  121.63    2.84
   5   4   3  122.02    2.89
   5   4   3  121.54    2.95
   5   4   3  124.84    2.93
   5   4   3  125.47    2.74
  -6  -4  -3   18.64    0.61
   6   4   3   19.54    0.75
   6   4   3   19.64    0.77
   7   4   3    8.77    0.61
   7   4   3    9.61    0.63
   8   4   3   12.30    0.75
   8   4   3   12.62    0.80
   9   4   3   34.99    1.44
   9   4   3   35.67    1.33
  -4   5   3   25.57    1.08
  -4   5   3   23.43    0.98
  -3   5   3   16.29    0.76
  -3   5   3   16.03    0.79
  -2   5   3   51.36    1.33
  -2   5   3   49.41    1.45
  -2   5   3   50.33    1.43
   1  -5  -3    5.68    0.36
  -1   5   3    5.61    0.38
  -1   5   3    6.34    0.46
  -1   5   3    4.94    0.40
   0  -5  -3  135.21    2.94
   0  -5  -3  125.19    2.97
   0   5   3  123.08    3.01
   0   5   3  122.94    3.02
   0   5   3  131.36    2.97
  -1  -5  -3   43.72    1.15
   1   5   3   43.25    1.17
   1   5   3   42.60    1.14
   1   5   3   43.20    1.13
   2   5   3   44.88    1.19
   2   5   3   45.90    1.14
   2   5   3   42.87    1.14
  -3  -5  -3   39.08    1.06
   3   5   3   39.47    1.02
   3   5   3   37.98    1.06
   3   5   3   39.54    0.99
  -4  -5  -3   52.63    1.34
   4   5   3   50.86    1.26
   4   5   3   53.00    1.42
   4   5   3   54.25    1.29
   4   5   3   49.12    1.35
  -5  -5  -3   69.12    1.68
   5   5   3   65.67    1.78
   5   5   3   65.46    1.71
   5   5   3   68.58    1.60
  -6  -5  -3   28.47    0.85
   6   5   3   29.06    1.00
   6   5   3   28.14    0.93
   6   5   3   28.48    0.97
   7   5   3  134.43    3.45
   7   5   3  144.38    3.43
   8   5   3    1.23    0.41
   8   5   3    0.91    0.37
   9   5   3   14.83    0.91
   9   5   3   16.27    0.98
  -3   6   3    0.39    0.39
  -3   6   3    0.54    0.36
  -2   6   3   30.37    1.05
  -2   6   3   27.62    0.92
  -2   6   3   26.75    1.05
  -1   6   3   14.52    0.62
  -1   6   3   13.97    0.70
  -1   6   3   14.43    0.71
   0  -6  -3    0.48    0.22
   0   6   3    0.88    0.23
   0   6   3    0.50    0.27
   0   6   3    0.77    0.27
  -1  -6  -3   70.74    1.83
   1   6   3   70.66    1.83
   1   6   3   74.22    1.81
   1   6   3   73.03    1.86
  -2  -6  -3   30.99    0.96
   2   6   3   30.41    0.97
   2   6   3   31.63    0.92
   2   6   3   32.69    0.93
  -3  -6  -3  116.04    2.80
   3   6   3  117.83    2.76
   3   6   3  114.70    2.81
   3   6   3  121.04    2.75
  -4  -6  -3   32.96    0.98
   4   6   3   31.95    0.91
   4   6   3   33.32    1.05
   4   6   3   31.67    0.99
  -5  -6  -3   23.97    0.80
   5   6   3   22.96    0.83
   5   6   3   24.56    0.72
   5   6   3   25.04    0.89
  -6  -6  -3    0.51    0.22
   6   6   3    0.58    0.27
   6   6   3    0.32    0.29
  -7  -6  -3   33.26    1.01
   7   6   3   32.78    1.20
   8   6   3    4.81    0.56
   9   6   3   26.99    1.25
  -2   7   3    0.34    0.30
  -2   7   3    0.11    0.39
  -2   7   3   -0.29    0.35
  -1   7   3    0.52    0.29
  -1   7   3    0.41    0.35
  -1   7   3    0.64    0.34
   0  -7  -3    9.50    0.57
   0   7   3    9.32    0.63
   0   7   3    8.49    0.56
   0   7   3    8.30    0.64
  -1  -7  -3    9.03    0.56
   1   7   3    8.56    0.61
   1   7   3    9.94    0.58
   1   7   3    9.64    0.56
  -2  -7  -3   -0.07    0.23
   2   7   3    0.10    0.22
   2   7   3    0.02    0.26
   2   7   3    0.14    0.23
  -3  -7  -3    1.23    0.27
   3   7   3    1.06    0.25
   3   7   3    1.29    0.25
   3   7   3    1.16    0.29
  -4  -7  -3    0.39    0.24
   4   7   3    0.52    0.21
   4   7   3    0.52    0.27
   4   7   3    0.50    0.28
  -5  -7  -3    4.30    0.39
   5   7   3    5.13    0.45
   5   7   3    4.99    0.38
   5   7   3    4.59    0.45
  -6  -7  -3    0.55    0.27
   6   7   3    0.15    0.19
   6   7   3   -0.11    0.30
   6   7   3    0.05    0.28
  -7  -7  -3    0.45    0.28
   7   7   3    0.11    0.31
   7   7   3    0.43    0.36
   8   7   3   12.00    0.87
   9   7   3    2.28    0.53
  -1   8   3   -0.06    0.39
  -1   8   3    0.43    0.39
  -1   8   3    0.26    0.34
   0   8   3    1.71    0.42
   0   8   3    2.48    0.39
   0   8   3    2.63    0.46
  -1  -8  -3    8.41    0.63
   1   8   3    7.86    0.64
   1   8   3    9.24    0.70
   1   8   3    7.63    0.62
  -2  -8  -3    3.16    0.40
   2   8   3    3.59    0.45
   2   8   3    3.17    0.40
   2   8   3    3.18    0.38
  -3  -8  -3   14.16    0.73
   3   8   3   14.98    0.69
   3   8   3   12.88    0.71
  -4  -8  -3    8.59    0.61
   4   8   3    7.41    0.64
   4   8   3    7.91    0.62
   4   8   3    8.56    0.54
  -5  -8  -3    2.98    0.39
   5   8   3    2.66    0.42
   5   8   3    2.94    0.32
   5   8   3    3.12    0.43
  -6  -8  -3    1.24    0.33
   6   8   3    1.06    0.39
   6   8   3    1.09    0.26
   6   8   3    0.89    0.36
  -7  -8  -3    8.06    0.63
   7   8   3    8.71    0.74
   7   8   3    8.91    0.74
  -8  -8  -3    1.33    0.36
   8   8   3    1.52    0.49
   1   9   3    5.87    0.60
   1   9   3    5.32    0.59
   1   9   3    6.25    0.55
  -2  -9  -3    3.21    0.46
   2   9   3    3.54    0.45
   2   9   3    3.53    0.51
  -3  -9  -3    9.86    0.73
   3   9   3   10.84    0.69
   3   9   3   10.27    0.76
  -4  -9  -3    3.73    0.48
   4   9   3    3.42    0.41
   4   9   3    3.45    0.47
   4   9   3    4.38    0.55
  -5  -9  -3    9.13    0.73
   5   9   3    9.17    0.74
   5   9   3    9.27    0.72
   5   9   3    9.44    0.61
  -6  -9  -3    0.11    0.34
   6   9   3    0.01    0.35
   6   9   3   -0.11    0.37
   6   9   3   -0.06    0.26
  -7  -9  -3   18.04    0.92
   7   9   3   18.25    1.04
   7   9   3   16.89    0.95
   7   8  -4    0.45    0.48
  -7  -8   4    0.43    0.38
   6   8  -4    9.16    0.80
  -6  -8   4    8.41    0.64
   5   8  -4    1.63    0.43
   5   8  -4    1.19    0.32
   5   8  -4    1.08    0.42
  -5  -8   4    1.95    0.43
   4   8  -4    0.05    0.33
   4   8  -4    0.05    0.36
   4   8  -4   -0.15    0.36
   4   8  -4    0.03    0.28
  -4  -8   4    0.28    0.35
   3   8  -4   -0.10    0.34
   3   8  -4    0.39    0.31
   3   8  -4    0.68    0.38
  -3  -8   4    0.48    0.37
   2   8  -4    0.40    0.39
   2   8  -4    0.72    0.37
   2   8  -4    0.21    0.32
  -2  -8   4    0.47    0.38
   1   8  -4    4.23    0.50
   1   8  -4    3.51    0.53
   1   8  -4    3.95    0.48
  -1  -8   4    4.94    0.58
   0   8  -4    4.38    0.51
   0   8  -4    4.08    0.51
   0   8  -4    4.55    0.60
   0  -8   4    3.68    0.56
   8   7  -4    0.93    0.52
   7   7  -4    2.09    0.51
  -7  -7   4    1.86    0.40
   6   7  -4    1.56    0.43
  -6  -7   4    2.11    0.38
   5   7  -4   12.99    0.61
   5   7  -4   13.40    0.78
   5   7  -4   13.95    0.81
  -5  -7   4   13.18    0.73
   4   7  -4    1.34    0.36
   4   7  -4    1.57    0.39
   4   7  -4    1.43    0.36
   4   7  -4    1.47    0.29
  -4  -7   4    1.47    0.35
   3   7  -4    0.02    0.26
   3   7  -4    0.29    0.25
   3   7  -4    0.02    0.30
   3   7  -4   -0.13    0.30
  -3  -7   4    0.26    0.29
   2   7  -4   16.47    0.77
   2   7  -4   16.35    0.99
   2   7  -4   15.73    0.72
   2   7  -4   15.86    0.81
  -2  -7   4   16.22    0.81
   1   7  -4    3.98    0.41
   1   7  -4    3.52    0.47
   1   7  -4    3.50    0.41
  -1  -7   4    3.01    0.44
   0   7  -4    0.37    0.37
   0   7  -4   -0.05    0.30
   0   7  -4    0.69    0.32
   0  -7   4    0.19    0.33
  -1   7  -4    0.07    0.31
  -1   7  -4   -0.16    0.31
  -1   7  -4    0.14    0.38
   1  -7   4   -0.15    0.48
  -2   7  -4    3.93    0.47
  -2   7  -4    4.24    0.60
   8   6  -4   19.74    1.15
   7   6  -4    8.08    0.72
   6   6  -4   25.58    1.08
  -6  -6   4   25.99    0.91
   5   6  -4    1.62    0.37
   5   6  -4    1.63    0.37
  -5  -6   4    1.64    0.30
   4   6  -4   17.33    0.75
   4   6  -4   16.53    0.81
   4   6  -4   17.87    0.78
   4   6  -4   16.08    0.64
  -4  -6   4   17.27    0.73
   3   6  -4   18.22    0.73
   3   6  -4   16.92    0.77
   3   6  -4   16.01    0.65
   3   6  -4   17.43    0.69
  -3  -6   4   15.86    0.71
   2   6  -4   15.93    0.74
   2   6  -4   16.54    0.64
   2   6  -4   16.03    0.66
   2   6  -4   16.50    0.69
  -2  -6   4   15.40    0.72
   1   6  -4   29.80    0.97
   1   6  -4   30.50    0.91
   1   6  -4   30.09    1.05
   1   6  -4   30.48    0.97
  -1  -6   4   29.20    1.04
   0   6  -4   43.05    1.23
   0   6  -4   40.52    1.30
   0   6  -4   42.88    1.25
   0  -6   4   41.14    1.32
  -1   6  -4   21.00    0.93
  -1   6  -4   22.15    0.85
  -1   6  -4   22.57    0.82
   1  -6   4   21.98    0.94
   1  -6   4   22.59    1.08
  -2   6  -4    1.66    0.42
  -2   6  -4    1.61    0.34
   2  -6   4    2.44    0.47
  -3   6  -4   19.22    1.02
  -3   6  -4   19.36    0.88
   8   5  -4   32.93    1.39
   7   5  -4   13.42    0.89
   6   5  -4   52.73    1.66
  -6  -5   4   55.15    1.44
   5   5  -4   50.15    1.50
   5   5  -4   51.98    1.50
  -5  -5   4   49.35    1.35
   4   5  -4   19.36    0.66
   4   5  -4   19.85    0.83
   4   5  -4   20.49    0.78
   4   5  -4   19.90    0.77
  -4  -5   4   19.73    0.71
   3   5  -4   59.38    1.67
   3   5  -4   63.42    1.64
   3   5  -4   62.54    1.62
   3   5  -4   61.44    1.56
  -3  -5   4   59.98    1.60
   2   5  -4   34.45    1.04
   2   5  -4   36.14    1.02
   2   5  -4   36.72    1.02
   2   5  -4   34.57    1.09
  -2  -5   4   36.53    1.08
   1   5  -4  200.36    4.69
   1   5  -4  201.84    4.62
   1   5  -4  202.03    4.57
   1   5  -4  199.58    4.62
  -1  -5   4  207.20    4.69
   0   5  -4    0.30    0.17
   0   5  -4    0.24    0.21
   0   5  -4    0.19    0.21
   0   5  -4    0.52    0.25
   0  -5   4    0.55    0.25
  -1   5  -4   44.36    1.21
  -1   5  -4   41.81    1.30
  -1   5  -4   44.59    1.23
   1  -5   4   44.01    1.33
  -2   5  -4   13.17    0.72
  -2   5  -4   13.13    0.61
  -2   5  -4   12.92    0.58
   2  -5   4   12.49    0.75
  -3   5  -4   44.16    1.29
  -3   5  -4   43.18    1.40
   3  -5   4   42.73    1.43
  -4   5  -4    1.12    0.41
   4  -5   4    1.08    0.41
   8   4  -4   23.12    1.22
   7   4  -4   34.51    1.31
   6   4  -4    1.20    0.36
   5   4  -4   80.83    2.12
  -5  -4   4   78.35    1.92
   4   4  -4  109.61    2.50
   4   4  -4  105.83    2.66
   4   4  -4  106.16    2.64
  -4  -4   4  107.17    2.53
   3   4  -4  166.04    3.89
   3   4  -4  168.68    3.81
   3   4  -4  166.55    3.88
   3   4  -4  167.14    3.96
  -3  -4   4  169.40    3.84
   2   4  -4   48.89    1.36
   2   4  -4   49.60    1.32
   2   4  -4   50.29    1.29
   2   4  -4   49.53    1.29
  -2  -4   4   53.27    1.33
   1   4  -4   47.68    1.18
   1   4  -4   46.43    1.27
   1   4  -4   44.99    1.20
   1   4  -4   46.07    1.21
   0   4  -4    1.05    0.23
   0   4  -4    1.28    0.20
   0   4  -4    1.45    0.17
   0   4  -4    1.39    0.21
   0  -4   4    1.14    0.24
  -1   4  -4  216.27    4.82
  -1   4  -4  214.54    4.79
  -1   4  -4  205.92    4.89
   1  -4   4  213.85    4.93
  -2   4  -4    1.52    0.23
  -2   4  -4    1.23    0.22
  -2   4  -4    1.37    0.29
   2  -4   4    1.40    0.34
   2  -4   4    1.38    0.30
  -3   4  -4   68.22    1.90
  -3   4  -4   72.90    1.80
  -3   4  -4   72.29    1.90
   3  -4   4   69.89    1.97
  -4   4  -4    2.27    0.40
   4  -4   4    3.07    0.45
  -5   4  -4   16.43    0.88
   5  -4   4   15.10    0.84
   8   3  -4   10.68    0.96
   7   3  -4    8.74    0.79
   6   3  -4   17.57    0.86
   5   3  -4   33.10    1.12
  -5  -3   4   33.02    0.87
   4   3  -4   10.06    0.52
   4   3  -4   10.67    0.54
  -4  -3   4   10.13    0.39
   3   3  -4   46.55    1.27
   3   3  -4   49.28    1.18
   3   3  -4   46.48    1.31
  -3  -3   4   46.54    1.18
   2   3  -4    1.84    0.21
   2   3  -4    2.14    0.19
   2   3  -4    2.32    0.22
   2   3  -4    2.52    0.27
  -2  -3   4    2.24    0.21
   1   3  -4  143.95    3.29
   1   3  -4  141.13    3.20
   1   3  -4  138.75    3.23
   1   3  -4  145.50    3.23
  -1  -3   4  139.66    3.26
   0   3  -4    7.14    0.32
   0   3  -4    7.26    0.27
   0   3  -4    7.03    0.33
   0  -3   4    7.21    0.39
  -1   3  -4   14.48    0.55
  -1   3  -4   14.48    0.46
  -1   3  -4   13.54    0.49
   1  -3   4   13.90    0.58
  -2   3  -4    0.38    0.16
  -2   3  -4    0.37    0.20
  -2   3  -4    0.55    0.16
   2  -3   4    0.52    0.23
   2  -3   4    0.37    0.24
  -3   3  -4   44.06    1.27
  -3   3  -4   45.04    1.17
  -3   3  -4   43.69    1.13
   3  -3   4   45.00    1.35
  -4   3  -4   14.23    0.57
  -4   3  -4   14.55    0.67
   4  -3   4   14.00    0.72
  -5   3  -4   10.97    0.69
   5  -3   4   11.21    0.69
  -6   3  -4    1.38    0.41
   6  -3   4    1.52    0.41
   8   2  -4    1.35    0.55
  -8  -2   4    0.33    0.42
   7   2  -4    0.72    0.44
   6   2  -4    0.60    0.35
   5   2  -4   13.67    0.71
   4   2  -4    5.53    0.45
  -4  -2   4    5.76    0.25
   3   2  -4    8.48    0.27
   3   2  -4    9.30    0.44
   3   2  -4    8.51    0.43
  -3  -2   4    8.89    0.32
   2   2  -4   50.86    1.32
   2   2  -4   48.74    1.26
   2   2  -4   50.39    1.21
  -2  -2   4   48.63    1.21
   1   2  -4    3.01    0.26
   1   2  -4    2.82    0.21
   1   2  -4    2.67    0.20
   1   2  -4    2.41    0.19
  -1  -2   4    2.70    0.22
   0   2  -4    1.80    0.17
   0   2  -4    1.52    0.19
   0   2  -4    1.77    0.14
   0  -2   4    1.99    0.21
  -1   2  -4    0.99    0.12
  -1   2  -4    0.83    0.13
  -1   2  -4    1.09    0.09
  -1   2  -4    1.33    0.17
   1  -2   4    1.67    0.23
  -2   2  -4   89.47    2.06
  -2   2  -4   92.39    2.11
  -2   2  -4   89.57    2.16
   2  -2   4   91.88    2.27
   2  -2   4   89.99    2.20
  -3   2  -4    0.77    0.21
  -3   2  -4    0.82    0.16
  -3   2  -4    0.92    0.14
   3  -2   4    1.22    0.15
   3  -2   4    1.04    0.26
  -4   2  -4    5.96    0.34
  -4   2  -4    5.42    0.44
   4  -2   4    5.51    0.45
  -5   2  -4   12.27    0.63
   5  -2   4   11.41    0.66
  -6   2  -4    0.20    0.31
   6  -2   4    0.31    0.31
  -7   2  -4    1.88    0.43
   7  -2   4    1.56    0.43
   8   1  -4    1.45    0.60
  -8  -1   4    2.00    0.51
   7   1  -4   15.60    1.05
   7   1  -4   14.73    0.73
  -7  -1   4   15.64    0.76
  -7  -1   4   15.68    0.90
   6   1  -4    1.63    0.30
   6   1  -4    2.66    0.50
  -6  -1   4    1.68    0.41
   5   1  -4   44.04    1.23
   5   1  -4   44.80    1.45
   4   1  -4   14.15    0.67
  -4  -1   4   14.19    0.38
   3   1  -4  154.99    3.62
  -3  -1   4  152.05    3.40
   2   1  -4    1.67    0.20
   2   1  -4    1.44    0.12
   2   1  -4    1.44    0.18
  -2  -1   4    1.43    0.12
   1   1  -4  124.01    2.84
   1   1  -4  121.99    2.83
   1   1  -4  126.17    2.90
  -1  -1   4  127.52    2.83
   0   1  -4    0.55    0.13
   0   1  -4    0.70    0.09
   0   1  -4    0.60    0.11
   0  -1   4    0.67    0.14
  -1   1  -4  296.76    6.62
  -1   1  -4  308.44    6.55
  -1   1  -4  303.14    6.61
   1  -1   4  291.57    6.70
  -2   1  -4   95.83    2.10
  -2   1  -4   92.96    2.16
  -2   1  -4   91.00    2.19
   2  -1   4   94.58    2.28
   2  -1   4   97.94    2.22
  -3   1  -4   62.36    1.49
  -3   1  -4   61.48    1.54
  -3   1  -4   63.31    1.44
   3  -1   4   63.06    1.63
   3  -1   4   65.06    1.43
  -4   1  -4   12.85    0.40
  -4   1  -4   13.20    0.44
  -4   1  -4   12.94    0.51
   4  -1   4   12.97    0.58
  -5   1  -4   45.29    1.24
   5  -1   4   45.10    1.34
  -6   1  -4    7.05    0.50
   6  -1   4    5.29    0.48
  -7   1  -4    9.21    0.63
   7  -1   4    8.07    0.67
   8   0  -4    2.97    0.70
  -8   0   4    2.83    0.49
   7   0  -4   46.08    1.41
   7   0  -4   46.98    1.85
  -7   0   4   49.97    1.49
  -7   0   4   47.91    1.60
   6   0  -4    0.28    0.42
   6   0  -4    0.01    0.25
  -6   0   4    0.44    0.28
  -6   0   4    0.32    0.34
   5   0  -4  122.14    2.88
   5   0  -4  122.21    3.24
  -5   0   4  118.65    3.06
   4   0  -4   24.14    0.99
   4   0  -4   24.61    0.73
  -4   0   4   23.08    0.90
   3   0  -4  125.60    3.07
   3   0  -4  126.62    2.85
  -3   0   4  121.06    2.76
   2   0  -4   58.44    1.53
  -2   0   4   57.28    1.34
   1   0  -4  529.38   11.56
   1   0  -4  517.57   11.60
  -1   0   4  532.30   11.53
   0   0  -4   46.26    1.16
   0   0  -4   46.18    1.15
   0   0  -4   49.91    1.16
   0   0   4   45.55    1.18
  -1   0  -4  232.25    5.09
  -1   0  -4  227.46    5.11
   1   0   4  231.47    5.14
  -2   0  -4   97.06    2.23
  -2   0  -4   97.16    2.22
   2   0   4   99.25    2.17
   2   0   4   97.87    2.29
   2   0   4   97.32    2.21
  -3   0  -4  273.24    6.09
  -3   0  -4  278.55    6.00
  -3   0  -4  262.90    6.07
   3   0   4  279.14    6.10
   3   0   4  281.26    6.00
   3   0   4  278.35    6.18
  -4   0  -4   80.33    1.89
  -4   0  -4   82.41    1.93
  -4   0  -4   85.36    1.85
   4   0   4   79.44    2.00
   4   0   4   81.03    2.03
  -5   0  -4  148.33    3.37
   5   0   4  141.07    3.48
   5   0   4  150.57    3.54
  -6   0  -4    0.88    0.24
   6   0   4    0.57    0.28
   7   0   4   26.75    1.02
   8   0   4   18.36    0.94
  -7   1   4   11.94    0.82
  -7   1   4   12.79    0.79
   6  -1  -4    1.00    0.28
  -6   1   4    0.66    0.31
  -6   1   4    0.85    0.36
   5  -1  -4   64.11    1.65
   5  -1  -4   62.77    2.04
  -5   1   4   64.87    1.74
  -5   1   4   66.60    1.83
   4  -1  -4    0.50    0.35
   4  -1  -4    0.54    0.17
  -4   1   4    0.15    0.25
   3  -1  -4  233.35    5.13
   3  -1  -4  237.21    5.45
  -3   1   4  224.06    5.09
  -3   1   4  227.31    5.29
   2  -1  -4   62.22    1.68
   2  -1  -4   63.32    1.43
  -2   1   4   60.71    1.57
  -2   1   4   58.75    1.44
   1  -1  -4  258.47    5.60
  -1   1   4  257.97    5.66
  -1   1   4  251.37    5.72
   0  -1  -4   59.04    1.34
   0   1   4   57.91    1.37
   0   1   4   56.13    1.36
  -1  -1  -4  945.23   21.61
  -1  -1  -4  929.01   21.39
   1   1   4  988.14   21.38
   1   1   4  995.73   21.47
   1   1   4 1000.00   21.58
  -2  -1  -4  307.29    7.03
  -2  -1  -4  319.92    6.95
   2   1   4  314.40    6.91
   2   1   4  320.08    7.01
   2   1   4  328.04    6.96
  -3  -1  -4   67.14    1.61
  -3  -1  -4   66.92    1.53
   3   1   4   67.41    1.57
   3   1   4   66.77    1.50
   3   1   4   67.96    1.63
  -4  -1  -4   84.10    1.94
  -4  -1  -4   88.42    1.93
  -4  -1  -4   83.30    1.98
   4   1   4   81.76    2.06
   4   1   4   85.62    2.02
  -5  -1  -4   56.10    1.34
  -5  -1  -4   51.95    1.35
  -5  -1  -4   55.73    1.32
   5   1   4   56.92    1.49
   5   1   4   54.04    1.48
  -6  -1  -4  174.62    3.99
   6   1   4  174.35    4.16
   6   1   4  178.89    4.23
   7   1   4   13.01    0.72
   8   1   4   47.53    1.55
  -7   2   4   24.63    1.10
  -6   2   4   -0.01    0.35
  -6   2   4    0.61    0.37
  -5   2   4   60.64    1.71
  -5   2   4   61.44    1.75
   4  -2  -4   39.35    1.08
  -4   2   4   40.58    1.21
  -4   2   4   42.42    1.26
   3  -2  -4   79.00    1.79
  -3   2   4   73.54    1.89
  -3   2   4   73.73    1.75
  -3   2   4   76.21    1.94
   2  -2  -4    0.43    0.10
  -2   2   4    0.30    0.15
  -2   2   4    0.55    0.19
  -2   2   4    0.51    0.11
   1  -2  -4  195.31    4.44
   1  -2  -4  211.81    4.41
  -1   2   4  199.56    4.47
  -1   2   4  200.34    4.56
   0  -2  -4   89.21    2.03
   0   2   4   90.69    2.08
   0   2   4   87.92    2.03
  -1  -2  -4   10.43    0.34
   1   2   4   10.61    0.33
   1   2   4   10.41    0.28
   1   2   4   10.07    0.33
  -2  -2  -4  286.07    6.13
   2   2   4  274.01    6.07
   2   2   4  271.19    6.09
   2   2   4  277.11    6.08
  -3  -2  -4   94.09    2.17
   3   2   4   91.90    2.15
   3   2   4   92.95    2.09
   3   2   4   91.56    2.16
   3   2   4   93.75    2.08
  -4  -2  -4   99.43    2.38
  -4  -2  -4  105.05    2.27
   4   2   4   98.99    2.41
   4   2   4  105.35    2.40
  -5  -2  -4   23.86    0.73
  -5  -2  -4   24.78    0.63
   5   2   4   26.40    0.81
   5   2   4   23.03    0.78
   6   2   4   66.19    1.77
   6   2   4   66.28    1.78
   7   2   4   12.67    0.73
   7   2   4   13.92    0.70
   8   2   4   31.72    1.17
   9   2   4    2.46    0.48
  -6   3   4    3.83    0.53
  -6   3   4    3.84    0.50
  -5   3   4    8.17    0.66
  -5   3   4    9.00    0.65
  -4   3   4    0.19    0.27
  -4   3   4    0.35    0.29
   3  -3  -4    5.69    0.35
  -3   3   4    5.92    0.48
  -3   3   4    5.19    0.30
  -3   3   4    5.56    0.43
   2  -3  -4   12.13    0.38
  -2   3   4   12.91    0.56
  -2   3   4   12.42    0.42
   1  -3  -4   11.22    0.30
   1  -3  -4   10.58    0.35
  -1   3   4   11.17    0.44
  -1   3   4   10.38    0.37
  -1   3   4   10.32    0.45
   0  -3  -4    3.92    0.22
   0   3   4    4.27    0.23
   0   3   4    3.76    0.24
   0   3   4    3.58    0.27
  -1  -3  -4   37.55    0.95
   1   3   4   37.87    0.93
   1   3   4   37.95    0.94
   1   3   4   38.81    0.97
  -2  -3  -4   38.84    0.99
   2   3   4   40.23    0.98
   2   3   4   39.33    0.96
   2   3   4   39.92    0.91
   2   3   4   38.40    0.95
  -3  -3  -4   13.98    0.46
   3   3   4   13.81    0.42
   3   3   4   13.05    0.44
   3   3   4   13.77    0.40
  -4  -3  -4    0.92    0.16
   4   3   4    0.66    0.17
   4   3   4    0.71    0.17
   4   3   4    0.94    0.14
   4   3   4    0.66    0.09
  -5  -3  -4   13.64    0.49
   5   3   4   14.29    0.57
   5   3   4   13.95    0.58
  -6  -3  -4    8.63    0.41
   6   3   4    9.33    0.53
   6   3   4    9.19    0.53
   7   3   4    0.85    0.30
   7   3   4    0.99    0.32
   8   3   4    0.12    0.35
   8   3   4   -0.21    0.30
   9   3   4   -0.44    0.36
  -5   4   4    0.14    0.35
  -5   4   4    1.30    0.42
  -4   4   4    1.74    0.37
  -4   4   4    2.02    0.39
  -3   4   4   23.49    0.87
  -3   4   4   22.90    0.88
  -2   4   4   28.87    0.81
  -2   4   4   28.87    0.94
  -2   4   4   28.07    0.92
   1  -4  -4    5.33    0.23
   1  -4  -4    5.39    0.29
  -1   4   4    4.88    0.38
  -1   4   4    5.22    0.41
  -1   4   4    5.19    0.31
   0  -4  -4   24.29    0.70
   0  -4  -4   26.16    0.61
   0   4   4   23.53    0.73
   0   4   4   24.62    0.76
   0   4   4   23.87    0.70
  -1  -4  -4    5.54    0.30
   1   4   4    5.05    0.29
   1   4   4    5.09    0.31
   1   4   4    5.63    0.28
  -2  -4  -4   52.91    1.32
   2   4   4   51.97    1.32
   2   4   4   53.57    1.26
   2   4   4   54.62    1.30
  -3  -4  -4    0.42    0.14
   3   4   4    0.14    0.13
  -4  -4  -4    5.29    0.32
   4   4   4    4.95    0.35
   4   4   4    4.88    0.30
   4   4   4    5.24    0.25
   4   4   4    5.15    0.33
  -5  -4  -4   13.48    0.51
   5   4   4   13.91    0.59
   5   4   4   13.69    0.58
   5   4   4   13.21    0.51
   5   4   4   13.59    0.40
  -6  -4  -4    2.32    0.24
   6   4   4    2.63    0.34
   6   4   4    2.82    0.35
   7   4   4    0.51    0.30
   7   4   4    0.42    0.30
   8   4   4    0.17    0.35
   8   4   4    0.53    0.34
   9   4   4    0.19    0.40
   9   4   4    0.08    0.38
  -4   5   4   10.60    0.78
  -4   5   4    8.89    0.69
  -3   5   4    9.35    0.67
  -3   5   4   10.24    0.65
  -2   5   4   11.31    0.51
  -2   5   4   11.34    0.63
  -2   5   4   11.36    0.62
   1  -5  -4   34.33    0.95
  -1   5   4   32.62    1.04
  -1   5   4   33.77    0.96
  -1   5   4   34.26    1.06
   0  -5  -4   53.43    1.40
   0   5   4   55.04    1.46
   0   5   4   55.77    1.39
   0   5   4   54.24    1.44
  -1  -5  -4   17.19    0.61
   1   5   4   18.37    0.61
   1   5   4   17.88    0.65
   1   5   4   18.72    0.61
  -2  -5  -4   32.84    0.94
   2   5   4   31.92    0.94
   2   5   4   35.21    0.93
   2   5   4   33.16    0.88
  -3  -5  -4   44.58    1.19
   3   5   4   44.97    1.19
   3   5   4   44.88    1.15
   3   5   4   44.34    1.09
  -4  -5  -4  130.48    3.01
   4   5   4  128.48    2.95
   4   5   4  127.84    3.02
  -5  -5  -4    0.09    0.17
   5   5   4   -0.12    0.12
   5   5   4    0.28    0.21
   5   5   4    0.09    0.23
   5   5   4    0.04    0.18
  -6  -5  -4   71.91    1.78
   6   5   4   71.47    1.84
   6   5   4   70.44    1.92
   6   5   4   71.64    1.89
   7   5   4    0.57    0.31
   7   5   4    0.13    0.30
   8   5   4   43.35    1.42
   8   5   4   43.59    1.47
   9   5   4    0.80    0.43
   9   5   4    0.98    0.42
  -3   6   4   11.62    0.81
  -3   6   4   12.94    0.78
  -2   6   4   58.77    1.73
  -2   6   4   59.73    1.58
  -2   6   4   58.34    1.69
  -1   6   4    3.18    0.40
  -1   6   4    2.64    0.31
  -1   6   4    2.80    0.39
   0  -6  -4  135.26    3.24
   0   6   4  138.74    3.30
   0   6   4  134.29    3.31
   0   6   4  141.55    3.24
  -1  -6  -4   60.53    1.56
   1   6   4   57.12    1.55
   1   6   4   61.03    1.54
   1   6   4   58.90    1.60
  -2  -6  -4  168.43    3.94
   2   6   4  170.13    3.90
   2   6   4  166.97    3.96
   2   6   4  174.33    3.91
  -3  -6  -4    0.33    0.21
   3   6   4    0.71    0.24
   3   6   4    0.50    0.19
   3   6   4    0.91    0.18
  -4  -6  -4   86.39    2.10
   4   6   4   83.99    2.10
   4   6   4   83.32    2.04
  -5  -6  -4    0.10    0.20
   5   6   4    0.06    0.24
   5   6   4   -0.03    0.15
   5   6   4    0.03    0.21
  -6  -6  -4  119.18    2.82
   6   6   4  118.07    2.87
   6   6   4  114.01    2.94
  -7  -6  -4    0.19    0.23
   7   6   4    0.63    0.34
   8   6   4   10.61    0.77
   9   6   4    0.17    0.39
   9   6   4    0.44    0.43
  -2   7   4   20.01    0.95
  -2   7   4   20.18    0.85
  -2   7   4   19.74    0.99
  -1   7   4    2.87    0.44
  -1   7   4    2.29    0.42
  -1   7   4    2.81    0.37
   0  -7  -4   61.90    1.66
   0   7   4   60.37    1.64
   0   7   4   61.41    1.72
   0   7   4   58.57    1.70
  -1  -7  -4    1.61    0.30
   1   7   4    0.34    0.26
   1   7   4   -0.01    0.27
   1   7   4    0.02    0.23
  -2  -7  -4   30.02    0.99
   2   7   4   28.96    1.00
   2   7   4   30.04    0.96
   2   7   4   31.15    0.97
  -3  -7  -4    8.49    0.53
   3   7   4    8.18    0.49
   3   7   4    8.17    0.54
   3   7   4    7.60    0.45
  -4  -7  -4   81.44    2.08
   4   7   4   79.97    2.08
   4   7   4   81.15    2.02
  -5  -7  -4   13.08    0.64
   5   7   4   12.59    0.65
   5   7   4   13.38    0.55
   5   7   4   12.57    0.69
  -6  -7  -4   25.23    0.90
   6   7   4   24.53    0.77
   6   7   4   26.25    1.01
   6   7   4   24.50    0.93
  -7  -7  -4    4.86    0.42
   7   7   4    3.81    0.44
   7   7   4    4.35    0.51
   8   7   4   41.37    1.50
   9   7   4    4.44    0.63
  -1   8   4   -0.24    0.32
  -1   8   4    0.47    0.42
  -1   8   4    0.01    0.40
   0   8   4    0.33    0.31
   0   8   4    0.05    0.36
   0   8   4    0.51    0.38
  -1  -8  -4    5.25    0.48
   1   8   4    5.42    0.51
   1   8   4    5.46    0.46
   1   8   4    5.45    0.53
  -2  -8  -4   31.15    1.12
   2   8   4   32.32    1.11
   2   8   4   35.43    1.11
   2   8   4   35.25    1.17
  -3  -8  -4   16.49    0.78
   3   8   4   17.46    0.75
   3   8   4   17.44    0.81
  -4  -8  -4   27.57    1.02
   4   8   4   28.52    0.95
   4   8   4   27.59    1.02
  -5  -8  -4    0.05    0.27
   5   8   4    0.09    0.32
   5   8   4   -0.01    0.23
   5   8   4    0.28    0.30
  -6  -8  -4    6.36    0.50
   6   8   4    6.38    0.54
   6   8   4    5.70    0.57
   6   8   4    5.78    0.45
  -7  -8  -4    9.02    0.66
   7   8   4    8.46    0.74
   7   8   4    9.68    0.72
  -8  -8  -4   13.05    0.76
   8   8   4   13.05    0.93
   1   9   4    1.04    0.41
   1   9   4    0.14    0.36
   1   9   4    0.83    0.43
  -2  -9  -4   -0.18    0.33
   2   9   4    0.33    0.38
   2   9   4    0.03    0.33
  -3  -9  -4   -0.19    0.33
   3   9   4    0.57    0.37
   3   9   4   -0.36    0.29
  -4  -9  -4    0.87    0.37
   4   9   4    1.07    0.34
   4   9   4    0.35    0.36
  -5  -9  -4    3.90    0.48
   5   9   4    4.66    0.53
   5   9   4    4.49    0.54
   5   9   4    4.66    0.43
  -6  -9  -4    1.91    0.42
   6   9   4    1.56    0.46
   6   9   4    1.90    0.33
   6   9   4    2.47    0.46
  -7  -9  -4    2.02    0.43
   7   9   4    1.87    0.50
   7   9   4    2.28    0.48
   6   8  -5   10.58    0.85
  -6  -8   5    9.22    0.78
   5   8  -5   17.84    0.98
   5   8  -5   16.10    0.89
  -5  -8   5   17.35    0.92
   4   8  -5   16.72    0.91
   4   8  -5   16.34    0.79
   4   8  -5   16.62    0.99
   4   8  -5   16.32    0.95
  -4  -8   5   15.41    0.90
   3   8  -5   12.08    0.72
   3   8  -5   12.81    0.87
   3   8  -5   12.81    0.80
  -3  -8   5   12.63    0.84
   2   8  -5   27.64    1.07
   2   8  -5   29.58    1.11
   2   8  -5   27.38    1.21
  -2  -8   5   28.50    1.21
   1   8  -5    0.70    0.39
   1   8  -5    0.82    0.39
   1   8  -5    0.29    0.41
  -1  -8   5    0.19    0.40
   7   7  -5   11.40    0.90
   6   7  -5    9.20    0.79
  -6  -7   5    9.38    0.69
   5   7  -5   -0.01    0.34
   5   7  -5    0.51    0.39
  -5  -7   5    0.38    0.32
   4   7  -5   13.26    0.67
   4   7  -5   14.60    0.87
   4   7  -5   15.04    0.79
   4   7  -5   15.09    0.76
  -4  -7   5   13.40    0.77
   3   7  -5   -0.04    0.30
   3   7  -5    0.04    0.28
   3   7  -5    0.17    0.34
   3   7  -5   -0.14    0.25
  -3  -7   5    0.41    0.33
   2   7  -5    9.58    0.61
   2   7  -5    9.05    0.63
   2   7  -5   10.26    0.73
  -2  -7   5    9.83    0.72
   1   7  -5    1.30    0.34
   1   7  -5    1.54    0.40
   1   7  -5    0.94    0.33
  -1  -7   5    0.68    0.36
   0   7  -5   30.40    1.21
   0   7  -5   31.59    1.11
   0   7  -5   29.93    1.06
   0  -7   5   29.16    1.19
  -1   7  -5    3.65    0.55
  -1   7  -5    2.02    0.41
   1  -7   5    2.06    0.54
   8   6  -5    4.55    0.66
   7   6  -5    3.60    0.56
   6   6  -5    1.09    0.40
  -6  -6   5    2.06    0.34
   5   6  -5    0.61    0.34
   5   6  -5    0.67    0.34
  -5  -6   5    0.82    0.29
   4   6  -5    4.23    0.43
   4   6  -5    3.49    0.43
   4   6  -5    4.16    0.36
   4   6  -5    3.80    0.48
  -4  -6   5    3.38    0.38
   3   6  -5   -0.05    0.29
   3   6  -5   -0.06    0.21
   3   6  -5    0.21    0.25
   3   6  -5    0.51    0.29
  -3  -6   5    0.42    0.28
   2   6  -5    2.13    0.30
   2   6  -5    1.67    0.36
   2   6  -5    0.94    0.25
   2   6  -5    1.78    0.32
  -2  -6   5    1.92    0.34
   1   6  -5    0.79    0.27
   1   6  -5    1.59    0.36
   1   6  -5    1.79    0.31
  -1  -6   5    1.50    0.34
   0   6  -5    3.49    0.45
   0   6  -5    3.18    0.36
   0   6  -5    3.52    0.38
   0  -6   5    2.89    0.41
  -1   6  -5    2.96    0.38
  -1   6  -5    3.70    0.48
  -1   6  -5    3.85    0.38
   1  -6   5    3.14    0.46
  -2   6  -5    0.00    0.29
  -2   6  -5    0.25    0.38
   2  -6   5    0.44    0.41
  -3   6  -5    2.77    0.44
  -3   6  -5    2.34    0.51
   3  -6   5    2.41    0.54
   8   5  -5   11.51    0.97
   7   5  -5    4.09    0.57
   6   5  -5   -0.10    0.33
  -6  -5   5    0.45    0.25
   5   5  -5    0.22    0.28
   5   5  -5    0.85    0.33
  -5  -5   5    0.85    0.24
   4   5  -5   70.55    1.84
   4   5  -5   66.28    1.71
   4   5  -5   67.00    1.91
  -4  -5   5   68.60    1.76
   3   5  -5    0.13    0.25
   3   5  -5   -0.03    0.21
   3   5  -5   -0.04    0.19
   3   5  -5    0.03    0.23
  -3  -5   5    0.34    0.23
   2   5  -5   29.17    0.87
   2   5  -5   27.62    0.88
   2   5  -5   29.41    0.92
   2   5  -5   28.12    0.97
  -2  -5   5   28.43    0.95
   1   5  -5    0.06    0.24
   1   5  -5    0.30    0.20
   1   5  -5    0.15    0.18
   1   5  -5    0.35    0.22
  -1  -5   5    0.32    0.25
   0   5  -5    0.93    0.30
   0   5  -5    0.67    0.24
   0   5  -5    0.68    0.23
   0  -5   5    0.89    0.28
  -1   5  -5    3.48    0.33
  -1   5  -5    2.87    0.32
  -1   5  -5    2.33    0.36
   1  -5   5    3.06    0.40
  -2   5  -5   34.29    1.07
  -2   5  -5   33.46    1.04
  -2   5  -5   33.59    1.16
   2  -5   5   33.01    1.42
   2  -5   5   33.42    1.26
  -3   5  -5    4.39    0.42
  -3   5  -5    4.22    0.51
   3  -5   5    4.81    0.57
  -4   5  -5    0.19    0.40
   4  -5   5    0.11    0.39
   8   4  -5   21.98    1.23
   7   4  -5   17.69    0.99
   6   4  -5  105.97    2.81
   5   4  -5   32.02    1.11
  -5  -4   5   32.04    0.93
   4   4  -5   30.49    1.06
   4   4  -5   32.11    1.04
   4   4  -5   32.85    0.90
  -4  -4   5   32.97    0.94
   3   4  -5    3.66    0.40
   3   4  -5    3.09    0.27
   3   4  -5    3.29    0.32
  -3  -4   5    3.71    0.31
   2   4  -5   80.65    2.04
   2   4  -5   79.32    1.97
   2   4  -5   78.93    1.94
   2   4  -5   79.41    1.94
  -2  -4   5   78.71    1.97
   1   4  -5    3.19    0.28
   1   4  -5    2.63    0.25
   1   4  -5    3.26    0.27
   1   4  -5    2.92    0.33
  -1  -4   5    3.29    0.31
   0   4  -5  177.61    4.15
   0   4  -5  180.42    4.08
   0   4  -5  176.69    3.99
   0   4  -5  179.09    4.05
   0  -4   5  175.80    4.16
  -1   4  -5    2.07    0.30
  -1   4  -5    1.59    0.23
  -1   4  -5    2.11    0.26
   1  -4   5    1.93    0.31
  -2   4  -5   37.24    1.07
  -2   4  -5   36.53    1.01
  -2   4  -5   36.17    1.15
   2  -4   5   36.91    1.28
   2  -4   5   38.86    1.21
  -3   4  -5    8.47    0.50
  -3   4  -5    6.75    0.58
   3  -4   5    8.48    0.65
  -4   4  -5   46.55    1.46
  -4   4  -5   47.63    1.38
   4  -4   5   46.37    1.52
  -5   4  -5   16.06    0.88
   5  -4   5   15.23    0.90
   8   3  -5   61.94    2.12
   7   3  -5    0.25    0.41
   6   3  -5   68.56    2.02
   5   3  -5   43.63    1.36
  -5  -3   5   42.30    1.11
   4   3  -5  231.04    5.59
   4   3  -5  250.91    5.61
  -4  -3   5  246.76    5.44
   3   3  -5   30.63    0.84
   3   3  -5   29.32    0.92
   3   3  -5   31.17    0.99
  -3  -3   5   29.57    0.85
   2   3  -5  114.01    2.64
   2   3  -5  110.44    2.66
   2   3  -5  117.39    2.77
  -2  -3   5  112.66    2.66
   1   3  -5   45.71    1.16
   1   3  -5   44.73    1.22
   1   3  -5   45.67    1.12
   1   3  -5   43.38    1.15
  -1  -3   5   44.37    1.20
   0   3  -5  161.01    3.73
   0   3  -5  167.74    3.82
   0   3  -5  166.17    3.68
   0   3  -5  163.21    3.76
   0  -3   5  168.10    3.84
  -1   3  -5   10.86    0.40
  -1   3  -5   11.02    0.50
  -1   3  -5   11.49    0.45
  -1   3  -5   11.14    0.33
   1  -3   5   11.13    0.56
  -2   3  -5  146.11    3.32
  -2   3  -5  140.65    3.38
  -2   3  -5  141.47    3.25
   2  -3   5  145.80    3.46
   2  -3   5  143.80    3.53
  -3   3  -5   52.66    1.32
  -3   3  -5   52.35    1.46
  -3   3  -5   55.20    1.39
   3  -3   5   52.25    1.57
  -4   3  -5    8.59    0.48
  -4   3  -5    8.67    0.58
   4  -3   5    8.33    0.60
  -5   3  -5    4.25    0.47
   5  -3   5    5.06    0.53
  -6   3  -5   10.86    0.77
   6  -3   5   11.18    0.80
   8   2  -5    5.58    0.77
  -8  -2   5    5.71    0.68
   7   2  -5   12.87    0.95
   6   2  -5   80.26    2.31
   5   2  -5   64.26    1.85
   4   2  -5  163.28    3.92
  -4  -2   5  165.09    3.69
   3   2  -5    0.02    0.17
   3   2  -5    0.35    0.10
   3   2  -5    0.05    0.18
  -3  -2   5    0.26    0.12
   2   2  -5  330.08    7.08
   2   2  -5  317.34    7.18
   2   2  -5  309.93    7.11
  -2  -2   5  320.22    7.07
   1   2  -5    5.21    0.27
   1   2  -5    4.10    0.33
   1   2  -5    5.00    0.26
  -1  -2   5    5.04    0.30
   0   2  -5  140.23    3.12
   0   2  -5  136.24    3.15
   0   2  -5  140.90    3.23
   0   2  -5  141.16    3.19
   0  -2   5  141.28    3.25
  -1   2  -5  177.81    4.10
  -1   2  -5  182.54    4.01
  -1   2  -5  181.57    4.07
   1  -2   5  179.51    4.19
  -2   2  -5   93.61    2.23
  -2   2  -5   91.94    2.11
  -2   2  -5   92.46    2.18
   2  -2   5   93.64    2.29
   2  -2   5   92.62    2.37
  -3   2  -5   14.02    0.52
  -3   2  -5   14.76    0.45
  -3   2  -5   15.66    0.59
   3  -2   5   15.87    0.69
   3  -2   5   16.13    0.53
  -4   2  -5   82.83    2.07
  -4   2  -5   82.18    1.99
   4  -2   5   81.07    2.17
  -5   2  -5   24.74    0.90
   5  -2   5   26.02    0.97
  -6   2  -5   -0.20    0.30
   6  -2   5    0.25    0.35
  -7   2  -5    1.39    0.41
   7  -2   5    1.67    0.43
   8   1  -5   12.75    1.10
  -8  -1   5   11.06    0.96
  -8  -1   5   11.24    0.88
   7   1  -5    0.14    0.45
  -7  -1   5    0.37    0.41
   6   1  -5    2.96    0.52
  -6  -1   5    2.33    0.45
   5   1  -5    3.90    0.49
   4   1  -5   85.81    2.27
  -4  -1   5   84.46    1.95
   3   1  -5   25.70    0.88
  -3  -1   5   26.54    0.69
   2   1  -5    5.17    0.35
   2   1  -5    5.31    0.23
   2   1  -5    5.05    0.35
  -2  -1   5    5.57    0.26
   1   1  -5    1.89    0.19
   1   1  -5    2.41    0.24
   1   1  -5    2.38    0.19
  -1  -1   5    2.22    0.19
   0   1  -5   17.45    0.50
   0   1  -5   17.77    0.57
   0   1  -5   17.48    0.54
   0  -1   5   18.32    0.60
  -1   1  -5    1.47    0.13
  -1   1  -5    1.41    0.17
  -1   1  -5    1.81    0.17
   1  -1   5    1.63    0.22
  -2   1  -5   66.34    1.62
  -2   1  -5   67.07    1.50
  -2   1  -5   66.15    1.59
   2  -1   5   67.25    1.73
   2  -1   5   67.85    1.66
  -3   1  -5   30.06    0.85
  -3   1  -5   29.56    0.71
  -3   1  -5   29.10    0.80
   3  -1   5   31.02    0.96
   3  -1   5   30.67    0.78
  -4   1  -5    3.18    0.27
  -4   1  -5    3.29    0.29
   4  -1   5    3.41    0.37
  -5   1  -5    0.15    0.22
   5  -1   5    0.40    0.26
  -6   1  -5    9.64    0.56
   6  -1   5    9.67    0.66
   7  -1   5    9.12    0.72
   7   0  -5   14.57    1.12
  -7   0   5   12.10    0.88
  -7   0   5   12.86    0.78
   6   0  -5    3.54    0.36
   6   0  -5    3.86    0.60
  -6   0   5    3.65    0.51
   5   0  -5    0.15    0.20
   5   0  -5   -0.07    0.36
  -5   0   5   -0.07    0.31
   4   0  -5   40.04    1.36
  -4   0   5   39.15    1.28
   3   0  -5   13.96    0.70
  -3   0   5   14.35    0.44
   2   0  -5    2.04    0.28
   1   0  -5   33.42    0.99
   1   0  -5   35.59    0.87
  -1   0   5   35.23    0.94
   0   0  -5    0.22    0.12
   0   0  -5    0.13    0.10
   0   0   5    0.30    0.13
  -1   0  -5   11.99    0.42
  -1   0  -5   12.35    0.40
   1   0   5   11.73    0.44
  -2   0  -5  123.33    2.84
  -2   0  -5  119.34    2.86
   2   0   5  130.09    2.86
   2   0   5  128.62    2.93
  -3   0  -5    0.30    0.12
  -3   0  -5    0.34    0.13
   3   0   5    0.85    0.19
   3   0   5    0.74    0.12
   3   0   5    0.43    0.09
  -4   0  -5    5.82    0.32
  -4   0  -5    6.00    0.30
   4   0   5    5.74    0.41
   4   0   5    5.65    0.35
  -5   0  -5    6.73    0.39
  -5   0  -5    6.33    0.34
   5   0   5    7.12    0.49
  -6   0  -5    2.08    0.29
   6   0   5    1.90    0.35
   7   0   5   24.48    1.01
   8   0   5    3.91    0.52
  -7   1   5    0.20    0.41
  -7   1   5    0.07    0.37
  -6   1   5   31.71    1.13
  -6   1   5   30.40    1.20
   5  -1  -5   51.21    1.36
  -5   1   5   50.85    1.47
  -5   1   5   50.38    1.57
   4  -1  -5   13.34    0.51
   4  -1  -5   14.84    0.88
  -4   1   5   15.36    0.73
   3  -1  -5    4.02    0.46
   3  -1  -5    3.72    0.25
  -3   1   5    3.97    0.38
  -3   1   5    3.02    0.25
  -2   1   5  292.56    6.43
  -2   1   5  274.74    6.28
   1  -1  -5  164.25    3.56
  -1   1   5  157.40    3.63
  -1   1   5  160.53    3.70
   0  -1  -5   39.65    0.98
   0   1   5   39.95    1.02
   0   1   5   40.12    1.02
  -1  -1  -5  301.65    6.85
  -1  -1  -5  295.05    6.82
   1   1   5  312.44    6.81
   1   1   5  318.21    6.78
   1   1   5  318.90    6.83
  -2  -1  -5    1.52    0.14
  -2  -1  -5    1.35    0.11
  -2  -1  -5    1.34    0.16
   2   1   5    1.24    0.16
   2   1   5    1.32    0.13
   2   1   5    1.39    0.08
  -3  -1  -5   96.42    2.17
  -3  -1  -5   96.08    2.27
   3   1   5   96.41    2.27
   3   1   5   96.81    2.16
   3   1   5   93.99    2.18
  -4  -1  -5   34.36    0.94
  -4  -1  -5   34.26    0.87
   4   1   5   33.17    0.98
   4   1   5   36.46    0.93
  -5  -1  -5  208.39    4.60
  -5  -1  -5  199.49    4.65
   5   1   5  214.95    4.72
   5   1   5  198.57    4.74
  -6  -1  -5   16.48    0.58
   6   1   5   16.70    0.75
   6   1   5   16.90    0.75
   7   1   5   15.24    0.78
   8   1   5    3.92    0.51
  -6   2   5   23.22    1.01
  -6   2   5   22.34    1.04
  -5   2   5   11.50    0.73
  -5   2   5   11.34    0.66
   4  -2  -5   78.31    1.90
  -4   2   5   77.56    2.04
  -4   2   5   80.07    2.11
   3  -2  -5  131.71    2.93
  -3   2   5  127.92    2.92
  -3   2   5  129.02    3.13
  -3   2   5  126.07    3.06
   2  -2  -5   15.90    0.44
  -2   2   5   15.45    0.48
  -2   2   5   14.63    0.61
   1  -2  -5  203.95    4.47
  -1   2   5  202.45    4.61
  -1   2   5  201.56    4.52
   0  -2  -5  104.18    2.34
   0   2   5  100.94    2.35
   0   2   5  103.57    2.40
  -1  -2  -5  126.81    2.87
   1   2   5  124.83    2.85
   1   2   5  128.18    2.85
   1   2   5  125.57    2.79
  -2  -2  -5    3.69    0.25
   2   2   5    3.43    0.20
   2   2   5    3.76    0.20
   2   2   5    3.76    0.18
  -3  -2  -5  307.22    7.05
  -3  -2  -5  315.04    6.93
   3   2   5  319.21    7.03
   3   2   5  319.69    6.96
   3   2   5  324.47    6.93
  -4  -2  -5    2.62    0.15
  -4  -2  -5    1.92    0.22
   4   2   5    2.61    0.14
   4   2   5    2.94    0.25
   4   2   5    2.56    0.25
  -5  -2  -5  188.78    4.61
  -5  -2  -5  205.41    4.48
   5   2   5  208.37    4.67
   5   2   5  207.95    4.63
   6   2   5   39.98    1.22
   6   2   5   39.74    1.20
   7   2   5   68.41    1.91
   7   2   5   66.24    1.88
   8   2   5    4.18    0.51
   9   2   5    9.49    0.80
  -6   3   5   24.53    1.09
  -6   3   5   23.69    1.08
  -5   3   5   26.45    1.09
  -5   3   5   29.02    1.09
  -4   3   5   15.55    0.76
  -4   3   5   14.65    0.73
  -3   3   5    4.58    0.42
  -3   3   5    5.74    0.45
  -3   3   5    5.28    0.35
   2  -3  -5  115.99    2.56
  -2   3   5  113.63    2.77
  -2   3   5  110.97    2.73
  -2   3   5  115.12    2.62
   1  -3  -5  307.80    6.79
  -1   3   5  307.76    6.93
  -1   3   5  306.31    6.82
  -1   3   5  313.14    6.90
   0  -3  -5    0.92    0.14
   0   3   5    1.07    0.18
   0   3   5    0.73    0.13
   0   3   5    0.82    0.15
  -1  -3  -5  195.29    4.28
   1   3   5  189.96    4.29
   1   3   5  190.59    4.25
   1   3   5  188.75    4.27
  -2  -3  -5   63.77    1.52
   2   3   5   63.83    1.49
   2   3   5   60.53    1.45
   2   3   5   63.16    1.43
   2   3   5   62.79    1.49
  -3  -3  -5  144.53    3.26
   3   3   5  143.19    3.19
   3   3   5  139.23    3.22
   3   3   5  141.50    3.19
  -4  -3  -5    0.66    0.16
   4   3   5    0.81    0.17
   4   3   5    1.05    0.14
   4   3   5    1.06    0.18
   4   3   5    0.90    0.11
  -5  -3  -5  171.04    3.97
   5   3   5  177.07    4.03
   5   3   5  173.02    4.01
  -6  -3  -5   61.16    1.58
   6   3   5   62.65    1.68
   6   3   5   62.60    1.67
   7   3   5   18.57    0.83
   7   3   5   19.55    0.83
   8   3   5    2.02    0.43
   8   3   5    1.63    0.39
   9   3   5   47.00    1.60
  -5   4   5    1.48    0.44
  -5   4   5    1.10    0.41
  -4   4   5   15.59    0.80
  -4   4   5   16.18    0.82
  -3   4   5   88.25    2.29
  -3   4   5   87.80    2.28
  -2   4   5    8.69    0.52
  -2   4   5    8.76    0.55
  -2   4   5    9.22    0.41
   1  -4  -5   21.75    0.62
  -1   4   5   21.20    0.65
  -1   4   5   20.16    0.72
  -1   4   5   22.03    0.76
   0  -4  -5   27.89    0.77
   0   4   5   27.98    0.78
   0   4   5   27.92    0.81
   0   4   5   27.39    0.84
  -1  -4  -5   33.00    0.90
   1   4   5   32.78    0.89
   1   4   5   33.84    0.88
   1   4   5   33.19    0.93
  -2  -4  -5    0.17    0.14
   2   4   5    0.16    0.14
   2   4   5    0.38    0.13
  -3  -4  -5   89.01    2.15
   3   4   5   90.55    2.13
   3   4   5   92.35    2.02
   3   4   5   89.61    2.11
   3   4   5   90.81    2.10
  -4  -4  -5    8.95    0.41
   4   4   5    8.41    0.40
   4   4   5    9.04    0.33
   4   4   5    8.63    0.37
  -5  -4  -5   18.75    0.64
   5   4   5   19.95    0.69
   5   4   5   18.76    0.70
   5   4   5   18.77    0.62
   5   4   5   19.39    0.53
  -6  -4  -5    1.39    0.23
   6   4   5    0.87    0.27
   6   4   5    1.09    0.28
   7   4   5   49.60    1.47
   7   4   5   49.04    1.48
   8   4   5   11.76    0.75
   8   4   5   12.15    0.79
   9   4   5    0.85    0.42
   9   4   5    0.96    0.58
  -4   5   5    0.36    0.39
  -4   5   5    0.23    0.36
  -3   5   5    0.58    0.34
  -3   5   5    0.32    0.33
  -2   5   5    5.73    0.41
  -2   5   5    6.24    0.54
  -2   5   5    5.67    0.47
   1  -5  -5   21.45    0.67
  -1   5   5   21.38    0.70
  -1   5   5   21.01    0.81
  -1   5   5   21.81    0.79
   0  -5  -5    3.83    0.29
   0   5   5    4.33    0.37
   0   5   5    4.02    0.34
   0   5   5    3.94    0.33
  -1  -5  -5    6.68    0.38
   1   5   5    6.53    0.44
   1   5   5    6.30    0.37
   1   5   5    6.67    0.37
  -2  -5  -5    3.98    0.33
   2   5   5    3.78    0.28
   2   5   5    3.08    0.28
   2   5   5    3.28    0.25
  -3  -5  -5    0.36    0.18
   3   5   5    0.23    0.12
   3   5   5    0.24    0.15
   3   5   5    0.21    0.17
  -4  -5  -5    0.75    0.20
   4   5   5    0.60    0.19
   4   5   5    0.56    0.15
  -5  -5  -5    0.50    0.19
   5   5   5    0.10    0.20
   5   5   5    0.12    0.22
   5   5   5    0.15    0.13
   5   5   5    0.12    0.18
  -6  -5  -5    0.23    0.20
   6   5   5    0.66    0.23
   6   5   5    0.46    0.27
   6   5   5    0.38    0.27
  -7  -5  -5   10.55    0.53
   7   5   5    9.72    0.66
   7   5   5   10.14    0.63
   8   5   5   10.80    0.72
   8   5   5   10.34    0.74
   9   5   5    0.27    0.39
   9   5   5    0.22    0.41
  -3   6   5    3.96    0.52
  -3   6   5    4.26    0.53
  -2   6   5    6.29    0.54
  -2   6   5    6.25    0.50
  -2   6   5    6.12    0.55
  -1   6   5   46.56    1.42
  -1   6   5   49.04    1.32
  -1   6   5   45.95    1.41
   0  -6  -5    0.10    0.20
   0   6   5    0.22    0.22
   0   6   5    0.26    0.27
   0   6   5   -0.05    0.23
  -1  -6  -5    0.23    0.20
   1   6   5    0.57    0.22
   1   6   5    0.56    0.25
   1   6   5    0.66    0.23
  -2  -6  -5    1.53    0.26
   2   6   5    1.67    0.25
   2   6   5    2.05    0.29
   2   6   5    1.48    0.22
  -3  -6  -5   25.76    0.84
   3   6   5   25.56    0.73
   3   6   5   23.91    0.83
   3   6   5   25.50    0.79
  -4  -6  -5    9.37    0.51
   4   6   5    9.83    0.45
   4   6   5    9.63    0.50
  -5  -6  -5   21.79    0.77
   5   6   5   20.55    0.75
   5   6   5   22.08    0.67
   5   6   5   20.62    0.82
  -6  -6  -5    5.60    0.45
   6   6   5    5.36    0.34
   6   6   5    5.38    0.42
   6   6   5    5.41    0.49
  -7  -6  -5    1.43    0.28
   7   6   5    1.17    0.36
   7   6   5    1.89    0.33
   7   6   5    1.45    0.38
   8   6   5    0.25    0.37
   8   6   5    0.22    0.36
   9   6   5    8.84    0.79
   9   6   5    7.52    0.71
  -2   7   5    0.58    0.36
  -2   7   5    0.88    0.41
  -2   7   5    1.00    0.43
  -1   7   5    9.73    0.61
  -1   7   5   10.61    0.72
  -1   7   5    9.88    0.73
   0  -7  -5    3.29    0.36
   0   7   5    3.12    0.35
   0   7   5    2.81    0.42
   0   7   5    2.75    0.40
  -1  -7  -5   51.85    1.43
   1   7   5   49.90    1.41
   1   7   5   49.82    1.44
   1   7   5   50.98    1.49
  -2  -7  -5   12.46    0.61
   2   7   5   10.87    0.55
   2   7   5   11.43    0.58
   2   7   5   11.28    0.62
  -3  -7  -5   39.00    1.17
   3   7   5   38.58    1.13
   3   7   5   38.26    1.18
  -4  -7  -5    8.20    0.55
   4   7   5    7.30    0.52
   4   7   5    8.25    0.47
  -5  -7  -5   26.37    0.91
   5   7   5   25.48    0.91
   5   7   5   24.34    0.98
   5   7   5   25.22    0.81
  -6  -7  -5   14.54    0.70
   6   7   5   16.78    0.74
   6   7   5   14.91    0.58
   6   7   5   16.59    0.82
  -7  -7  -5   40.43    1.21
   7   7   5   37.57    1.35
   7   7   5   37.76    1.26
   8   7   5   53.44    1.75
   9   7   5    2.65    0.54
  -1   8   5   23.13    1.08
  -1   8   5   25.99    1.12
  -1   8   5   24.87    1.00
   0   8   5   21.09    0.90
   0   8   5   20.59    0.95
   0   8   5   21.55    1.00
  -1  -8  -5   42.61    1.36
   1   8   5   43.70    1.39
   1   8   5   44.91    1.36
   1   8   5   47.37    1.47
  -2  -8  -5    4.93    0.46
   2   8   5    4.00    0.43
   2   8   5    3.66    0.46
   2   8   5    3.50    0.40
  -3  -8  -5   35.08    1.19
   3   8   5   39.03    1.24
   3   8   5   37.30    1.16
  -4  -8  -5   28.01    1.01
   4   8   5   27.42    0.94
   4   8   5   27.01    1.02
  -5  -8  -5   14.08    0.74
   5   8   5   13.97    0.81
   5   8   5   13.62    0.62
   5   8   5   13.09    0.73
  -6  -8  -5   25.12    0.99
   6   8   5   27.36    0.88
   6   8   5   27.57    1.12
   6   8   5   26.90    1.02
  -7  -8  -5   17.02    0.83
   7   8   5   17.76    0.95
   7   8   5   17.20    0.86
  -8  -8  -5    6.44    0.54
   8   8   5    6.69    0.81
   8   8   5    5.61    0.65
   1   9   5   23.08    1.05
   1   9   5   22.66    1.08
   1   9   5   21.60    0.98
  -2  -9  -5   10.98    0.75
   2   9   5   11.00    0.82
   2   9   5   11.70    0.74
  -3  -9  -5    1.46    0.39
   3   9   5    1.46    0.36
   3   9   5    1.98    0.43
  -4  -9  -5    2.31    0.42
   4   9   5    1.37    0.41
   4   9   5    2.38    0.38
  -5  -9  -5    2.36    0.44
   5   9   5    1.89    0.34
   5   9   5    2.35    0.45
   5   9   5    2.48    0.50
  -6  -9  -5    8.55    0.63
   6   9   5    9.48    0.59
   6   9   5    8.99    0.76
   6   9   5    8.83    0.72
  -7  -9  -5    1.36    0.41
   7   9   5    0.91    0.46
   7   9   5    1.18    0.43
   5   8  -6   18.02    0.96
  -5  -8   6   18.31    0.99
   4   8  -6    0.33    0.41
   4   8  -6    0.08    0.31
   4   8  -6    0.52    0.45
  -4  -8   6   -0.31    0.39
   3   8  -6   19.46    1.04
   3   8  -6   18.22    0.87
   3   8  -6   19.03    0.94
  -3  -8   6   17.77    1.02
   2   8  -6    3.43    0.47
   2   8  -6    3.25    0.53
   2   8  -6    3.39    0.49
  -2  -8   6    3.85    0.56
   1   8  -6   34.59    1.28
   1   8  -6   35.96    1.27
   1   8  -6   35.84    1.42
  -1  -8   6   36.96    1.44
   7   7  -6   19.80    1.11
   6   7  -6    0.14    0.41
  -6  -7   6   -0.35    0.32
   5   7  -6   13.31    0.82
   5   7  -6   13.62    0.89
  -5  -7   6   13.91    0.80
   4   7  -6    0.27    0.27
   4   7  -6    0.43    0.33
   4   7  -6   -0.28    0.34
   4   7  -6    0.12    0.38
  -4  -7   6    0.47    0.35
   3   7  -6   49.28    1.58
   3   7  -6   47.01    1.49
   3   7  -6   48.41    1.43
  -3  -7   6   48.45    1.55
   2   7  -6    8.34    0.63
   2   7  -6    8.89    0.63
   2   7  -6    8.31    0.72
  -2  -7   6    9.43    0.75
   1   7  -6   18.03    0.82
   1   7  -6   16.65    0.82
   1   7  -6   17.14    0.94
  -1  -7   6   17.59    0.94
   0   7  -6    0.30    0.32
   0   7  -6    0.08    0.33
   0   7  -6    0.46    0.41
   0  -7   6    0.42    0.39
  -1   7  -6   24.70    1.16
  -1   7  -6   26.04    1.05
   1  -7   6   22.32    1.23
   7   6  -6   15.46    0.99
   6   6  -6   -0.13    0.37
  -6  -6   6    0.06    0.29
   5   6  -6   46.11    1.54
   5   6  -6   47.56    1.50
  -5  -6   6   46.93    1.41
   4   6  -6    2.21    0.44
   4   6  -6    2.39    0.32
   4   6  -6    2.75    0.39
  -4  -6   6    3.28    0.39
   3   6  -6   21.04    0.85
   3   6  -6   19.89    0.78
   3   6  -6   19.86    0.78
   3   6  -6   19.29    0.91
  -3  -6   6   20.81    0.87
   2   6  -6    1.55    0.33
   2   6  -6    2.20    0.46
   2   6  -6    1.56    0.30
   2   6  -6    1.17    0.36
  -2  -6   6    1.53    0.35
   1   6  -6   54.39    1.64
   1   6  -6   53.34    1.53
   1   6  -6   55.16    1.52
  -1  -6   6   54.85    1.64
   0   6  -6   40.69    1.26
   0   6  -6   41.34    1.22
   0   6  -6   37.64    1.34
   0  -6   6   43.63    1.40
  -1   6  -6    9.71    0.79
  -1   6  -6    9.86    0.66
  -1   6  -6    9.28    0.74
   1  -6   6    8.83    0.74
  -2   6  -6    2.04    0.40
  -2   6  -6    1.86    0.47
   2  -6   6    2.31    0.52
  -3   6  -6   12.37    0.90
  -3   6  -6   12.22    0.79
   3  -6   6   11.66    0.94
   8   5  -6    6.35    0.77
   7   5  -6    3.72    0.58
   6   5  -6    0.83    0.39
   5   5  -6    0.39    0.33
   5   5  -6    0.75    0.33
  -5  -5   6    0.80    0.27
   4   5  -6    2.54    0.42
   4   5  -6    3.62    0.33
   4   5  -6    2.90    0.38
  -4  -5   6    3.67    0.36
   3   5  -6   23.10    0.82
   3   5  -6   21.56    0.93
   3   5  -6   22.42    0.77
   3   5  -6   21.96    0.84
  -3  -5   6   23.62    0.84
   2   5  -6   22.68    0.81
   2   5  -6   24.50    0.79
   2   5  -6   24.55    0.92
   2   5  -6   25.75    0.86
  -2  -5   6   24.18    0.89
   1   5  -6    5.33    0.48
   1   5  -6    5.09    0.39
   1   5  -6    5.61    0.44
   1   5  -6    4.55    0.35
  -1  -5   6    4.78    0.44
   0   5  -6    4.35    0.38
   0   5  -6    4.14    0.44
   0   5  -6    4.04    0.34
   0  -5   6    4.64    0.46
  -1   5  -6   15.58    0.61
  -1   5  -6   14.28    0.75
  -1   5  -6   14.47    0.67
   1  -5   6   13.80    0.77
  -2   5  -6   13.00    0.75
  -2   5  -6   11.80    0.65
   2  -5   6   12.07    0.83
   2  -5   6   13.43    0.80
  -3   5  -6    0.36    0.30
  -3   5  -6    0.56    0.39
   3  -5   6    0.01    0.37
  -4   5  -6    4.24    0.56
   4  -5   6    3.97    0.57
   8   4  -6    0.64    0.52
   7   4  -6    0.18    0.42
   6   4  -6    0.07    0.35
   5   4  -6    0.33    0.31
  -5  -4   6    0.17    0.21
   4   4  -6    1.02    0.31
   4   4  -6    0.81    0.29
   4   4  -6    1.04    0.21
  -4  -4   6    1.68    0.25
   3   4  -6    6.15    0.44
   3   4  -6    6.24    0.55
   3   4  -6    5.78    0.38
  -3  -4   6    5.48    0.44
   2   4  -6    3.15    0.30
   2   4  -6    2.93    0.31
   2   4  -6    3.66    0.39
   2   4  -6    2.71    0.28
  -2  -4   6    2.62    0.31
   1   4  -6    4.97    0.32
   1   4  -6    4.78    0.37
   1   4  -6    4.71    0.40
   1   4  -6    5.43    0.39
  -1  -4   6    4.10    0.37
   0   4  -6    0.86    0.17
   0   4  -6    1.15    0.23
   0   4  -6    0.82    0.20
   0   4  -6    0.80    0.26
   0  -4   6    1.07    0.29
  -1   4  -6   58.39    1.59
  -1   4  -6   57.57    1.45
  -1   4  -6   56.85    1.51
   1  -4   6   56.20    1.65
  -2   4  -6   10.91    0.62
  -2   4  -6   10.19    0.55
  -2   4  -6   10.68    0.46
   2  -4   6    9.96    0.64
   2  -4   6   10.19    0.72
  -3   4  -6    1.34    0.36
  -3   4  -6    1.62    0.30
   3  -4   6    2.18    0.44
  -4   4  -6   -0.54    0.33
  -4   4  -6   -0.12    0.26
   4  -4   6    0.48    0.38
  -5   4  -6    4.04    0.53
   5  -4   6    4.06    0.56
   8   3  -6    1.69    0.58
   7   3  -6   15.85    0.99
   6   3  -6   10.70    0.79
   5   3  -6    7.65    0.62
  -5  -3   6    8.01    0.42
   4   3  -6  114.75    2.83
   4   3  -6  112.45    2.85
  -4  -3   6  114.56    2.68
   3   3  -6   28.42    0.81
   3   3  -6   27.60    0.89
   3   3  -6   27.50    0.96
  -3  -3   6   26.79    0.82
   2   3  -6   16.46    0.56
   2   3  -6   14.83    0.56
   2   3  -6   15.17    0.67
  -2  -3   6   15.49    0.59
   1   3  -6  111.15    2.72
   1   3  -6  111.81    2.60
   1   3  -6  114.74    2.64
   1   3  -6  112.99    2.65
  -1  -3   6  111.66    2.70
   0   3  -6  150.35    3.37
   0   3  -6  143.99    3.42
   0   3  -6  144.99    3.32
   0   3  -6  142.22    3.26
   0  -3   6  146.90    3.46
  -1   3  -6    0.92    0.19
  -1   3  -6    0.90    0.16
  -1   3  -6    0.73    0.23
   1  -3   6    0.65    0.26
  -2   3  -6    8.03    0.36
  -2   3  -6    8.80    0.44
  -2   3  -6    8.17    0.50
   2  -3   6    8.61    0.63
   2  -3   6    8.82    0.58
  -3   3  -6   40.34    1.12
  -3   3  -6   37.89    1.17
   3  -3   6   38.33    1.18
   3  -3   6   39.62    1.31
  -4   3  -6   30.32    1.04
  -4   3  -6   30.09    0.95
   4  -3   6   30.19    1.15
  -5   3  -6    1.33    0.38
   5  -3   6    2.45    0.45
  -6   3  -6   20.64    0.97
   6  -3   6   20.77    1.04
   8   2  -6   16.63    1.22
  -8  -2   6   14.37    1.05
   7   2  -6   47.60    1.75
   6   2  -6   34.99    1.35
   5   2  -6  102.07    2.71
   4   2  -6    4.20    0.43
  -4  -2   6    5.28    0.32
   3   2  -6  122.79    2.97
   3   2  -6  121.58    2.98
   3   2  -6  123.60    2.78
  -3  -2   6  123.20    2.84
   2   2  -6  106.13    2.52
   2   2  -6  109.77    2.49
   2   2  -6  104.12    2.59
  -2  -2   6  102.46    2.48
   1   2  -6   85.66    2.10
   1   2  -6   82.05    1.99
   1   2  -6   87.52    2.02
  -1  -2   6   82.09    2.04
   0   2  -6  119.30    2.76
   0   2  -6  117.80    2.67
   0   2  -6  120.38    2.80
   0   2  -6  116.20    2.71
   0  -2   6  119.73    2.84
  -1   2  -6  157.57    3.65
  -1   2  -6  157.71    3.54
  -1   2  -6  161.97    3.61
   1  -2   6  154.79    3.75
  -2   2  -6  195.74    4.43
  -2   2  -6  201.57    4.57
  -2   2  -6  207.92    4.54
   2  -2   6  200.96    4.75
   2  -2   6  195.76    4.64
  -3   2  -6    1.74    0.18
  -3   2  -6    1.64    0.27
  -3   2  -6    1.04    0.20
   3  -2   6    1.53    0.32
   3  -2   6    1.32    0.23
  -4   2  -6   72.91    1.86
  -4   2  -6   71.03    1.79
   4  -2   6   72.04    1.99
  -5   2  -6    3.15    0.37
   5  -2   6    1.91    0.39
  -6   2  -6   67.96    1.87
   6  -2   6   68.52    2.02
   7  -2   6    0.18    0.39
   8   1  -6    0.67    0.59
  -8  -1   6   -0.05    0.46
  -8  -1   6    0.56    0.41
   7   1  -6   52.97    1.98
  -7  -1   6   53.08    1.80
   6   1  -6   38.02    1.47
  -6  -1   6   33.43    1.33
   5   1  -6   95.31    2.63
   4   1  -6   34.55    1.18
  -4  -1   6   33.81    0.90
   3   1  -6   37.00    1.15
  -3  -1   6   35.46    0.94
   2   1  -6  113.94    2.84
   2   1  -6  123.31    2.85
   2   1  -6  118.47    2.70
  -2  -1   6  117.85    2.74
   1   1  -6   43.31    1.14
   1   1  -6   42.58    1.12
  -1  -1   6   43.08    1.14
   0   1  -6  484.63   10.82
   0   1  -6  489.89   10.79
   0   1  -6  484.90   10.75
   0  -1   6  501.48   10.88
  -1   1  -6    0.43    0.13
  -1   1  -6    0.24    0.14
   1  -1   6    0.43    0.20
  -2   1  -6  113.04    2.46
  -2   1  -6  108.89    2.58
  -2   1  -6  108.10    2.57
   2  -1   6  113.81    2.74
   2  -1   6  108.96    2.65
  -3   1  -6   20.09    0.63
  -3   1  -6   19.66    0.65
  -3   1  -6   19.64    0.49
   3  -1   6   21.61    0.79
  -4   1  -6  178.84    3.98
  -4   1  -6  167.32    3.93
   4  -1   6  171.74    4.11
  -5   1  -6    0.51    0.22
  -5   1  -6    0.30    0.22
   5  -1   6    0.50    0.29
  -6   1  -6   24.91    0.88
   6  -1   6   24.22    1.02
   7  -1   6    3.49    0.52
   7   0  -6    7.59    0.87
  -7   0   6    7.31    0.73
  -7   0   6    8.60    0.67
   6   0  -6    2.69    0.58
  -6   0   6    3.42    0.53
   5   0  -6    2.19    0.47
  -5   0   6    1.42    0.39
   4   0  -6   81.49    2.26
  -4   0   6   74.39    2.13
   3   0  -6   52.57    1.56
  -3   0   6   49.80    1.29
   2   0  -6  190.28    4.52
   2   0  -6  195.70    4.23
  -2   0   6  191.28    4.37
   1   0  -6   47.50    1.17
   1   0  -6   47.87    1.30
  -1   0   6   46.47    1.25
   0   0  -6   44.80    1.14
   0   0  -6   43.17    1.17
   0   0   6   44.60    1.19
  -1   0  -6    0.52    0.14
  -1   0  -6    0.57    0.14
   1   0   6    0.69    0.17
  -2   0  -6  359.01    8.12
  -2   0  -6  355.42    8.15
   2   0   6  383.73    8.17
   2   0   6  375.31    8.23
  -3   0  -6   33.39    0.89
  -3   0  -6   32.80    0.91
   3   0   6   34.76    0.87
   3   0   6   33.40    1.01
  -4   0  -6   36.38    0.99
  -4   0  -6   36.39    1.00
   4   0   6   37.27    1.13
   4   0   6   38.03    0.98
  -5   0  -6   10.85    0.48
  -5   0  -6   11.93    0.49
   5   0   6   12.31    0.62
  -6   0  -6   34.77    1.02
   6   0   6   33.88    1.18
   7   0   6    3.83    0.49
   8   0   6    2.86    0.51
  -7   1   6    5.54    0.60
  -7   1   6    5.85    0.67
  -6   1   6   -0.04    0.33
  -6   1   6   -0.10    0.36
  -5   1   6    0.39    0.35
   4  -1  -6    3.03    0.51
  -4   1   6    2.21    0.38
   3  -1  -6    1.24    0.37
  -3   1   6    0.68    0.27
  -3   1   6    0.41    0.16
  -2   1   6   13.00    0.48
  -2   1   6   12.70    0.58
   1  -1  -6    8.28    0.28
  -1   1   6    7.82    0.37
  -1   1   6    7.29    0.41
   0  -1  -6    1.89    0.17
   0   1   6    1.79    0.20
   0   1   6    1.97    0.20
  -1  -1  -6   47.82    1.24
   1   1   6   49.62    1.25
   1   1   6   48.99    1.19
   1   1   6   50.87    1.24
  -2  -1  -6    6.95    0.31
  -2  -1  -6    7.13    0.36
   2   1   6    7.07    0.21
   2   1   6    7.13    0.34
   2   1   6    6.77    0.31
  -3  -1  -6   23.53    0.75
  -3  -1  -6   24.17    0.65
   3   1   6   24.97    0.65
   3   1   6   23.85    0.63
   3   1   6   24.12    0.75
  -4  -1  -6    1.74    0.17
  -4  -1  -6    1.70    0.23
   4   1   6    1.93    0.14
   4   1   6    1.93    0.26
   4   1   6    2.59    0.21
  -5  -1  -6   13.55    0.48
  -5  -1  -6   13.92    0.56
   5   1   6   13.72    0.64
   5   1   6   14.26    0.57
   6   1   6    1.41    0.32
   7   1   6    1.30    0.36
   8   1   6    0.59    0.38
  -6   2   6   14.14    0.84
  -6   2   6   14.71    0.94
  -5   2   6    1.71    0.38
  -5   2   6    2.06    0.44
  -4   2   6   44.00    1.39
  -4   2   6   42.10    1.30
  -3   2   6    1.33    0.32
  -3   2   6    1.35    0.19
  -2   2   6   37.69    1.14
  -2   2   6   38.29    1.00
   1  -2  -6    2.25    0.17
  -1   2   6    2.03    0.25
  -1   2   6    2.08    0.19
   0  -2  -6   31.93    0.82
   0   2   6   31.57    0.85
   0   2   6   31.46    0.88
  -1  -2  -6    0.20    0.12
   1   2   6    0.24    0.11
   1   2   6    0.17    0.08
   1   2   6   -0.04    0.10
  -2  -2  -6  155.71    3.56
   2   2   6  157.26    3.50
   2   2   6  155.94    3.49
   2   2   6  152.45    3.45
  -3  -2  -6   70.95    1.66
  -3  -2  -6   69.66    1.78
   3   2   6   73.85    1.62
   3   2   6   71.37    1.73
   3   2   6   73.10    1.68
  -4  -2  -6  135.51    3.07
  -4  -2  -6  129.98    3.22
   4   2   6  143.17    3.17
   4   2   6  137.95    3.22
   4   2   6  143.23    3.08
  -5  -2  -6    0.16    0.12
  -5  -2  -6    0.21    0.19
   5   2   6    0.17    0.18
   5   2   6    0.31    0.22
   6   2   6    2.09    0.31
   6   2   6    1.61    0.30
   7   2   6    0.91    0.33
   8   2   6   15.65    0.85
   9   2   6    7.51    0.69
  -6   3   6    3.39    0.57
  -6   3   6    4.38    0.57
  -5   3   6    1.18    0.42
  -5   3   6    0.66    0.38
  -4   3   6   68.47    1.88
  -4   3   6   66.87    1.92
  -3   3   6    0.49    0.26
  -3   3   6    0.42    0.30
  -2   3   6  191.31    4.50
  -2   3   6  195.95    4.55
  -2   3   6  197.21    4.39
   1  -3  -6    2.06    0.16
  -1   3   6    2.13    0.28
  -1   3   6    2.01    0.20
   0  -3  -6  134.83    3.02
   0   3   6  131.18    3.03
   0   3   6  132.44    3.10
  -1  -3  -6    6.09    0.30
   1   3   6    5.78    0.31
   1   3   6    5.72    0.28
  -2  -3  -6  537.58   11.88
   2   3   6  552.09   11.84
   2   3   6  532.54   11.84
   2   3   6  539.56   11.79
  -3  -3  -6  132.90    3.07
   3   3   6  128.39    3.01
   3   3   6  131.96    2.97
   3   3   6  134.52    2.99
  -4  -3  -6   67.11    1.70
   4   3   6   67.73    1.68
   4   3   6   67.43    1.59
   4   3   6   68.38    1.69
   4   3   6   69.02    1.59
  -5  -3  -6   19.26    0.69
   5   3   6   20.04    0.69
   5   3   6   20.51    0.72
   5   3   6   20.30    0.52
  -6  -3  -6   91.58    2.28
   6   3   6   94.23    2.35
   6   3   6   92.30    2.32
   7   3   6   55.87    1.62
   7   3   6   56.50    1.64
   8   3   6   25.41    1.07
   9   3   6    7.86    0.68
  -5   4   6    1.67    0.47
  -5   4   6    1.43    0.45
  -4   4   6   52.03    1.63
  -4   4   6   53.89    1.62
  -3   4   6    6.64    0.57
  -3   4   6    7.22    0.56
  -2   4   6   78.33    2.07
  -2   4   6   82.07    1.92
  -2   4   6   76.75    2.03
   1  -4  -6   10.40    0.40
  -1   4   6   11.50    0.56
  -1   4   6   10.33    0.50
  -1   4   6   10.69    0.44
   0  -4  -6  175.29    3.97
   0   4   6  173.29    4.06
   0   4   6  182.05    3.99
   0   4   6  171.81    4.01
  -1  -4  -6   18.86    0.61
   1   4   6   18.86    0.64
   1   4   6   19.48    0.60
   1   4   6   18.97    0.58
  -2  -4  -6  102.94    2.42
   2   4   6  100.73    2.38
   2   4   6  105.20    2.34
   2   4   6  101.07    2.41
  -3  -4  -6   87.03    2.10
   3   4   6   86.94    2.04
   3   4   6   90.21    1.95
   3   4   6   84.49    2.03
   3   4   6   86.26    2.05
  -4  -4  -6  182.65    4.24
   4   4   6  186.43    4.22
   4   4   6  186.23    4.16
   4   4   6  186.90    4.18
  -5  -4  -6  122.99    2.92
   5   4   6  122.62    2.79
   5   4   6  124.23    2.94
   5   4   6  125.98    2.86
   5   4   6  121.28    2.95
  -6  -4  -6  102.54    2.47
   6   4   6  100.18    2.53
   6   4   6  103.53    2.55
   7   4   6   10.08    0.64
   7   4   6   11.04    0.63
   8   4   6   40.94    1.41
   8   4   6   44.24    1.41
   9   4   6   19.26    0.98
  -4   5   6   26.84    1.13
  -4   5   6   26.27    1.14
  -3   5   6    0.15    0.33
  -3   5   6   -0.36    0.31
  -2   5   6   18.57    0.82
  -2   5   6   18.45    0.66
  -2   5   6   16.87    0.78
   1  -5  -6   15.63    0.58
  -1   5   6   14.51    0.57
  -1   5   6   13.03    0.64
  -1   5   6   13.21    0.67
   0  -5  -6   54.82    1.39
   0   5   6   54.67    1.40
   0   5   6   54.81    1.45
   0   5   6   51.44    1.48
  -1  -5  -6   23.20    0.74
   1   5   6   23.40    0.73
   1   5   6   23.92    0.74
   1   5   6   23.23    0.80
  -2  -5  -6  121.21    2.89
   2   5   6  122.79    2.83
   2   5   6  125.03    2.87
   2   5   6  122.59    2.90
  -3  -5  -6   77.99    1.90
   3   5   6   74.81    1.88
   3   5   6   75.77    1.85
   3   5   6   77.15    1.77
  -4  -5  -6   15.42    0.59
   4   5   6   14.23    0.54
   4   5   6   14.33    0.51
   4   5   6   14.25    0.54
  -5  -5  -6   16.57    0.65
   5   5   6   16.89    0.54
   5   5   6   16.06    0.69
   5   5   6   18.43    0.62
   5   5   6   17.43    0.66
  -6  -5  -6   26.52    0.85
   6   5   6   25.87    0.90
   6   5   6   24.46    0.92
   6   5   6   26.53    0.84
  -7  -5  -6   54.15    1.46
   7   5   6   53.71    1.57
   7   5   6   53.33    1.60
   8   5   6   -0.02    0.32
   8   5   6    0.04    0.32
   9   5   6   22.42    1.09
   9   5   6   19.38    1.01
  -3   6   6    5.97    0.61
  -3   6   6    5.54    0.59
  -2   6   6    6.80    0.60
  -2   6   6    6.27    0.51
  -2   6   6    7.43    0.66
  -1   6   6    0.55    0.29
  -1   6   6    0.29    0.23
  -1   6   6    0.15    0.31
   0  -6  -6   22.63    0.77
   0   6   6   22.67    0.88
   0   6   6   22.50    0.83
   0   6   6   22.18    0.78
  -1  -6  -6    5.33    0.42
   1   6   6    4.98    0.37
   1   6   6    3.69    0.34
   1   6   6    4.79    0.41
  -2  -6  -6    1.04    0.24
   2   6   6    0.94    0.21
   2   6   6    0.99    0.22
   2   6   6    0.86    0.26
  -3  -6  -6    3.42    0.33
   3   6   6    4.50    0.30
   3   6   6    3.78    0.32
   3   6   6    4.32    0.37
  -4  -6  -6    4.17    0.36
   4   6   6    4.06    0.34
   4   6   6    4.45    0.36
  -5  -6  -6   39.93    1.16
   5   6   6   38.95    1.24
   5   6   6   38.52    1.06
   5   6   6   39.16    1.14
  -6  -6  -6    0.93    0.26
   6   6   6    0.57    0.25
   6   6   6    1.39    0.32
   6   6   6    0.69    0.18
   6   6   6    0.84    0.32
  -7  -6  -6    4.86    0.41
   7   6   6    4.31    0.49
   7   6   6    5.01    0.48
   8   6   6    3.63    0.50
   8   6   6    2.97    0.48
   9   6   6    7.75    0.69
   9   6   6    9.87    0.82
  -2   7   6   -0.19    0.38
  -2   7   6    0.32    0.41
  -1   7   6   -0.21    0.35
  -1   7   6    0.17    0.27
  -1   7   6    0.05    0.34
   0   7   6    3.65    0.43
   0   7   6    4.32    0.48
   0   7   6    3.55    0.38
  -1  -7  -6    1.06    0.28
   1   7   6    1.57    0.30
   1   7   6    1.24    0.34
   1   7   6    1.87    0.32
  -2  -7  -6    2.19    0.33
   2   7   6    2.96    0.34
   2   7   6    2.13    0.35
   2   7   6    2.79    0.31
  -3  -7  -6    0.14    0.24
   3   7   6    0.17    0.21
   3   7   6   -0.27    0.24
  -4  -7  -6    9.37    0.59
   4   7   6    9.59    0.51
   4   7   6    9.14    0.56
  -5  -7  -6   12.42    0.65
   5   7   6   12.07    0.54
   5   7   6   11.76    0.62
  -6  -7  -6    0.94    0.30
   6   7   6    1.39    0.36
   6   7   6    1.11    0.22
   6   7   6    0.95    0.30
  -7  -7  -6    1.48    0.33
   7   7   6    1.28    0.39
   7   7   6    1.25    0.34
  -8  -7  -6    0.13    0.29
   8   7   6    0.23    0.39
   9   7   6    8.19    0.75
   0   8   6   15.67    0.80
   0   8   6   16.18    0.91
   0   8   6   16.70    0.88
  -1  -8  -6    2.73    0.39
   1   8   6    3.42    0.43
   1   8   6    3.05    0.47
   1   8   6    3.51    0.41
  -2  -8  -6    6.01    0.49
   2   8   6    6.42    0.49
   2   8   6    5.86    0.55
   2   8   6    5.89    0.54
  -3  -8  -6   11.71    0.69
   3   8   6   12.45    0.66
   3   8   6   12.51    0.72
  -4  -8  -6    0.55    0.30
   4   8   6    0.63    0.27
   4   8   6    0.64    0.32
  -5  -8  -6   17.24    0.80
   5   8   6   16.22    0.69
   5   8   6   15.05    0.79
  -6  -8  -6    9.46    0.68
   6   8   6    9.74    0.53
   6   8   6    8.93    0.67
   6   8   6    8.57    0.68
  -7  -8  -6   16.71    0.82
   7   8   6   15.23    0.91
   7   8   6   17.20    0.85
  -8  -8  -6   -0.34    0.31
   8   8   6   -0.07    0.40
   1   9   6   13.87    0.82
   1   9   6   13.14    0.86
   1   9   6   12.34    0.92
  -2  -9  -6    0.96    0.38
   2   9   6    1.02    0.37
   2   9   6    1.97    0.46
  -3  -9  -6   16.84    0.87
   3   9   6   17.20    0.82
   3   9   6   14.82    0.87
  -4  -9  -6   15.50    0.83
   4   9   6   14.37    0.76
   4   9   6   14.25    0.81
  -5  -9  -6   32.87    1.19
   5   9   6   30.67    1.20
   5   9   6   32.64    1.28
   5   9   6   32.02    1.08
  -6  -9  -6    0.31    0.36
   6   9   6    0.22    0.28
   6   9   6    0.14    0.40
   6   9   6    0.91    0.39
  -7  -9  -6   18.77    0.94
   7   9   6   19.56    0.97
   7   9   6   18.90    1.05
   4   8  -7    2.42    0.43
   4   8  -7    2.33    0.56
  -4  -8   7    2.10    0.52
   3   8  -7    5.28    0.54
   3   8  -7    5.76    0.60
   3   8  -7    5.03    0.64
  -3  -8   7    6.13    0.65
   2   8  -7    0.32    0.36
   2   8  -7   -0.48    0.35
   2   8  -7    0.76    0.46
  -2  -8   7    0.34    0.43
   6   7  -7    3.01    0.54
  -6  -7   7    3.43    0.50
   5   7  -7    3.94    0.59
   5   7  -7    3.78    0.52
  -5  -7   7    4.02    0.51
   4   7  -7    9.89    0.65
   4   7  -7   10.75    0.75
   4   7  -7   11.80    0.89
  -4  -7   7   11.43    0.78
   3   7  -7    0.20    0.30
   3   7  -7   -0.05    0.39
   3   7  -7    0.01    0.34
  -3  -7   7   -0.22    0.35
   2   7  -7   14.20    0.75
   2   7  -7   12.42    0.75
   2   7  -7   14.44    0.89
  -2  -7   7   15.74    0.90
   1   7  -7    0.07    0.32
   1   7  -7    0.25    0.32
   1   7  -7    0.44    0.41
  -1  -7   7    0.40    0.41
   0   7  -7   20.88    0.96
   0   7  -7   21.33    1.08
   0  -7   7   22.32    1.13
  -1   7  -7    1.49    0.41
  -1   7  -7    1.45    0.51
   1  -7   7    1.20    0.56
   7   6  -7    7.56    0.74
   6   6  -7   46.70    1.79
   6   6  -7   49.70    1.64
  -6  -6   7   45.71    1.45
   5   6  -7    2.83    0.46
   5   6  -7    2.91    0.50
  -5  -6   7    2.71    0.41
   4   6  -7   61.67    1.66
   4   6  -7   59.34    1.72
   4   6  -7   60.54    1.88
  -4  -6   7   58.53    1.72
   3   6  -7   25.60    0.92
   3   6  -7   25.63    0.93
   3   6  -7   26.71    1.00
   3   6  -7   25.46    1.08
  -3  -6   7   25.44    1.02
   2   6  -7   48.68    1.42
   2   6  -7   46.03    1.53
   2   6  -7   49.70    1.45
  -2  -6   7   49.51    1.53
   1   6  -7   27.47    1.01
   1   6  -7   30.24    1.02
   1   6  -7   29.37    1.15
  -1  -6   7   31.74    1.16
   0   6  -7   36.53    1.20
   0   6  -7   36.87    1.15
   0   6  -7   37.74    1.32
   0  -6   7   37.21    1.34
  -1   6  -7    5.41    0.57
  -1   6  -7    5.54    0.49
   1  -6   7    5.54    0.60
  -2   6  -7   10.07    0.72
  -2   6  -7   12.16    0.88
   2  -6   7   11.78    0.95
   7   5  -7    3.71    0.60
   6   5  -7   46.89    1.59
   5   5  -7   21.32    0.96
   5   5  -7   23.54    1.00
  -5  -5   7   23.26    0.87
   4   5  -7   23.02    1.01
   4   5  -7   23.25    0.91
   4   5  -7   22.82    0.80
  -4  -5   7   22.78    0.87
   3   5  -7   47.60    1.39
   3   5  -7   49.61    1.57
   3   5  -7   52.62    1.44
  -3  -5   7   51.59    1.47
   2   5  -7   24.38    0.86
   2   5  -7   20.85    0.80
   2   5  -7   23.93    0.79
   2   5  -7   22.54    0.93
  -2  -5   7   23.46    0.90
   1   5  -7   30.43    0.97
   1   5  -7   29.04    1.06
   1   5  -7   29.69    0.98
  -1  -5   7   30.41    1.08
   0   5  -7   27.62    1.03
   0   5  -7   27.66    0.89
   0   5  -7   28.03    0.95
   0  -5   7   26.88    1.06
  -1   5  -7   63.46    1.72
  -1   5  -7   62.92    1.64
  -1   5  -7   62.72    1.82
   1  -5   7   64.14    1.89
  -2   5  -7    0.61    0.30
  -2   5  -7    0.94    0.38
   2  -5   7    0.59    0.35
   2  -5   7    1.06    0.45
  -3   5  -7   30.20    1.07
  -3   5  -7   29.24    1.16
   3  -5   7   26.93    1.25
  -4   5  -7    4.17    0.57
  -4   5  -7    4.61    0.52
   4  -5   7    4.27    0.62
   8   4  -7   17.25    1.20
   7   4  -7   13.92    1.00
   6   4  -7   10.22    0.79
   5   4  -7   11.94    0.75
  -5  -4   7   13.02    0.61
   4   4  -7   28.10    0.85
   4   4  -7   27.68    1.00
   4   4  -7   27.96    1.07
  -4  -4   7   27.81    0.92
   3   4  -7   54.66    1.65
   3   4  -7   56.33    1.48
   3   4  -7   56.83    1.53
  -3  -4   7   54.81    1.52
   2   4  -7    4.66    0.39
   2   4  -7    4.24    0.44
   2   4  -7    4.63    0.39
  -2  -4   7    4.45    0.40
   1   4  -7   52.30    1.53
   1   4  -7   53.98    1.44
   1   4  -7   55.51    1.43
   1   4  -7   53.63    1.36
  -1  -4   7   52.23    1.51
   0   4  -7    5.83    0.52
   0   4  -7    6.17    0.40
   0   4  -7    6.65    0.45
   0  -4   7    5.37    0.46
  -1   4  -7   47.12    1.39
  -1   4  -7   44.48    1.30
  -1   4  -7   46.54    1.22
   1  -4   7   47.15    1.46
  -2   4  -7    0.99    0.32
  -2   4  -7    0.57    0.25
   2  -4   7    0.47    0.38
   2  -4   7    1.27    0.35
  -3   4  -7   29.44    1.07
  -3   4  -7   30.10    1.00
   3  -4   7   29.19    1.22
  -4   4  -7    1.12    0.39
  -4   4  -7    0.77    0.31
   4  -4   7    0.55    0.41
  -5   4  -7    5.37    0.60
   5  -4   7    5.20    0.62
   8   3  -7    0.23    0.54
   7   3  -7   14.05    1.03
   6   3  -7   24.40    1.11
   5   3  -7    7.79    0.67
  -5  -3   7    8.59    0.53
   4   3  -7   -0.03    0.27
   4   3  -7    0.33    0.27
  -4  -3   7    0.35    0.21
   3   3  -7    0.72    0.25
   3   3  -7    0.73    0.20
   3   3  -7    0.54    0.28
  -3  -3   7    0.82    0.23
   2   3  -7    0.71    0.19
   2   3  -7    0.02    0.25
   2   3  -7    0.28    0.19
  -2  -3   7    0.37    0.21
   1   3  -7    0.22    0.16
   1   3  -7    0.26    0.18
   1   3  -7    0.22    0.24
  -1  -3   7    0.31    0.22
   0   3  -7    0.39    0.24
   0   3  -7    0.58    0.14
   0   3  -7    0.37    0.16
   0   3  -7    0.42    0.19
   0  -3   7    0.01    0.22
  -1   3  -7   47.27    1.26
  -1   3  -7   44.55    1.31
  -1   3  -7   45.70    1.17
   1  -3   7   47.24    1.42
  -2   3  -7    7.89    0.46
  -2   3  -7    7.45    0.35
  -2   3  -7    7.54    0.52
   2  -3   7    7.28    0.56
   2  -3   7    7.04    0.64
  -3   3  -7    0.86    0.29
  -3   3  -7    1.06    0.25
   3  -3   7    1.01    0.36
   3  -3   7    0.77    0.26
  -4   3  -7    0.32    0.30
  -4   3  -7    0.30    0.24
   4  -3   7    0.00    0.33
  -5   3  -7    0.45    0.35
   5  -3   7    0.72    0.41
  -6   3  -7    5.46    0.57
   6  -3   7    5.45    0.63
   8   2  -7    0.93    0.59
  -8  -2   7    0.82    0.51
   7   2  -7    0.77    0.51
   6   2  -7   13.94    0.91
   5   2  -7    8.15    0.69
   4   2  -7   11.57    0.67
  -4  -2   7   11.12    0.48
   3   2  -7    4.45    0.26
   3   2  -7    3.53    0.36
   3   2  -7    3.16    0.36
  -3  -2   7    3.25    0.28
   2   2  -7    3.91    0.31
   2   2  -7    3.98    0.34
   2   2  -7    4.73    0.42
  -2  -2   7    4.85    0.35
   1   2  -7   41.77    1.14
   1   2  -7   43.30    1.24
   1   2  -7   42.73    1.12
  -1  -2   7   41.96    1.19
   0   2  -7    6.68    0.37
   0   2  -7    7.27    0.44
   0   2  -7    6.48    0.30
   0  -2   7    6.18    0.45
  -1   2  -7   65.02    1.64
  -1   2  -7   64.34    1.60
  -1   2  -7   60.73    1.50
   1  -2   7   62.98    1.73
  -2   2  -7    0.22    0.17
  -2   2  -7    0.19    0.21
  -2   2  -7    0.31    0.12
   2  -2   7    0.11    0.28
   2  -2   7    0.31    0.23
  -3   2  -7   32.13    0.98
  -3   2  -7   31.28    0.93
   3  -2   7   31.45    0.97
   3  -2   7   30.89    1.13
  -4   2  -7   -0.01    0.25
  -4   2  -7    0.01    0.20
   4  -2   7    0.16    0.30
  -5   2  -7   28.11    0.99
   5  -2   7   28.48    1.13
  -6   2  -7    2.34    0.41
   6  -2   7    3.40    0.52
   7   1  -7   33.45    1.55
  -7  -1   7   31.67    1.38
   6   1  -7    0.20    0.43
  -6  -1   7    0.63    0.41
   5   1  -7    9.06    0.76
   4   1  -7    4.39    0.49
  -4  -1   7    4.54    0.34
   3   1  -7  262.80    5.99
  -3  -1   7  253.90    5.79
   2   1  -7    4.72    0.40
   2   1  -7    4.97    0.41
   2   1  -7    4.54    0.27
  -2  -1   7    5.04    0.34
   1   1  -7  129.27    3.14
   1   1  -7  139.29    3.12
  -1  -1   7  133.16    3.16
   0   1  -7    9.27    0.39
   0   1  -7    9.75    0.42
   0   1  -7    8.85    0.45
  -1   1  -7  110.19    2.69
  -1   1  -7  115.27    2.71
   1  -1   7  118.90    2.81
  -2   1  -7    0.44    0.16
  -2   1  -7    0.58    0.18
   2  -1   7    1.24    0.24
   2  -1   7    0.53    0.26
  -3   1  -7  113.86    2.68
  -3   1  -7  112.62    2.67
   3  -1   7  106.97    2.82
   3  -1   7  117.91    2.68
  -4   1  -7   13.37    0.55
  -4   1  -7   14.47    0.59
   4  -1   7   13.52    0.72
  -5   1  -7   22.40    0.78
  -5   1  -7   20.75    0.74
   5  -1   7   20.28    0.91
  -6   1  -7    4.67    0.43
   6  -1   7    2.91    0.46
   7  -1   7   27.46    1.18
   7   0  -7   21.48    1.28
  -7   0   7   18.50    1.09
  -7   0   7   18.58    0.95
   6   0  -7   17.16    1.09
  -6   0   7   16.03    0.96
   5   0  -7  202.84    4.97
  -5   0   7  191.46    4.81
   4   0  -7    9.47    0.74
  -4   0   7   10.25    0.70
   3   0  -7  142.04    3.50
  -3   0   7  136.43    3.25
   2   0  -7   35.17    0.85
   2   0  -7   34.56    1.13
  -2   0   7   34.94    1.01
   1   0  -7  238.12    5.50
   1   0  -7  258.02    5.66
  -1   0   7  243.59    5.59
   0   0  -7    0.16    0.14
   0   0  -7    0.01    0.16
   0   0   7    0.51    0.18
  -1   0  -7  412.66    9.06
  -1   0  -7  411.00    9.08
   1   0   7  400.97    9.10
  -2   0  -7    5.46    0.33
  -2   0  -7    4.65    0.30
   2   0   7    5.30    0.35
   2   0   7    4.95    0.39
  -3   0  -7  115.93    2.68
  -3   0  -7  112.07    2.72
   3   0   7  114.77    2.82
   3   0   7  118.39    2.69
  -4   0  -7    9.85    0.46
  -4   0  -7   10.06    0.44
   4   0   7    9.63    0.57
   4   0   7    9.76    0.34
  -5   0  -7   68.01    1.75
  -5   0  -7   69.71    1.72
   5   0   7   68.05    1.88
  -6   0  -7   89.48    2.20
   6   0   7   88.18    2.40
   7   0   7   12.63    0.82
   8   0   7    3.78    0.56
  -7   1   7   44.56    1.67
  -7   1   7   45.73    1.56
  -6   1   7   -0.11    0.33
  -6   1   7   -0.58    0.38
  -5   1   7   48.87    1.61
  -4   1   7   36.52    1.28
  -3   1   7  138.60    3.39
  -3   1   7  135.62    3.19
  -2   1   7    9.05    0.43
   1  -1  -7  133.31    2.87
  -1   1   7  119.47    2.96
  -1   1   7  126.20    3.03
   0  -1  -7   36.20    0.95
   0   1   7   34.04    0.99
   0   1   7   35.92    0.99
  -1  -1  -7  120.66    2.82
  -1  -1  -7  117.43    2.83
   1   1   7  120.15    2.83
   1   1   7  124.64    2.77
  -2  -1  -7   20.33    0.68
  -2  -1  -7   18.99    0.62
   2   1   7   21.11    0.67
   2   1   7   20.59    0.52
   2   1   7   21.40    0.64
  -3  -1  -7  206.40    4.80
  -3  -1  -7  205.71    4.68
   3   1   7  215.97    4.69
   3   1   7  214.50    4.80
   3   1   7  205.57    4.63
  -4  -1  -7   70.65    1.82
  -4  -1  -7   70.36    1.70
   4   1   7   71.20    1.65
   4   1   7   73.91    1.86
   4   1   7   71.10    1.69
  -5  -1  -7   34.20    1.05
  -5  -1  -7   34.31    0.94
   5   1   7   36.85    1.13
   6   1   7    5.78    0.51
   7   1   7    4.92    0.52
   8   1   7   24.06    1.07
  -6   2   7    8.21    0.74
  -6   2   7    8.44    0.74
  -5   2   7   15.03    0.79
  -5   2   7   15.98    0.90
  -4   2   7   21.02    0.95
  -3   2   7   19.90    0.66
  -3   2   7   20.71    0.87
  -2   2   7    4.60    0.42
  -2   2   7    3.98    0.32
   1  -2  -7  207.78    4.60
  -1   2   7  207.40    4.68
  -1   2   7  206.15    4.77
   0  -2  -7   16.34    0.51
   0   2   7   16.12    0.58
   0   2   7   16.18    0.55
  -1  -2  -7   17.40    0.59
   1   2   7   19.97    0.53
   1   2   7   19.54    0.59
   1   2   7   18.48    0.59
  -2  -2  -7   42.40    1.15
   2   2   7   43.57    1.09
   2   2   7   41.87    1.03
   2   2   7   42.53    1.08
  -3  -2  -7   16.34    0.50
  -3  -2  -7   15.22    0.60
   3   2   7   15.98    0.50
   3   2   7   17.09    0.43
   3   2   7   17.36    0.56
  -4  -2  -7   39.69    1.16
  -4  -2  -7   39.02    1.01
   4   2   7   42.29    1.07
   4   2   7   41.84    1.15
   4   2   7   42.32    1.01
  -5  -2  -7   40.32    1.20
  -5  -2  -7   39.81    1.18
   5   2   7   43.46    1.13
   5   2   7   41.98    1.22
  -6  -2  -7    3.43    0.35
   6   2   7    3.14    0.39
   6   2   7    3.91    0.38
   7   2   7    1.05    0.35
   8   2   7    1.97    0.44
   9   2   7    2.01    0.50
  -6   3   7    1.29    0.48
  -6   3   7    1.13    0.50
  -5   3   7   12.29    0.86
  -5   3   7   12.57    0.81
  -4   3   7    6.16    0.54
  -4   3   7    6.68    0.61
  -3   3   7   11.51    0.69
  -3   3   7   10.69    0.62
  -2   3   7    0.63    0.18
  -2   3   7    0.34    0.27
   1  -3  -7   30.04    0.77
  -1   3   7   29.13    0.83
  -1   3   7   27.73    0.94
   0  -3  -7   14.46    0.48
   0   3   7   15.09    0.58
   0   3   7   14.27    0.51
  -1  -3  -7   12.49    0.46
   1   3   7   12.13    0.45
   1   3   7   12.35    0.47
  -2  -3  -7   20.85    0.66
   2   3   7   20.07    0.61
   2   3   7   21.90    0.61
   2   3   7   19.75    0.55
  -3  -3  -7   19.98    0.66
   3   3   7   19.46    0.57
   3   3   7   19.76    0.55
   3   3   7   17.96    0.58
  -4  -3  -7    1.50    0.24
   4   3   7    1.24    0.21
   4   3   7    1.28    0.15
   4   3   7    1.03    0.14
  -5  -3  -7   28.12    0.92
   5   3   7   28.65    0.91
   5   3   7   29.15    0.73
   5   3   7   28.50    0.87
  -6  -3  -7    5.81    0.46
   6   3   7    5.70    0.43
   6   3   7    5.50    0.49
   7   3   7    4.85    0.49
   7   3   7    5.41    0.48
   8   3   7    0.22    0.37
   9   3   7    0.43    0.42
  -5   4   7    2.36    0.49
  -5   4   7    3.51    0.57
  -4   4   7    3.46    0.50
  -4   4   7    3.96    0.50
  -3   4   7   33.46    1.16
  -3   4   7   34.87    1.21
  -2   4   7   14.60    0.73
  -2   4   7   16.34    0.58
  -2   4   7   14.93    0.68
   1  -4  -7   17.64    0.55
  -1   4   7   17.17    0.73
  -1   4   7   17.44    0.68
  -1   4   7   18.29    0.62
   0  -4  -7    5.76    0.33
   0   4   7    5.58    0.43
   0   4   7    5.61    0.38
   0   4   7    6.25    0.36
  -1  -4  -7   40.95    1.08
   1   4   7   37.90    1.04
   1   4   7   40.13    1.11
   1   4   7   40.53    1.06
  -2  -4  -7   46.29    1.22
   2   4   7   46.55    1.13
   2   4   7   47.08    1.18
   2   4   7   44.41    1.08
   2   4   7   44.64    1.19
  -3  -4  -7   57.99    1.49
   3   4   7   58.25    1.33
   3   4   7   57.53    1.42
   3   4   7   56.25    1.40
   3   4   7   57.07    1.42
  -4  -4  -7   47.36    1.27
   4   4   7   45.81    1.22
   4   4   7   46.54    1.17
   4   4   7   45.53    1.17
  -5  -4  -7   48.00    1.30
   5   4   7   45.46    1.28
   5   4   7   46.65    1.29
   5   4   7   45.12    1.14
   5   4   7   46.78    1.18
  -6  -4  -7   14.19    0.62
   6   4   7   13.62    0.63
   6   4   7   13.07    0.64
   7   4   7    9.17    0.63
   7   4   7    9.52    0.62
   8   4   7   27.28    1.07
   8   4   7   26.80    1.13
   9   4   7    1.61    0.47
  -4   5   7   21.21    1.04
  -4   5   7   21.12    1.04
  -3   5   7   10.91    0.74
  -3   5   7    8.83    0.72
  -2   5   7    4.79    0.48
  -2   5   7    2.76    0.31
  -2   5   7    3.53    0.42
  -1   5   7   97.48    2.54
  -1   5   7  103.89    2.61
  -1   5   7  105.48    2.47
   0  -5  -7  107.03    2.49
   0   5   7  102.87    2.50
   0   5   7  104.79    2.55
   0   5   7  104.11    2.60
  -1  -5  -7   10.40    0.49
   1   5   7   11.87    0.48
   1   5   7   10.88    0.49
   1   5   7   11.18    0.55
  -2  -5  -7  128.04    3.06
   2   5   7  134.06    3.04
   2   5   7  128.58    3.08
   2   5   7  130.37    2.99
  -3  -5  -7   23.02    0.76
   3   5   7   22.91    0.71
   3   5   7   22.29    0.73
   3   5   7   22.64    0.62
  -4  -5  -7   80.36    2.01
   4   5   7   78.77    1.93
   4   5   7   80.40    1.96
   4   5   7   80.89    1.95
  -5  -5  -7    5.49    0.43
   5   5   7    5.60    0.32
   5   5   7    6.44    0.38
   5   5   7    6.58    0.44
   5   5   7    6.17    0.48
  -6  -5  -7  133.98    3.22
   6   5   7  132.06    3.25
   6   5   7  133.71    3.29
   6   5   7  138.75    3.25
  -7  -5  -7    5.59    0.47
   7   5   7    5.43    0.49
   7   5   7    5.86    0.50
   8   5   7   32.82    1.21
   8   5   7   32.06    1.18
   9   5   7    0.83    0.43
  -3   6   7   21.47    1.06
  -3   6   7   23.24    1.07
  -2   6   7   38.37    1.16
  -2   6   7   36.70    1.30
  -2   6   7   38.69    1.33
  -1   6   7   11.27    0.58
  -1   6   7   10.82    0.71
  -1   6   7   11.74    0.68
   0  -6  -7   25.58    0.82
   0   6   7   22.98    0.87
   0   6   7   24.83    0.84
   0   6   7   25.23    0.95
  -1  -6  -7   21.33    0.75
   1   6   7   20.75    0.82
   1   6   7   20.62    0.75
   1   6   7   21.30    0.75
  -2  -6  -7   54.05    1.47
   2   6   7   56.72    1.42
   2   6   7   53.02    1.49
   2   6   7   54.07    1.45
  -3  -6  -7    1.51    0.27
   3   6   7    1.60    0.27
   3   6   7    1.33    0.24
  -4  -6  -7   93.59    2.33
   4   6   7   95.74    2.26
   4   6   7   91.11    2.30
  -5  -6  -7    1.33    0.28
   5   6   7    1.00    0.25
   5   6   7    0.95    0.20
  -6  -6  -7   77.17    1.98
   6   6   7   75.07    1.95
   6   6   7   73.24    2.05
   6   6   7   76.48    1.83
   6   6   7   77.78    2.00
  -7  -6  -7    3.77    0.39
   7   6   7    3.81    0.44
   7   6   7    3.81    0.47
   8   6   7   57.38    1.77
   8   6   7   60.92    1.84
   9   6   7    1.88    0.48
   9   6   7    1.11    0.45
  -2   7   7    0.22    0.41
  -2   7   7    0.05    0.38
  -1   7   7   10.56    0.78
  -1   7   7    8.64    0.61
  -1   7   7    9.45    0.71
   0   7   7   26.86    1.01
   0   7   7   27.51    0.97
   0   7   7   29.21    1.10
  -1  -7  -7    0.05    0.24
   1   7   7    0.12    0.26
   1   7   7    0.04    0.25
   1   7   7    0.41    0.31
  -2  -7  -7   13.32    0.63
   2   7   7   12.22    0.61
   2   7   7   11.57    0.67
   2   7   7   12.28    0.57
  -3  -7  -7    0.13    0.25
   3   7   7    0.53    0.28
   3   7   7    0.12    0.22
  -4  -7  -7   21.58    0.83
   4   7   7   20.85    0.75
   4   7   7   20.21    0.80
  -5  -7  -7    1.03    0.30
   5   7   7    0.66    0.27
   5   7   7    1.12    0.24
  -6  -7  -7   12.76    0.69
   6   7   7   12.70    0.54
   6   7   7   12.26    0.75
   6   7   7   13.20    0.67
  -7  -7  -7    3.95    0.42
   7   7   7    3.99    0.50
  -8  -7  -7    0.68    0.32
   8   7   7    0.74    0.42
   9   7   7    2.44    0.55
   0   8   7    0.67    0.34
   0   8   7    0.81    0.42
   0   8   7    1.38    0.41
  -1  -8  -7    8.56    0.63
   1   8   7    8.93    0.73
   1   8   7    8.45    0.66
   1   8   7    9.12    0.63
  -2  -8  -7    3.03    0.41
   2   8   7    3.29    0.46
   2   8   7    2.89    0.39
  -3  -8  -7   -0.01    0.28
   3   8   7    0.04    0.31
   3   8   7   -0.05    0.26
  -4  -8  -7    0.63    0.31
   4   8   7    0.40    0.30
   4   8   7    0.19    0.26
  -5  -8  -7    1.94    0.38
   5   8   7    1.55    0.36
   5   8   7    1.49    0.29
  -6  -8  -7    0.64    0.33
   6   8   7    0.62    0.25
   6   8   7    1.26    0.41
   6   8   7    0.80    0.33
  -7  -8  -7    0.02    0.32
   7   8   7   -0.04    0.32
   7   8   7    0.15    0.39
  -8  -8  -7    0.76    0.36
   8   8   7    0.88    0.45
  -2  -9  -7    6.89    0.57
   2   9   7    7.51    0.60
   2   9   7    6.39    0.64
  -3  -9  -7   -0.21    0.32
   3   9   7   -0.55    0.29
   3   9   7    0.00    0.37
  -4  -9  -7    9.55    0.74
   4   9   7    8.85    0.73
   4   9   7    9.01    0.66
  -5  -9  -7    1.77    0.41
   5   9   7    1.11    0.40
   5   9   7    1.53    0.35
  -6  -9  -7    4.91    0.53
   6   9   7    3.59    0.55
   6   9   7    5.41    0.56
   6   9   7    4.11    0.41
  -7  -9  -7    0.00    0.36
   7   9   7    0.71    0.44
   7   9   7    0.32    0.38
   6   7  -8    0.56    0.44
  -6  -7   8    0.42    0.39
   5   7  -8    4.68    0.65
   5   7  -8    4.55    0.55
  -5  -7   8    4.30    0.55
   4   7  -8    8.45    0.65
   4   7  -8    9.23    0.79
  -4  -7   8    7.29    0.65
   3   7  -8    2.98    0.43
   3   7  -8    2.79    0.54
  -3  -7   8    2.87    0.50
   2   7  -8    2.31    0.41
   2   7  -8    2.58    0.52
   2   7  -8    2.74    0.45
  -2  -7   8    2.84    0.49
   1   7  -8    0.32    0.35
   1   7  -8    0.49    0.34
   1   7  -8    1.71    0.49
  -1  -7   8    0.43    0.42
   0   7  -8    1.70    0.42
   0   7  -8    0.90    0.49
   0  -7   8    2.07    0.52
   7   6  -8    2.42    0.57
   6   6  -8    0.66    0.44
  -6  -6   8    1.21    0.39
   5   6  -8    9.18    0.83
   5   6  -8   10.11    0.75
  -5  -6   8    9.82    0.71
   4   6  -8   21.74    0.85
   4   6  -8   21.98    1.07
   4   6  -8   21.69    0.92
  -4  -6   8   19.03    0.94
   3   6  -8    0.92    0.30
   3   6  -8    1.12    0.43
  -3  -6   8    0.57    0.36
   2   6  -8    0.55    0.32
   2   6  -8    0.63    0.37
   2   6  -8    0.07    0.28
  -2  -6   8    0.49    0.35
   1   6  -8   18.06    0.80
   1   6  -8   17.86    0.93
   1   6  -8   17.49    0.81
  -1  -6   8   16.96    0.93
   0   6  -8    1.09    0.32
   0   6  -8    1.40    0.44
   0   6  -8    0.47    0.32
   0  -6   8    1.25    0.43
  -1   6  -8    8.87    0.78
  -1   6  -8    9.49    0.71
   1  -6   8    7.85    0.70
  -2   6  -8    2.25    0.43
  -2   6  -8    3.22    0.55
   2  -6   8    2.57    0.59
   7   5  -8    5.28    0.71
   6   5  -8    8.91    0.80
   5   5  -8    0.84    0.38
   5   5  -8    0.57    0.36
  -5  -5   8    0.72    0.31
   4   5  -8    7.75    0.52
   4   5  -8    7.55    0.61
   4   5  -8    9.35    0.74
  -4  -5   8   10.42    0.65
   3   5  -8   15.29    0.68
   3   5  -8   14.68    0.85
   3   5  -8   15.05    0.69
  -3  -5   8   14.31    0.75
   2   5  -8   73.99    2.05
   2   5  -8   68.98    1.88
  -2  -5   8   71.20    1.97
   1   5  -8    0.41    0.26
   1   5  -8    0.05    0.25
   1   5  -8   -0.36    0.31
  -1  -5   8    0.20    0.30
   0   5  -8   36.85    1.11
   0   5  -8   37.67    1.29
   0   5  -8   37.21    1.18
   0  -5   8   37.44    1.32
  -1   5  -8    6.42    0.57
  -1   5  -8    5.05    0.45
   1  -5   8    6.78    0.61
  -2   5  -8   42.31    1.43
  -2   5  -8   39.19    1.30
   2  -5   8   44.45    1.44
   2  -5   8   38.61    1.57
  -3   5  -8    0.15    0.39
  -3   5  -8   -0.24    0.32
   3  -5   8    0.35    0.46
   7   4  -8   10.44    0.94
   6   4  -8   61.32    1.96
   5   4  -8   13.25    0.80
  -5  -4   8   13.42    0.67
   4   4  -8  125.19    3.19
   4   4  -8  129.79    3.28
  -4  -4   8  129.32    3.12
   3   4  -8    0.56    0.22
   3   4  -8    0.12    0.24
   3   4  -8    0.11    0.31
  -3  -4   8    0.25    0.25
   2   4  -8   71.64    1.81
   2   4  -8   69.55    1.83
   2   4  -8   69.43    1.98
  -2  -4   8   71.55    1.90
   1   4  -8    2.85    0.31
   1   4  -8    3.10    0.32
   1   4  -8    2.50    0.39
  -1  -4   8    2.36    0.36
   0   4  -8  252.68    6.09
   0   4  -8  272.46    5.96
   0   4  -8  264.49    6.02
   0  -4   8  265.34    6.16
  -1   4  -8    8.40    0.53
  -1   4  -8    7.84    0.44
  -1   4  -8    7.45    0.57
   1  -4   8    7.56    0.60
  -2   4  -8   24.20    0.89
  -2   4  -8   23.91    0.97
   2  -4   8   22.98    1.11
   2  -4   8   24.14    1.00
  -3   4  -8    0.36    0.34
  -3   4  -8    0.35    0.29
   3  -4   8    0.72    0.44
  -4   4  -8   20.16    0.96
  -4   4  -8   20.71    0.88
   4  -4   8   19.92    1.07
   7   3  -8    5.73    0.72
   6   3  -8   34.54    1.38
   5   3  -8    0.04    0.33
   4   3  -8   20.36    0.88
  -4  -3   8   21.56    0.77
   3   3  -8    5.87    0.51
   3   3  -8    6.02    0.48
   3   3  -8    5.55    0.39
  -3  -3   8    5.72    0.47
   2   3  -8  181.57    4.19
   2   3  -8  177.83    4.18
   2   3  -8  180.49    4.34
  -2  -3   8  183.28    4.24
   1   3  -8   35.47    1.04
   1   3  -8   34.11    0.97
   1   3  -8   35.04    1.13
  -1  -3   8   34.20    1.10
   0   3  -8   21.79    0.82
   0   3  -8   21.56    0.76
   0  -3   8   20.88    0.86
  -1   3  -8    9.04    0.42
  -1   3  -8   10.07    0.52
  -1   3  -8    9.79    0.59
   1  -3   8   10.26    0.66
  -2   3  -8   76.75    2.00
  -2   3  -8   77.15    1.94
   2  -3   8   75.51    2.06
   2  -3   8   72.21    2.20
  -3   3  -8   45.10    1.26
  -3   3  -8   42.58    1.30
   3  -3   8   41.08    1.27
   3  -3   8   39.29    1.47
  -4   3  -8   29.81    1.07
  -4   3  -8   30.54    1.02
   4  -3   8   29.75    1.24
  -5   3  -8   12.08    0.75
   5  -3   8   12.14    0.91
   7   2  -8    4.27    0.71
   6   2  -8   21.89    1.15
   5   2  -8    1.98    0.45
   4   2  -8    8.47    0.62
  -4  -2   8    8.99    0.48
   3   2  -8    7.22    0.53
   3   2  -8    7.09    0.34
   3   2  -8    7.15    0.54
  -3  -2   8    6.70    0.44
   2   2  -8    9.75    0.59
   2   2  -8    9.63    0.52
   2   2  -8   10.52    0.47
  -2  -2   8    9.85    0.52
   1   2  -8    2.11    0.32
   1   2  -8    1.86    0.24
   1   2  -8    2.59    0.26
  -1  -2   8    1.65    0.28
   0   2  -8   54.65    1.45
   0   2  -8   53.90    1.36
   0   2  -8   57.17    1.52
   0  -2   8   55.84    1.57
  -1   2  -8   46.84    1.31
  -1   2  -8   46.24    1.26
   1  -2   8   45.31    1.39
  -2   2  -8    1.95    0.26
  -2   2  -8    1.54    0.28
   2  -2   8    1.16    0.38
   2  -2   8    1.57    0.30
  -3   2  -8    1.72    0.31
  -3   2  -8    1.81    0.27
   3  -2   8    2.45    0.31
   3  -2   8    1.68    0.39
  -4   2  -8   18.25    0.71
  -4   2  -8   17.30    0.74
   4  -2   8   17.03    0.91
  -5   2  -8   14.43    0.68
  -5   2  -8   14.99    0.73
   5  -2   8   13.65    0.88
  -6   2  -8    0.89    0.36
   6  -2   8    1.05    0.43
   7   1  -8    2.74    0.65
  -7  -1   8    2.01    0.55
   6   1  -8    2.02    0.54
  -6  -1   8    1.88    0.50
   5   1  -8   13.74    0.91
   4   1  -8    1.93    0.41
  -4  -1   8    1.15    0.24
   3   1  -8   55.41    1.61
  -3  -1   8   53.03    1.44
   2   1  -8    1.77    0.30
   2   1  -8    1.30    0.18
   2   1  -8    1.56    0.29
  -2  -1   8    1.60    0.25
   1   1  -8   13.06    0.52
   1   1  -8   13.35    0.60
   1   1  -8   13.04    0.57
  -1  -1   8   13.28    0.60
   0   1  -8   80.93    1.94
   0   1  -8   79.75    2.03
   0   1  -8   79.08    1.99
   0  -1   8   79.19    2.07
  -1   1  -8   10.07    0.47
  -1   1  -8    8.97    0.47
   1  -1   8    9.64    0.54
  -2   1  -8    3.67    0.32
  -2   1  -8    3.94    0.32
   2  -1   8    4.55    0.39
   2  -1   8    3.03    0.40
  -3   1  -8   12.41    0.56
  -3   1  -8   12.00    0.53
   3  -1   8   12.28    0.56
   3  -1   8   11.65    0.68
  -4   1  -8   30.59    0.95
  -4   1  -8   30.44    0.94
   4  -1   8   29.39    1.12
  -5   1  -8    0.76    0.25
  -5   1  -8    0.65    0.26
   5  -1   8    1.16    0.37
  -6   1  -8    6.65    0.56
   6  -1   8    7.35    0.65
   7  -1   8    0.98    0.46
  -7   0   8    5.75    0.62
  -7   0   8    6.33    0.75
   6   0  -8   19.53    1.18
  -6   0   8   16.21    1.00
   5   0  -8    0.46    0.42
  -5   0   8   -0.15    0.35
   4   0  -8   29.21    1.20
  -4   0   8   27.73    1.12
   3   0  -8    0.36    0.32
  -3   0   8    0.75    0.23
   2   0  -8   80.37    2.13
   2   0  -8   76.48    1.84
  -2   0   8   81.71    2.01
   1   0  -8   72.19    1.79
   1   0  -8   75.35    1.93
  -1   0   8   73.39    1.89
   0   0  -8   60.21    1.60
   0   0  -8   64.07    1.57
   0   0   8   59.15    1.61
  -1   0  -8    6.39    0.39
  -1   0  -8    5.98    0.39
   1   0   8    6.43    0.43
  -2   0  -8  130.37    3.11
  -2   0  -8  132.95    3.16
   2   0   8  135.23    3.25
   2   0   8  130.66    3.18
   2   0   8  139.07    3.00
  -3   0  -8  197.52    4.47
  -3   0  -8  191.88    4.52
   3   0   8  198.29    4.63
   3   0   8  198.49    4.49
  -4   0  -8   10.11    0.51
  -4   0  -8    9.73    0.47
   4   0   8   10.10    0.61
   4   0   8    9.84    0.39
  -5   0  -8   28.06    0.87
  -5   0  -8   27.66    0.91
   5   0   8   26.21    1.03
   6   0   8   18.60    0.91
   7   0   8   12.93    0.85
   8   0   8    2.77    0.55
  -6   1   8   46.95    1.69
  -6   1   8   48.43    1.56
  -5   1   8    9.57    0.79
  -4   1   8   20.14    0.95
  -3   1   8   62.10    1.84
  -3   1   8   66.49    1.67
   2  -1  -8   36.04    0.84
  -2   1   8   34.59    1.02
  -2   1   8   33.24    1.13
   1  -1  -8   96.92    2.17
  -1   1   8   91.48    2.28
  -1   1   8   89.54    2.32
   0  -1  -8  139.58    3.17
   0   1   8  132.87    3.22
   0   1   8  138.25    3.21
  -1  -1  -8  321.48    7.06
  -1  -1  -8  310.96    7.06
   1   1   8  317.64    7.08
   1   1   8  309.55    6.99
  -2  -1  -8   18.72    0.67
  -2  -1  -8   17.34    0.61
   2   1   8   18.75    0.67
   2   1   8   18.55    0.50
  -3  -1  -8   68.28    1.71
  -3  -1  -8   69.00    1.81
   3   1   8   71.78    1.82
   3   1   8   71.88    1.72
  -4  -1  -8   58.88    1.45
  -4  -1  -8   58.71    1.58
   4   1   8   57.12    1.40
   4   1   8   57.53    1.41
   4   1   8   61.07    1.62
  -5  -1  -8  127.58    3.11
  -5  -1  -8  129.00    2.98
   5   1   8  128.56    3.17
   6   1   8    2.80    0.41
   7   1   8   37.83    1.34
   8   1   8    0.37    0.40
  -6   2   8   10.25    0.84
  -6   2   8    9.01    0.80
  -5   2   8   17.32    0.89
  -5   2   8   16.02    0.95
  -4   2   8   95.06    2.59
  -3   2   8   41.33    1.15
  -3   2   8   41.59    1.36
  -2   2   8  118.34    2.81
  -2   2   8  119.03    2.96
   1  -2  -8   75.60    1.72
  -1   2   8   71.70    1.81
  -1   2   8   71.11    1.90
   0  -2  -8   24.06    0.70
   0   2   8   23.84    0.78
   0   2   8   23.19    0.75
  -1  -2  -8  153.68    3.64
   1   2   8  156.50    3.65
   1   2   8  164.69    3.63
   1   2   8  156.97    3.56
  -2  -2  -8  260.83    6.19
   2   2   8  285.91    6.07
   2   2   8  272.95    6.14
   2   2   8  277.84    6.12
  -3  -2  -8  282.31    6.23
  -3  -2  -8  269.64    6.34
   3   2   8  279.00    6.23
   3   2   8  280.72    6.28
   3   2   8  286.16    6.12
  -4  -2  -8    2.03    0.27
  -4  -2  -8    2.26    0.22
   4   2   8    2.27    0.28
   4   2   8    2.47    0.20
   4   2   8    2.24    0.21
  -5  -2  -8   25.57    0.88
   5   2   8   25.31    0.77
   5   2   8   24.39    0.64
   5   2   8   24.16    0.89
  -6  -2  -8    0.58    0.26
   6   2   8    0.51    0.30
   7   2   8  116.16    3.00
   8   2   8    0.07    0.37
  -5   3   8    8.30    0.68
  -5   3   8   11.46    0.90
  -4   3   8   30.09    1.21
  -4   3   8   30.60    1.12
  -3   3   8    8.00    0.66
  -3   3   8    8.42    0.58
  -2   3   8   12.48    0.69
  -2   3   8   13.01    0.53
   1  -3  -8    6.90    0.32
  -1   3   8    7.04    0.40
  -1   3   8    8.24    0.52
   0  -3  -8   26.90    0.76
   0   3   8   26.46    0.86
   0   3   8   26.85    0.81
  -1  -3  -8  131.35    3.05
   1   3   8  131.48    3.06
   1   3   8  132.55    2.89
   1   3   8  128.27    3.04
  -2  -3  -8   12.61    0.51
   2   3   8   11.97    0.46
   2   3   8   11.85    0.39
   2   3   8   12.10    0.44
  -3  -3  -8   80.00    2.03
   3   3   8   79.64    1.95
   3   3   8   83.45    1.90
   3   3   8   83.07    1.95
  -4  -3  -8   13.91    0.61
   4   3   8   13.41    0.46
   4   3   8   13.54    0.41
   4   3   8   13.29    0.54
  -5  -3  -8  111.39    2.71
   5   3   8  107.47    2.62
   5   3   8  110.18    2.50
   5   3   8  108.82    2.67
  -6  -3  -8    0.83    0.27
   6   3   8    0.31    0.27
   6   3   8    0.60    0.24
   7   3   8   16.26    0.82
   8   3   8    4.08    0.54
   9   3   8    8.05    0.74
  -5   4   8    4.80    0.63
  -5   4   8    3.98    0.59
  -4   4   8    0.51    0.41
  -4   4   8    0.78    0.39
  -3   4   8    5.13    0.50
  -3   4   8    6.34    0.57
  -2   4   8    4.64    0.45
  -2   4   8    5.10    0.40
  -2   4   8    5.24    0.49
   1  -4  -8   25.68    0.72
  -1   4   8   25.77    0.79
  -1   4   8   24.39    0.87
  -1   4   8   24.86    0.92
   0  -4  -8    5.05    0.33
   0   4   8    4.66    0.36
   0   4   8    4.91    0.41
   0   4   8    4.93    0.37
  -1  -4  -8    1.45    0.21
   1   4   8    1.16    0.20
   1   4   8    1.82    0.26
  -2  -4  -8    4.33    0.35
   2   4   8    4.23    0.34
   2   4   8    4.15    0.21
   2   4   8    3.85    0.31
  -3  -4  -8   28.10    0.87
   3   4   8   28.12    0.79
   3   4   8   27.97    0.77
   3   4   8   27.36    0.80
   3   4   8   27.37    0.70
  -4  -4  -8   77.03    1.90
   4   4   8   73.93    1.76
   4   4   8   71.64    1.77
   4   4   8   71.35    1.81
  -5  -4  -8    0.83    0.25
   5   4   8    1.12    0.25
   5   4   8    0.95    0.16
   5   4   8    1.02    0.18
   5   4   8    1.16    0.25
  -6  -4  -8   21.35    0.81
   6   4   8   22.24    0.81
   6   4   8   21.54    0.83
  -7  -4  -8    2.53    0.34
   7   4   8    1.95    0.38
   7   4   8    2.54    0.37
   8   4   8    2.70    0.46
   9   4   8    1.56    0.46
  -4   5   8    3.49    0.55
  -4   5   8    3.32    0.56
  -3   5   8    8.97    0.70
  -3   5   8    7.01    0.61
  -2   5   8    0.09    0.30
  -2   5   8    0.14    0.23
  -2   5   8   -0.19    0.31
  -1   5   8   42.69    1.35
  -1   5   8   43.38    1.20
  -1   5   8   41.48    1.28
   0  -5  -8    0.38    0.19
   0   5   8    0.36    0.27
   0   5   8    0.79    0.24
   0   5   8    0.38    0.21
  -1  -5  -8   13.91    0.57
   1   5   8   13.62    0.63
   1   5   8   13.60    0.57
   1   5   8   14.82    0.56
  -2  -5  -8    8.95    0.48
   2   5   8    9.23    0.40
   2   5   8    9.34    0.46
   2   5   8    9.40    0.50
  -3  -5  -8   76.89    1.95
   3   5   8   76.67    1.91
   3   5   8   76.78    1.79
   3   5   8   76.51    1.88
  -4  -5  -8   16.02    0.68
   4   5   8   17.27    0.59
   4   5   8   16.19    0.59
   4   5   8   15.94    0.58
  -5  -5  -8    8.17    0.52
   5   5   8    7.68    0.38
   5   5   8    7.76    0.47
   5   5   8    7.71    0.41
  -6  -5  -8    9.76    0.57
   6   5   8    9.41    0.43
   6   5   8    9.64    0.59
   6   5   8    9.55    0.57
  -7  -5  -8   11.44    0.64
   7   5   8   13.20    0.71
   7   5   8   11.46    0.69
   8   5   8    1.13    0.37
   8   5   8    0.68    0.37
   9   5   8    1.61    0.47
  -3   6   8   17.68    0.99
  -3   6   8   17.24    0.99
  -2   6   8    0.51    0.39
  -2   6   8    0.15    0.35
  -1   6   8   42.14    1.23
  -1   6   8   40.64    1.33
  -1   6   8   42.41    1.38
   0  -6  -8    0.44    0.22
   0   6   8    0.54    0.25
   0   6   8    0.67    0.32
   0   6   8    0.51    0.28
  -1  -6  -8   50.78    1.39
   1   6   8   50.01    1.48
   1   6   8   52.00    1.40
   1   6   8   50.56    1.39
  -2  -6  -8    0.17    0.21
   2   6   8    0.20    0.19
   2   6   8    0.31    0.25
   2   6   8    0.07    0.21
  -3  -6  -8   63.62    1.71
   3   6   8   64.79    1.71
   3   6   8   64.59    1.66
  -4  -6  -8    0.48    0.25
   4   6   8    0.33    0.20
   4   6   8    0.45    0.22
  -5  -6  -8  151.67    3.59
   5   6   8  148.98    3.47
   5   6   8  148.49    3.52
   5   6   8  149.80    3.52
  -6  -6  -8    2.41    0.35
   6   6   8    2.12    0.30
   6   6   8    1.57    0.32
   6   6   8    1.17    0.34
   6   6   8    1.55    0.22
  -7  -6  -8   14.68    0.72
   7   6   8   14.58    0.79
   7   6   8   14.50    0.75
   8   6   8    0.27    0.36
   8   6   8    0.49    0.36
   9   6   8   16.14    0.96
   9   6   8   14.41    0.91
  -2   7   8    0.12    0.45
  -2   7   8   -0.03    0.40
  -1   7   8   24.03    1.09
  -1   7   8   24.77    0.93
  -1   7   8   25.76    1.07
   0   7   8    1.98    0.38
   0   7   8    1.55    0.32
   0   7   8    1.44    0.41
  -1  -7  -8   46.64    1.36
   1   7   8   48.90    1.37
   1   7   8   46.90    1.47
   1   7   8   46.37    1.38
  -2  -7  -8    5.22    0.43
   2   7   8    5.24    0.48
   2   7   8    5.60    0.43
   2   7   8    5.43    0.44
  -3  -7  -8   95.46    2.40
   3   7   8   94.37    2.34
   3   7   8   91.56    2.40
  -4  -7  -8   27.72    0.99
   4   7   8   27.97    0.91
   4   7   8   26.83    0.96
  -5  -7  -8   25.06    0.93
   5   7   8   23.76    0.88
   5   7   8   22.82    0.80
  -6  -7  -8   11.27    0.68
   6   7   8   10.90    0.74
   6   7   8   11.46    0.62
   6   7   8   10.25    0.51
  -7  -7  -8   43.92    1.38
   7   7   8   45.29    1.51
  -8  -7  -8   30.23    1.10
   8   7   8   31.05    1.25
   8   7   8   30.63    1.19
   9   7   8    5.41    0.63
   9   7   8    5.43    0.67
   0   8   8    0.67    0.35
   0   8   8    0.80    0.44
   0   8   8    0.30    0.39
  -1  -8  -8   18.40    0.82
   1   8   8   16.66    0.91
   1   8   8   17.27    0.81
   1   8   8   17.19    0.82
  -2  -8  -8    6.17    0.50
   2   8   8    5.84    0.49
   2   8   8    6.65    0.59
  -3  -8  -8   12.30    0.72
   3   8   8   13.53    0.69
   3   8   8   11.94    0.74
  -4  -8  -8    6.27    0.53
   4   8   8    6.52    0.53
   4   8   8    6.08    0.47
  -5  -8  -8   23.29    0.96
   5   8   8   22.44    0.93
   5   8   8   21.40    0.82
  -6  -8  -8   50.39    1.58
   6   8   8   51.80    1.69
   6   8   8   53.18    1.59
   6   8   8   55.01    1.46
  -7  -8  -8    5.15    0.52
   7   8   8    6.19    0.64
  -8  -8  -8    6.33    0.56
   8   8   8    6.40    0.67
  -2  -9  -8    1.85    0.41
   2   9   8    2.27    0.42
   2   9   8    1.88    0.48
  -3  -9  -8    1.34    0.40
   3   9   8    0.78    0.41
   3   9   8    0.99    0.35
  -4  -9  -8    7.03    0.59
   4   9   8    7.29    0.56
   4   9   8    7.65    0.65
  -5  -9  -8    0.62    0.38
   5   9   8    0.50    0.39
   5   9   8    0.62    0.31
  -6  -9  -8   -0.06    0.36
   6   9   8    0.42    0.37
   6   9   8   -0.11    0.41
   6   9   8    0.19    0.29
  -7  -9  -8    0.47    0.40
   7   9   8    0.60    0.46
   7   9   8   -0.02    0.36
   5   7  -9    9.62    0.84
  -5  -7   9    9.07    0.74
   4   7  -9    0.61    0.49
   4   7  -9    0.36    0.35
  -4  -7   9    0.51    0.44
   3   7  -9   21.16    0.95
   3   7  -9   19.80    1.13
  -3  -7   9   20.90    1.10
   2   7  -9    0.30    0.46
   2   7  -9    0.59    0.36
  -2  -7   9    0.03    0.42
   1   7  -9   14.90    0.87
   1   7  -9   17.02    1.04
  -1  -7   9   17.42    1.07
   6   6  -9    3.15    0.57
  -6  -6   9    2.54    0.48
   5   6  -9    7.99    0.74
   5   6  -9    8.18    0.73
  -5  -6   9    8.37    0.65
   4   6  -9    5.20    0.48
   4   6  -9    5.72    0.64
   4   6  -9    4.16    0.57
  -4  -6   9    4.97    0.55
   3   6  -9   18.44    1.03
   3   6  -9   17.36    0.83
  -3  -6   9   18.91    0.96
   2   6  -9    0.00    0.29
   2   6  -9    0.77    0.42
  -2  -6   9    0.18    0.37
   1   6  -9   27.97    1.06
   1   6  -9   29.12    1.05
   1   6  -9   28.72    1.21
  -1  -6   9   28.60    1.22
   0   6  -9    0.82    0.43
   0   6  -9    1.21    0.37
   0  -6   9    0.14    0.41
  -1   6  -9    4.46    0.60
  -1   6  -9    4.04    0.50
   1  -6   9    4.67    0.60
  -2   6  -9    8.94    0.88
   7   5  -9    4.18    0.68
   6   5  -9    0.74    0.46
   5   5  -9   -0.06    0.36
   5   5  -9    0.32    0.37
  -5  -5   9   -0.05    0.32
   4   5  -9    0.54    0.40
   4   5  -9    0.27    0.33
  -4  -5   9    0.85    0.34
   3   5  -9    0.55    0.40
   3   5  -9    0.32    0.29
   3   5  -9    1.12    0.30
  -3  -5   9    1.12    0.36
   2   5  -9    4.59    0.55
   2   5  -9    3.87    0.41
  -2  -5   9    3.69    0.47
   1   5  -9    4.46    0.42
   1   5  -9    3.56    0.50
  -1  -5   9    4.37    0.50
   0   5  -9    1.39    0.30
   0   5  -9    1.79    0.42
   0   5  -9    1.41    0.34
   0  -5   9    1.51    0.41
  -1   5  -9   10.55    0.79
  -1   5  -9    9.72    0.68
   1  -5   9   10.19    0.80
  -2   5  -9    3.06    0.44
  -2   5  -9    3.30    0.53
   2  -5   9    3.21    0.48
   2  -5   9    3.25    0.61
  -3   5  -9    1.12    0.40
  -3   5  -9    1.07    0.47
   3  -5   9    1.18    0.52
   7   4  -9   36.97    1.59
   6   4  -9    0.66    0.44
   5   4  -9   13.20    0.84
  -5  -4   9   13.55    0.73
   4   4  -9    0.04    0.30
   4   4  -9    0.01    0.32
  -4  -4   9    0.35    0.29
   3   4  -9   94.12    2.37
   3   4  -9   89.98    2.49
   3   4  -9   91.56    2.32
  -3  -4   9   90.93    2.38
   2   4  -9    2.02    0.40
   2   4  -9    1.89    0.32
   2   4  -9    2.16    0.31
  -2  -4   9    1.33    0.33
   1   4  -9   25.93    1.02
   1   4  -9   26.54    0.91
  -1  -4   9   24.78    0.99
   0   4  -9    8.29    0.55
   0   4  -9    7.98    0.63
   0  -4   9    8.59    0.68
  -1   4  -9    0.68    0.35
  -1   4  -9    0.64    0.28
   1  -4   9    1.34    0.38
  -2   4  -9    2.92    0.44
  -2   4  -9    4.06    0.42
   2  -4   9    3.66    0.58
   2  -4   9    4.04    0.48
  -3   4  -9   16.01    0.79
  -3   4  -9   15.59    0.86
   3  -4   9   16.37    1.04
  -4   4  -9   14.65    0.88
  -4   4  -9   13.50    0.79
   4  -4   9   14.24    1.02
   7   3  -9   23.30    1.32
   6   3  -9    0.43    0.45
   5   3  -9   48.32    1.62
   4   3  -9    7.67    0.61
  -4  -3   9    7.19    0.53
   3   3  -9   52.63    1.52
   3   3  -9   52.50    1.60
   3   3  -9   52.67    1.40
  -3  -3   9   50.28    1.47
   2   3  -9   21.65    0.77
   2   3  -9   21.69    0.78
   2   3  -9   19.25    0.87
  -2  -3   9   20.38    0.83
   1   3  -9   83.72    2.24
   1   3  -9   83.51    2.05
   1   3  -9   83.11    2.12
  -1  -3   9   83.46    2.22
   0   3  -9   22.73    0.81
   0   3  -9   21.82    0.89
   0  -3   9   23.18    0.95
  -1   3  -9   81.77    2.20
  -1   3  -9   84.87    2.15
   1  -3   9   85.47    2.30
  -2   3  -9   39.46    1.25
  -2   3  -9   40.03    1.21
   2  -3   9   37.49    1.45
   2  -3   9   41.07    1.30
  -3   3  -9   24.31    0.94
  -3   3  -9   25.11    0.90
   3  -3   9   24.31    1.15
   3  -3   9   23.22    0.92
  -4   3  -9   27.13    0.98
  -4   3  -9   25.66    1.03
   4  -3   9   26.17    1.22
  -5   3  -9   17.47    0.89
   5  -3   9   16.15    1.05
   7   2  -9   33.22    1.55
  -7  -2   9   30.83    1.41
   6   2  -9   22.59    1.22
   5   2  -9   64.73    2.01
   4   2  -9   14.51    0.81
  -4  -2   9   14.20    0.65
   3   2  -9  175.82    4.21
   3   2  -9  172.76    3.94
   3   2  -9  173.42    4.18
  -3  -2   9  172.84    4.08
   2   2  -9  107.02    2.66
   2   2  -9  105.54    2.73
   2   2  -9  109.89    2.60
  -2  -2   9  107.66    2.67
   1   2  -9   39.31    1.27
   1   2  -9   41.76    1.15
   1   2  -9   36.58    1.15
  -1  -2   9   43.13    1.27
   0   2  -9  113.99    2.70
   0   2  -9  116.62    2.80
   0  -2   9  115.56    2.92
  -1   2  -9  162.68    3.86
  -1   2  -9  163.25    3.83
   1  -2   9  163.10    3.96
  -2   2  -9   60.29    1.56
  -2   2  -9   56.99    1.58
   2  -2   9   55.84    1.63
   2  -2   9   55.24    1.78
  -3   2  -9   36.18    1.11
  -3   2  -9   36.44    1.14
   3  -2   9   35.89    1.15
   3  -2   9   35.08    1.33
  -4   2  -9   38.62    1.21
  -4   2  -9   37.26    1.16
   4  -2   9   36.34    1.38
  -5   2  -9    1.21    0.35
  -5   2  -9    1.22    0.32
   5  -2   9    0.83    0.44
  -6   2  -9   16.85    0.86
   6  -2   9   17.22    1.03
   7   1  -9    6.22    0.82
  -7  -1   9    6.10    0.75
   6   1  -9    1.93    0.58
  -6  -1   9    2.79    0.56
   5   1  -9   54.27    1.85
   4   1  -9   43.89    1.50
  -4  -1   9   41.46    1.25
   3   1  -9   31.64    1.16
  -3  -1   9   30.45    1.00
   2   1  -9   40.05    1.27
   2   1  -9   40.03    1.26
   2   1  -9   40.51    1.08
  -2  -1   9   39.65    1.21
   1   1  -9   43.52    1.20
   1   1  -9   43.59    1.30
   1   1  -9   43.37    1.26
  -1  -1   9   43.20    1.30
   0   1  -9   52.81    1.48
   0   1  -9   57.55    1.56
   0  -1   9   55.71    1.57
  -1   1  -9    8.98    0.51
  -1   1  -9    9.32    0.49
   1  -1   9    9.69    0.56
  -2   1  -9  119.05    2.81
  -2   1  -9  117.82    2.82
   2  -1   9  116.19    2.90
   2  -1   9  112.70    3.00
  -3   1  -9    0.54    0.23
  -3   1  -9    0.47    0.24
   3  -1   9    0.07    0.23
   3  -1   9    0.51    0.31
  -4   1  -9   41.38    1.21
  -4   1  -9   42.87    1.22
   4  -1   9   39.45    1.39
   4  -1   9   40.06    1.14
  -5   1  -9    0.85    0.28
  -5   1  -9    2.04    0.34
   5  -1   9    1.36    0.42
  -6   1  -9   26.50    1.15
   6  -1   9   25.72    1.15
   7  -1   9    5.12    0.67
  -7   0   9    5.08    0.71
   6   0  -9    2.65    0.63
  -6   0   9    4.00    0.62
   5   0  -9    3.51    0.58
  -5   0   9    2.81    0.51
   4   0  -9    0.55    0.39
  -4   0   9   -0.06    0.32
   3   0  -9    0.78    0.36
  -3   0   9    0.44    0.24
  -3   0   9    0.99    0.33
   2   0  -9   25.29    0.96
   2   0  -9   22.09    0.65
  -2   0   9   22.20    0.82
   1   0  -9    1.91    0.22
  -1   0   9    1.96    0.29
   0   0  -9    2.18    0.29
   0   0  -9    2.43    0.27
   0   0   9    1.88    0.28
  -1   0  -9    1.61    0.26
  -1   0  -9    1.90    0.26
   1   0   9    1.71    0.28
  -2   0  -9    5.29    0.42
  -2   0  -9    5.66    0.40
   2   0   9    5.63    0.49
   2   0   9    4.46    0.39
   2   0   9    5.41    0.27
  -3   0  -9    0.41    0.21
  -3   0  -9    0.22    0.19
   3   0   9    0.40    0.28
   3   0   9    0.44    0.22
  -4   0  -9   10.85    0.56
  -4   0  -9   10.72    0.51
   4   0   9   10.24    0.46
   4   0   9   11.00    0.67
  -5   0  -9    0.66    0.25
  -5   0  -9    0.76    0.26
   5   0   9    0.71    0.34
   6   0   9    0.27    0.35
   7   0   9    0.00    0.40
  -6   1   9   13.42    0.99
  -5   1   9    9.97    0.84
  -4   1   9    3.07    0.50
  -3   1   9    1.17    0.36
  -3   1   9    0.52    0.23
   2  -1  -9   45.65    1.08
  -2   1   9   43.63    1.39
  -2   1   9   46.24    1.29
   1  -1  -9    0.72    0.16
  -1   1   9    1.03    0.26
  -1   1   9    0.64    0.22
   0  -1  -9   11.81    0.49
   0   1   9   11.46    0.55
   0   1   9   12.39    0.53
  -1  -1  -9    6.83    0.42
  -1  -1  -9    7.04    0.42
   1   1   9    6.33    0.44
   1   1   9    5.66    0.35
  -2  -1  -9   13.91    0.59
  -2  -1  -9   13.09    0.54
   2   1   9   13.77    0.61
   2   1   9   13.33    0.43
  -3  -1  -9    7.97    0.49
  -3  -1  -9    7.20    0.42
   3   1   9    8.36    0.52
   3   1   9    8.00    0.43
  -4  -1  -9   10.87    0.48
  -4  -1  -9   11.93    0.60
   4   1   9   12.52    0.66
   4   1   9   12.48    0.47
  -5  -1  -9    0.77    0.21
  -5  -1  -9    0.47    0.25
   5   1   9    0.92    0.31
  -6  -1  -9   12.90    0.68
   6   1   9   12.72    0.77
   7   1   9    1.68    0.46
   8   1   9   23.39    1.16
  -6   2   9    8.69    0.82
  -6   2   9    8.20    0.72
  -5   2   9   32.26    1.36
  -5   2   9   34.09    1.26
  -4   2   9   32.08    1.26
  -3   2   9    6.78    0.51
  -3   2   9    6.15    0.56
  -2   2   9   36.95    1.23
   1  -2  -9   37.79    0.96
  -1   2   9   35.53    1.15
   0  -2  -9  161.64    3.63
   0   2   9  154.93    3.68
   0   2   9  156.62    3.71
  -1  -2  -9    6.48    0.39
   1   2   9    6.92    0.36
   1   2   9    6.40    0.38
  -2  -2  -9   85.25    2.26
   2   2   9   94.17    2.14
   2   2   9   90.86    2.23
   2   2   9   95.90    2.21
  -3  -2  -9    7.68    0.49
  -3  -2  -9    7.75    0.39
   3   2   9    7.28    0.27
   3   2   9    7.40    0.44
   3   2   9    7.79    0.40
  -4  -2  -9  109.76    2.57
  -4  -2  -9   96.35    2.40
   4   2   9   99.52    2.39
   4   2   9  103.50    2.52
   4   2   9  102.14    2.39
  -5  -2  -9    1.23    0.29
   5   2   9    1.48    0.32
   5   2   9    1.51    0.17
  -6  -2  -9   90.61    2.34
   6   2   9   88.23    2.37
   7   2   9   22.30    0.99
   8   2   9    5.85    0.61
  -5   3   9    8.25    0.70
  -5   3   9    7.70    0.76
  -4   3   9   12.08    0.87
  -4   3   9   13.18    0.79
  -3   3   9    8.22    0.65
  -2   3   9   99.70    2.35
  -2   3   9   92.01    2.51
   1  -3  -9    1.84    0.19
  -1   3   9    1.85    0.27
  -1   3   9    1.75    0.32
   0  -3  -9  177.90    4.14
   0   3   9  176.75    4.25
   0   3   9  191.57    4.20
  -1  -3  -9    1.50    0.22
   1   3   9    1.31    0.23
   1   3   9    1.05    0.22
   1   3   9    1.31    0.12
  -2  -3  -9  126.25    3.05
   2   3   9  131.37    2.98
   2   3   9  129.44    2.92
   2   3   9  125.20    3.00
  -3  -3  -9    6.84    0.47
   3   3   9    7.70    0.39
   3   3   9    7.30    0.38
   3   3   9    7.81    0.33
  -4  -3  -9  129.40    3.19
   4   3   9  129.75    3.04
   4   3   9  131.89    3.12
   4   3   9  137.22    3.01
  -5  -3  -9   13.79    0.68
   5   3   9   14.11    0.56
   5   3   9   14.02    0.47
   5   3   9   14.25    0.63
  -6  -3  -9   55.15    1.60
   6   3   9   56.56    1.62
   6   3   9   56.90    1.83
   7   3   9   10.76    0.72
   8   3   9   15.44    0.89
   9   3   9   22.92    1.18
  -4   4   9   77.98    2.23
  -4   4   9   77.90    2.32
  -3   4   9    0.88    0.36
  -3   4   9    1.14    0.42
  -2   4   9   60.68    1.57
  -2   4   9   58.89    1.77
  -2   4   9   58.32    1.69
   1  -4  -9   13.72    0.49
  -1   4   9   15.00    0.67
  -1   4   9   14.10    0.70
  -1   4   9   13.79    0.59
   0  -4  -9  134.48    3.11
   0   4   9  131.18    3.25
   0   4   9  136.19    3.16
  -1  -4  -9   29.91    0.90
   1   4   9   31.11    0.92
   1   4   9   30.38    0.96
  -2  -4  -9  157.12    3.67
   2   4   9  156.71    3.64
   2   4   9  158.64    3.50
   2   4   9  156.36    3.65
  -3  -4  -9    2.43    0.30
   3   4   9    2.23    0.24
   3   4   9    3.10    0.26
  -4  -4  -9   70.40    1.82
   4   4   9   67.73    1.71
   4   4   9   68.59    1.65
   4   4   9   65.22    1.67
  -5  -4  -9    5.79    0.45
   5   4   9    5.88    0.33
   5   4   9    5.90    0.44
   5   4   9    5.42    0.44
  -6  -4  -9   14.05    0.69
   6   4   9   13.52    0.68
   6   4   9   14.21    0.64
  -7  -4  -9   48.79    1.45
   7   4   9   47.48    1.59
   7   4   9   48.38    1.50
   8   4   9    5.38    0.58
   9   4   9    2.45    0.53
  -4   5   9    3.40    0.59
  -4   5   9    3.56    0.64
  -3   5   9    9.17    0.76
  -3   5   9    9.92    0.82
  -2   5   9   32.27    1.18
  -2   5   9   36.02    1.28
  -2   5   9   34.57    1.07
  -1   5   9    0.79    0.24
  -1   5   9    0.96    0.30
  -1   5   9    1.04    0.34
   0  -5  -9    4.60    0.37
   0   5   9    4.29    0.39
   0   5   9    5.20    0.43
   0   5   9    5.30    0.46
  -1  -5  -9    2.41    0.28
   1   5   9    1.94    0.27
   1   5   9    2.10    0.27
   1   5   9    2.21    0.32
  -2  -5  -9    9.65    0.51
   2   5   9    8.86    0.48
   2   5   9    9.88    0.43
   2   5   9    9.40    0.52
  -3  -5  -9    6.93    0.48
   3   5   9    7.46    0.44
   3   5   9    8.17    0.45
  -4  -5  -9   42.04    1.24
   4   5   9   42.66    1.13
   4   5   9   42.08    1.14
   4   5   9   39.82    1.13
  -5  -5  -9   18.46    0.76
   5   5   9   17.72    0.61
   5   5   9   19.05    0.63
   5   5   9   17.66    0.69
  -6  -5  -9    5.03    0.46
   6   5   9    5.01    0.44
   6   5   9    6.06    0.49
   6   5   9    5.10    0.32
  -7  -5  -9    2.90    0.39
   7   5   9    3.28    0.43
   7   5   9    2.27    0.39
   8   5   9    2.36    0.45
   9   5   9    6.53    0.67
  -3   6   9    0.39    0.46
  -3   6   9    0.52    0.44
  -2   6   9    1.67    0.43
  -2   6   9    0.87    0.43
  -1   6   9    5.87    0.57
  -1   6   9    5.83    0.53
  -1   6   9    5.34    0.45
   0  -6  -9    8.29    0.49
   0   6   9    8.17    0.57
   0   6   9    8.30    0.55
   0   6   9    8.76    0.65
  -1  -6  -9    0.38    0.23
   1   6   9    0.55    0.25
   1   6   9    0.77    0.26
   1   6   9    0.65    0.31
  -2  -6  -9    7.88    0.52
   2   6   9    9.50    0.46
   2   6   9    8.20    0.51
   2   6   9    8.54    0.57
  -3  -6  -9    1.03    0.28
   3   6   9    1.04    0.25
   3   6   9    1.09    0.28
  -4  -6  -9    2.25    0.32
   4   6   9    2.21    0.28
   4   6   9    2.84    0.32
  -5  -6  -9    6.17    0.48
   5   6   9    6.34    0.44
   5   6   9    6.08    0.41
   5   6   9    6.98    0.48
  -6  -6  -9    1.94    0.35
   6   6   9    1.81    0.33
   6   6   9    1.36    0.36
   6   6   9    1.89    0.24
  -7  -6  -9    3.89    0.44
   7   6   9    4.13    0.46
   7   6   9    4.20    0.49
  -8  -6  -9    1.81    0.37
   8   6   9    1.97    0.42
   8   6   9    2.02    0.45
   9   6   9    3.88    0.56
  -1   7   9    0.29    0.37
  -1   7   9    0.15    0.42
  -1   7   9    0.36    0.32
   0   7   9   20.18    0.89
   0   7   9   18.59    0.95
   0   7   9   19.69    0.83
  -1  -7  -9   16.32    0.73
   1   7   9   16.16    0.85
   1   7   9   16.65    0.75
   1   7   9   15.79    0.74
  -2  -7  -9    8.42    0.57
   2   7   9    7.75    0.63
   2   7   9    9.26    0.58
  -3  -7  -9   14.02    0.70
   3   7   9   13.92    0.66
   3   7   9   16.12    0.75
  -4  -7  -9    8.23    0.60
   4   7   9    7.59    0.55
   4   7   9    6.85    0.50
  -5  -7  -9   14.64    0.75
   5   7   9   13.87    0.62
   5   7   9   13.15    0.66
  -6  -7  -9    9.22    0.65
   6   7   9    8.71    0.71
   6   7   9    9.03    0.50
   6   7   9    9.11    0.61
  -7  -7  -9   11.64    0.71
   7   7   9    9.91    0.70
   7   7   9   11.58    0.78
  -8  -7  -9    1.23    0.37
   8   7   9    0.93    0.41
   8   7   9    0.83    0.42
   0   8   9   10.82    0.73
   0   8   9   10.02    0.76
   0   8   9   11.49    0.90
   1   8   9    3.64    0.47
   1   8   9    3.32    0.43
   1   8   9    3.60    0.51
  -2  -8  -9   13.13    0.74
   2   8   9   13.56    0.73
   2   8   9   12.53    0.81
  -3  -8  -9   22.42    0.92
   3   8   9   21.41    0.96
   3   8   9   21.02    0.87
  -4  -8  -9   12.29    0.74
   4   8   9   10.25    0.63
   4   8   9   10.96    0.71
  -5  -8  -9   38.46    1.29
   5   8   9   37.06    1.25
   5   8   9   36.63    1.16
  -6  -8  -9   16.29    0.84
   6   8   9   14.70    0.79
   6   8   9   15.33    0.68
   6   8   9   13.72    0.90
  -7  -8  -9    9.15    0.74
   7   8   9    8.81    0.74
  -8  -8  -9    2.94    0.47
   8   8   9    2.97    0.55
  -2  -9  -9    1.66    0.41
   2   9   9    2.05    0.50
   2   9   9    2.57    0.44
  -3  -9  -9   15.45    0.86
   3   9   9   15.80    0.83
   3   9   9   15.40    0.93
  -4  -9  -9    1.22    0.40
   4   9   9    1.49    0.44
   4   9   9    1.11    0.35
  -5  -9  -9   18.16    0.96
   5   9   9   18.56    0.85
   5   9   9   20.97    0.97
  -6  -9  -9    0.13    0.38
   6   9   9    0.65    0.40
   6   9   9    0.20    0.29
   6   9   9    0.21    0.45
  -7  -9  -9   15.76    0.92
   7   9   9   16.36    1.01
   3   7 -10    8.66    0.67
   3   7 -10    9.83    0.88
  -3  -7  10    8.87    0.77
   2   7 -10    9.94    0.78
   2   7 -10   11.35    0.97
  -2  -7  10    9.21    0.80
   5   6 -10   11.47    0.92
   5   6 -10   12.12    0.85
  -5  -6  10   10.75    0.85
   4   6 -10   24.15    1.19
  -4  -6  10   24.14    1.12
   3   6 -10    0.14    0.45
   3   6 -10    0.22    0.32
  -3  -6  10    0.23    0.39
   2   6 -10   24.10    1.20
   2   6 -10   25.65    1.04
  -2  -6  10   27.76    1.21
   1   6 -10   15.56    0.84
   1   6 -10   15.04    0.96
  -1  -6  10   14.60    0.98
   0   6 -10    2.02    0.52
   0   6 -10    1.83    0.43
   0  -6  10    2.18    0.53
  -1   6 -10   13.40    0.99
  -1   6 -10   13.71    0.87
   1  -6  10   12.75    0.97
   6   5 -10    3.03    0.59
   5   5 -10    1.38    0.45
   5   5 -10    0.91    0.42
  -5  -5  10    0.23    0.36
   4   5 -10   31.63    1.18
   4   5 -10   30.84    1.27
  -4  -5  10   31.08    1.19
   3   5 -10   14.44    0.91
   3   5 -10   14.06    0.73
  -3  -5  10   14.69    0.84
   2   5 -10    0.55    0.40
   2   5 -10    0.62    0.30
  -2  -5  10    0.40    0.36
   1   5 -10    4.96    0.58
   1   5 -10    3.58    0.44
  -1  -5  10    4.45    0.54
   0   5 -10    2.55    0.40
   0   5 -10    2.94    0.49
   0  -5  10    2.86    0.50
  -1   5 -10   23.15    1.07
  -1   5 -10   23.78    0.99
   1  -5  10   23.16    1.11
  -2   5 -10    0.05    0.34
  -2   5 -10    0.88    0.45
   2  -5  10    0.64    0.51
   2  -5  10    0.53    0.37
  -3   5 -10    5.59    0.65
  -3   5 -10    5.78    0.58
   3  -5  10    5.71    0.76
   7   4 -10    0.40    0.54
   6   4 -10   10.31    0.91
   5   4 -10    0.31    0.39
  -5  -4  10   -0.21    0.31
   4   4 -10    1.04    0.40
   4   4 -10    2.24    0.42
  -4  -4  10    1.95    0.38
   3   4 -10    0.32    0.25
   3   4 -10   -0.05    0.36
   3   4 -10    0.34    0.30
  -3  -4  10   -0.19    0.30
   2   4 -10   25.26    0.93
   2   4 -10   25.00    1.09
  -2  -4  10   25.24    1.02
   1   4 -10   36.01    1.30
   1   4 -10   36.72    1.18
  -1  -4  10   36.46    1.30
   0   4 -10    0.29    0.28
   0   4 -10    0.38    0.36
   0  -4  10    0.32    0.33
  -1   4 -10    0.55    0.30
  -1   4 -10    0.35    0.35
   1  -4  10    1.17    0.39
  -2   4 -10    0.31    0.30
  -2   4 -10    0.49    0.38
   2  -4  10    0.17    0.44
   2  -4  10    0.71    0.34
  -3   4 -10    3.04    0.45
  -3   4 -10    1.95    0.46
   3  -4  10    2.17    0.58
  -4   4 -10    2.75    0.46
  -4   4 -10    3.58    0.54
   4  -4  10    3.16    0.63
   7   3 -10    0.73    0.56
   6   3 -10    1.03    0.50
   5   3 -10    8.69    0.77
   4   3 -10    0.04    0.33
  -4  -3  10    0.17    0.29
   3   3 -10    1.73    0.36
   3   3 -10    2.06    0.27
   3   3 -10    1.80    0.41
  -3  -3  10    1.42    0.33
   2   3 -10   13.64    0.76
   2   3 -10   11.81    0.61
   2   3 -10   12.36    0.62
  -2  -3  10   12.15    0.70
   1   3 -10   21.87    0.94
   1   3 -10   23.58    0.85
  -1  -3  10   22.36    0.95
   0   3 -10    1.83    0.31
   0   3 -10    1.97    0.39
   0  -3  10    1.37    0.37
  -1   3 -10   23.18    0.89
  -1   3 -10   23.96    0.94
   1  -3  10   26.19    1.04
  -2   3 -10   30.27    1.09
  -2   3 -10   30.90    1.05
   2  -3  10   31.45    1.13
   2  -3  10   28.01    1.29
  -3   3 -10   11.75    0.73
  -3   3 -10   11.66    0.68
   3  -3  10   12.06    0.70
   3  -3  10   10.59    0.88
  -4   3 -10    1.65    0.37
  -4   3 -10    1.55    0.41
   4  -3  10    1.82    0.53
  -5   3 -10    5.16    0.53
  -5   3 -10    5.15    0.57
   5  -3  10    5.35    0.70
   7   2 -10    5.80    0.81
  -7  -2  10    5.32    0.73
   6   2 -10   20.30    1.22
   5   2 -10   24.12    1.16
   4   2 -10    9.99    0.76
  -4  -2  10    9.68    0.62
   3   2 -10  156.96    3.84
   3   2 -10  155.56    3.59
  -3  -2  10  155.60    3.76
   2   2 -10    5.90    0.53
   2   2 -10    6.19    0.53
   2   2 -10    6.51    0.43
  -2  -2  10    7.19    0.57
   1   2 -10   25.73    0.88
   1   2 -10   26.13    0.99
   1   2 -10   26.29    0.90
  -1  -2  10   25.95    1.00
   0   2 -10   93.96    2.47
   0   2 -10   95.46    2.40
   0  -2  10   95.36    2.51
  -1   2 -10   51.85    1.51
  -1   2 -10   53.40    1.48
   1  -2  10   51.43    1.58
  -2   2 -10   18.36    0.75
  -2   2 -10   18.10    0.77
   2  -2  10   16.41    0.80
   2  -2  10   16.91    0.95
  -3   2 -10   17.65    0.79
  -3   2 -10   18.63    0.77
   3  -2  10   17.41    0.97
   3  -2  10   17.40    0.79
  -4   2 -10    0.96    0.34
  -4   2 -10    0.98    0.31
   4  -2  10    0.91    0.44
  -5   2 -10   37.34    1.25
  -5   2 -10   35.96    1.23
   5  -2  10   36.56    1.46
  -6   2 -10   -0.05    0.56
   6  -2  10    0.65    0.48
   7   1 -10   27.39    1.64
  -7  -1  10   28.10    1.40
   6   1 -10   24.47    1.32
  -6  -1  10   23.89    1.21
   5   1 -10   36.50    1.47
   4   1 -10    1.36    0.42
  -4  -1  10    0.91    0.35
   3   1 -10   26.23    1.07
  -3  -1  10   25.32    0.94
   2   1 -10   23.20    0.94
   2   1 -10   24.20    0.75
  -2  -1  10   22.99    0.91
   1   1 -10  263.13    6.07
   1   1 -10  257.03    5.95
   1   1 -10  266.10    6.02
  -1  -1  10  261.42    6.07
   0   1 -10    0.66    0.23
   0   1 -10    0.67    0.28
   0  -1  10    1.10    0.30
  -1   1 -10   96.35    2.40
  -1   1 -10   97.12    2.43
   1  -1  10   92.51    2.45
  -2   1 -10    0.17    0.22
  -2   1 -10    0.35    0.25
   2  -1  10    0.67    0.36
   2  -1  10    0.11    0.26
  -3   1 -10  165.52    3.85
  -3   1 -10  167.80    3.88
   3  -1  10  161.18    3.89
   3  -1  10  155.54    4.05
  -4   1 -10    9.78    0.59
  -4   1 -10   10.18    0.60
   4  -1  10   10.41    0.54
   4  -1  10   10.16    0.79
  -5   1 -10   67.46    1.79
  -5   1 -10   65.37    1.82
   5  -1  10   62.82    2.02
   6  -1  10    4.20    0.59
   7  -1  10   20.36    1.17
  -6   0  10    8.22    0.79
   5   0 -10   63.43    2.06
  -5   0  10   58.13    1.94
   4   0 -10    6.40    0.65
  -4   0  10    4.79    0.55
   3   0 -10   92.96    2.48
  -3   0  10   86.16    2.26
  -3   0  10   86.25    2.40
   2   0 -10    0.62    0.16
   2   0 -10    0.94    0.34
  -2   0  10    0.42    0.25
   1   0 -10   73.24    1.84
  -1   0  10   74.22    1.95
   0   0 -10    0.89    0.27
   0   0 -10    1.16    0.23
   0   0  10    0.89    0.27
  -1   0 -10  396.72    8.92
  -1   0 -10  395.11    8.93
   1   0  10  400.47    8.98
  -2   0 -10   13.71    0.62
  -2   0 -10   14.34    0.64
   2   0  10   13.16    0.74
   2   0  10   13.26    0.66
   2   0  10   14.65    0.48
  -3   0 -10   49.01    1.43
  -3   0 -10   50.30    1.37
   3   0  10   49.42    1.54
  -4   0 -10    0.83    0.25
  -4   0 -10    0.15    0.23
   4   0  10    0.24    0.20
   4   0  10    0.66    0.34
  -5   0 -10   45.90    1.31
  -5   0 -10   46.37    1.40
   5   0  10   45.76    1.53
   6   0  10   26.15    1.16
   7   0  10   22.44    1.14
  -6   1  10    4.27    0.67
  -5   1  10    2.06    0.52
  -4   1  10    1.15    0.43
  -3   1  10   14.25    0.64
  -3   1  10   14.52    0.80
   2  -1 -10   13.84    0.44
  -2   1  10   13.78    0.72
  -2   1  10   14.20    0.65
   1  -1 -10   81.82    2.01
  -1   1  10   85.45    2.15
  -1   1  10   83.32    2.19
   0  -1 -10   36.76    1.07
   0   1  10   38.26    1.13
   0   1  10   38.03    1.16
  -1  -1 -10    1.87    0.29
  -1  -1 -10    3.59    0.33
   1   1  10    1.78    0.25
   1   1  10    1.82    0.30
  -2  -1 -10    5.28    0.44
  -2  -1 -10    5.53    0.41
   2   1  10    4.93    0.42
   2   1  10    4.91    0.29
  -3  -1 -10   34.93    1.05
  -3  -1 -10   36.89    1.13
   3   1  10   36.08    1.08
   3   1  10   35.17    1.15
  -4  -1 -10   74.63    1.98
  -4  -1 -10   72.38    1.85
   4   1  10   75.49    1.85
   4   1  10   73.53    2.03
  -5  -1 -10    0.36    0.26
   5   1  10    0.11    0.29
  -6  -1 -10   11.65    0.68
   6   1  10   11.01    0.77
   7   1  10    2.34    0.51
   8   1  10    5.25    0.66
  -5   2  10    0.79    0.46
  -4   2  10    0.54    0.39
  -3   2  10    1.47    0.40
  -2   2  10    1.30    0.36
   1  -2 -10   21.67    0.65
  -1   2  10   20.53    0.84
   0  -2 -10   10.23    0.47
   0   2  10   10.14    0.54
   0   2  10   10.19    0.55
  -1  -2 -10    0.72    0.20
   1   2  10    0.66    0.21
   1   2  10    0.91    0.22
   1   2  10    1.16    0.23
  -2  -2 -10   12.06    0.59
   2   2  10   13.13    0.58
   2   2  10   12.76    0.48
   2   2  10   12.47    0.54
  -3  -2 -10   36.52    1.02
  -3  -2 -10   37.48    1.13
   3   2  10   34.03    0.87
   3   2  10   34.11    1.02
   3   2  10   34.51    1.06
  -4  -2 -10   13.20    0.63
  -4  -2 -10   11.37    0.50
   4   2  10   11.61    0.46
   4   2  10   11.44    0.61
   4   2  10   11.49    0.49
  -5  -2 -10    0.06    0.25
   5   2  10    0.20    0.28
   5   2  10    0.08    0.14
  -6  -2 -10    1.14    0.32
   6   2  10    1.34    0.37
   7   2  10    1.81    0.44
   8   2  10    4.29    0.58
  -5   3  10    5.58    0.73
  -5   3  10    5.75    0.64
  -4   3  10   16.50    0.92
  -4   3  10   17.78    1.02
  -3   3  10   11.31    0.78
  -2   3  10   23.18    0.81
  -2   3  10   20.11    0.94
   1  -3 -10    8.35    0.37
  -1   3  10    8.24    0.50
  -1   3  10    7.12    0.58
   0  -3 -10   10.97    0.47
   0   3  10    9.39    0.57
   0   3  10   10.25    0.54
  -1  -3 -10   74.98    1.91
   1   3  10   76.82    1.94
   1   3  10   77.81    1.93
   1   3  10   75.32    1.76
  -2  -3 -10   39.47    1.17
   2   3  10   39.13    1.13
   2   3  10   39.11    1.03
   2   3  10   41.43    1.09
  -3  -3 -10   27.02    0.96
   3   3  10   28.84    0.79
   3   3  10   29.25    0.85
   3   3  10   28.94    0.88
  -4  -3 -10    0.88    0.28
   4   3  10    0.83    0.24
   4   3  10    0.86    0.20
  -5  -3 -10   43.97    1.40
   5   3  10   47.34    1.26
   5   3  10   47.83    1.37
   5   3  10   45.97    1.19
  -6  -3 -10   35.09    1.19
   6   3  10   36.65    1.21
  -7  -3 -10   12.76    0.83
   7   3  10   13.59    0.78
   8   3  10    7.80    0.70
  -4   4  10    0.21    0.46
  -4   4  10    0.45    0.40
  -3   4  10   40.43    1.40
  -3   4  10   41.06    1.48
  -2   4  10    8.89    0.64
  -2   4  10    7.82    0.51
  -2   4  10    7.18    0.61
  -1   4  10   77.33    2.18
  -1   4  10   83.03    2.05
   0  -4 -10   47.10    1.29
   0   4  10   49.40    1.44
   0   4  10   50.26    1.36
  -1  -4 -10   37.00    1.08
   1   4  10   36.69    1.14
   1   4  10   38.22    1.10
  -2  -4 -10    7.45    0.48
   2   4  10    8.56    0.47
  -3  -4 -10  121.45    2.92
   3   4  10  120.65    2.84
   3   4  10  115.98    2.75
   3   4  10  119.03    2.80
  -4  -4 -10  174.34    4.10
   4   4  10  174.02    3.91
   4   4  10  172.49    3.98
   4   4  10  168.78    3.96
  -5  -4 -10    1.59    0.32
   5   4  10    1.31    0.28
   5   4  10    1.51    0.21
  -6  -4 -10   38.28    1.26
   6   4  10   39.29    1.24
   6   4  10   38.58    1.18
  -7  -4 -10   14.94    0.78
   7   4  10   13.81    0.79
   8   4  10   48.47    1.63
   9   4  10    5.40    0.66
  -3   5  10   11.31    0.90
  -3   5  10   11.84    0.83
  -2   5  10   13.81    0.67
  -2   5  10   14.64    0.79
  -2   5  10   14.49    0.89
  -1   5  10    8.31    0.63
  -1   5  10   10.15    0.56
  -1   5  10   10.01    0.72
   0  -5 -10   29.06    0.89
   0   5  10   28.10    0.98
   0   5  10   29.14    0.95
   0   5  10   30.66    1.08
  -1  -5 -10   60.19    1.58
   1   5  10   60.21    1.59
   1   5  10   59.74    1.66
   1   5  10   58.63    1.58
  -2  -5 -10   85.39    2.23
   2   5  10   91.60    2.28
   2   5  10   88.42    2.22
   2   5  10   93.14    2.18
  -3  -5 -10    2.53    0.32
   3   5  10    3.59    0.34
   3   5  10    3.51    0.32
  -4  -5 -10   80.14    2.08
   4   5  10   77.27    1.94
   4   5  10   76.20    1.95
   4   5  10   81.18    1.96
  -5  -5 -10   26.41    0.97
   5   5  10   26.34    0.82
   5   5  10   26.10    0.87
  -6  -5 -10   78.97    2.14
   6   5  10   77.80    1.92
   6   5  10   81.24    2.10
   6   5  10   79.77    2.11
  -7  -5 -10    0.31    0.30
   7   5  10    1.11    0.34
   7   5  10    0.83    0.35
   8   5  10   24.97    1.08
   9   5  10    0.13    0.42
  -2   6  10   16.02    0.98
  -2   6  10   17.36    0.92
  -1   6  10    8.57    0.59
  -1   6  10    8.32    0.69
  -1   6  10    7.79    0.66
   0   6  10   16.85    0.78
   0   6  10   17.16    0.73
   0   6  10   15.00    0.83
  -1  -6 -10    2.26    0.31
   1   6  10    2.59    0.33
   1   6  10    2.57    0.40
   1   6  10    2.31    0.32
  -2  -6 -10   43.16    1.27
   2   6  10   41.06    1.31
   2   6  10   44.42    1.26
   2   6  10   43.31    1.20
  -3  -6 -10   40.68    1.23
   3   6  10   38.45    1.16
   3   6  10   39.72    1.21
  -4  -6 -10   58.09    1.62
   4   6  10   56.04    1.52
   4   6  10   55.74    1.54
  -5  -6 -10    0.63    0.29
   5   6  10    0.51    0.23
   5   6  10    0.31    0.21
  -6  -6 -10    0.57    0.32
   6   6  10    0.34    0.32
   6   6  10    0.93    0.22
   6   6  10    0.71    0.30
  -7  -6 -10   -0.07    0.31
   7   6  10   -0.13    0.31
   7   6  10    0.08    0.32
  -8  -6 -10   24.54    1.02
   8   6  10   23.59    1.07
   8   6  10   27.37    1.11
   9   6  10    1.58    0.48
  -1   7  10    2.70    0.49
  -1   7  10    3.53    0.44
  -1   7  10    2.75    0.54
   0   7  10    3.32    0.43
   0   7  10    3.78    0.54
   0   7  10    3.94    0.47
  -1  -7 -10    0.60    0.28
   1   7  10    0.71    0.31
   1   7  10    0.46    0.37
   1   7  10    0.51    0.30
  -2  -7 -10    7.76    0.57
   2   7  10    7.27    0.56
   2   7  10    8.03    0.62
  -3  -7 -10    5.52    0.48
   3   7  10    4.63    0.42
   3   7  10    6.55    0.53
  -4  -7 -10    0.13    0.28
   4   7  10    0.01    0.23
   4   7  10    0.21    0.27
  -5  -7 -10    0.71    0.33
   5   7  10    0.69    0.25
   5   7  10    0.70    0.28
  -6  -7 -10   19.17    0.87
   6   7  10   18.88    0.70
   6   7  10   17.36    0.91
  -7  -7 -10    4.02    0.47
   7   7  10    3.85    0.54
  -8  -7 -10    0.43    0.35
   8   7  10    0.07    0.40
   8   7  10    0.82    0.42
   1   8  10    0.26    0.34
   1   8  10    0.83    0.43
  -2  -8 -10    6.85    0.54
   2   8  10    6.62    0.61
   2   8  10    5.22    0.48
  -3  -8 -10    4.15    0.47
   3   8  10    5.06    0.48
   3   8  10    3.76    0.49
  -4  -8 -10    0.40    0.33
   4   8  10    0.50    0.30
   4   8  10    0.43    0.33
  -5  -8 -10   17.25    0.89
   5   8  10   17.48    0.83
   5   8  10   15.53    0.74
  -6  -8 -10    3.74    0.49
   6   8  10    3.36    0.38
  -7  -8 -10    2.78    0.46
   7   8  10    1.93    0.47
  -8  -8 -10    1.18    0.42
   8   8  10    1.32    0.48
  -3  -9 -10   -0.03    0.35
   3   9  10    0.55    0.42
   3   9  10    0.16    0.35
  -4  -9 -10   25.97    1.09
   4   9  10   24.24    0.98
   4   9  10   22.17    1.08
  -5  -9 -10    2.44    0.47
   5   9  10    2.08    0.38
   5   9  10    2.47    0.47
  -6  -9 -10    9.94    0.83
   6   9  10   10.26    0.66
   6   9  10   10.81    0.80
   5   6 -11    7.79    0.75
  -5  -6  11    7.73    0.71
   4   6 -11   21.12    1.16
  -4  -6  11   21.42    1.12
   3   6 -11    3.19    0.46
   3   6 -11    3.98    0.64
  -3  -6  11    3.09    0.55
   2   6 -11    3.37    0.47
   2   6 -11    3.87    0.64
  -2  -6  11    3.63    0.58
   1   6 -11   15.25    1.03
   1   6 -11   14.25    0.86
  -1  -6  11   17.73    1.09
   0   6 -11    3.54    0.51
   0   6 -11    4.95    0.65
   0  -6  11    3.10    0.59
   6   5 -11   33.92    1.47
   5   5 -11    8.55    0.76
   5   5 -11    9.21    0.80
  -5  -5  11    7.59    0.69
   4   5 -11    9.40    0.79
  -4  -5  11   10.63    0.82
   3   5 -11   10.90    0.70
   3   5 -11   11.41    0.88
  -3  -5  11   10.64    0.83
   2   5 -11   53.23    1.80
   2   5 -11   53.29    1.61
  -2  -5  11   53.45    1.75
   1   5 -11    2.78    0.52
   1   5 -11    1.69    0.39
  -1  -5  11    2.20    0.50
   0   5 -11   44.87    1.57
   0   5 -11   44.46    1.46
   0  -5  11   45.65    1.64
  -1   5 -11   -0.44    0.40
  -1   5 -11    0.02    0.34
   1  -5  11    0.77    0.43
  -2   5 -11   25.06    1.10
  -2   5 -11   25.89    1.22
   2  -5  11   23.96    1.36
   2  -5  11   26.19    1.57
   6   4 -11    7.27    0.78
   5   4 -11   14.80    0.94
  -5  -4  11   14.54    0.86
   4   4 -11   75.18    2.28
   4   4 -11   81.83    2.27
  -4  -4  11   79.87    2.22
   3   4 -11    2.57    0.49
   3   4 -11    1.15    0.31
   3   4 -11    1.76    0.39
  -3  -4  11    2.39    0.43
   2   4 -11   38.64    1.27
   2   4 -11   39.70    1.45
  -2  -4  11   39.06    1.38
   1   4 -11    4.63    0.45
   1   4 -11    5.80    0.60
  -1  -4  11    4.54    0.54
   0   4 -11   31.93    1.13
   0   4 -11   30.73    1.21
   0  -4  11   32.76    1.28
  -1   4 -11    0.77    0.39
  -1   4 -11    0.42    0.32
   1  -4  11    0.70    0.39
  -2   4 -11   59.27    1.84
  -2   4 -11   61.36    1.79
   2  -4  11   59.34    1.82
   2  -4  11   59.90    2.07
  -3   4 -11   12.40    0.80
  -3   4 -11   11.22    0.86
   3  -4  11   11.31    1.03
   6   3 -11   13.35    1.04
   5   3 -11    0.54    0.43
   4   3 -11   13.69    0.84
  -4  -3  11   13.72    0.79
   3   3 -11    4.94    0.55
   3   3 -11    5.26    0.40
   3   3 -11    5.22    0.53
  -3  -3  11    4.87    0.51
   2   3 -11   28.03    1.12
   2   3 -11   28.42    1.00
   2   3 -11   27.62    0.97
  -2  -3  11   28.67    1.11
   1   3 -11   10.69    0.64
   1   3 -11   11.73    0.77
  -1  -3  11   11.60    0.76
   0   3 -11    7.99    0.67
   0   3 -11    6.45    0.51
   0  -3  11    6.69    0.60
  -1   3 -11    2.29    0.36
  -1   3 -11    2.70    0.44
   1  -3  11    2.85    0.45
  -2   3 -11    4.94    0.49
  -2   3 -11    5.97    0.55
   2  -3  11    6.90    0.57
   2  -3  11    7.30    0.75
  -3   3 -11    4.42    0.47
  -3   3 -11    3.78    0.50
   3  -3  11    4.81    0.49
   3  -3  11    3.74    0.61
  -4   3 -11    6.53    0.60
  -4   3 -11    6.24    0.57
   4  -3  11    6.31    0.75
  -5   3 -11   12.53    0.85
  -5   3 -11   13.38    0.86
   5  -3  11   12.09    1.05
   6   2 -11    3.42    0.65
   5   2 -11   11.05    0.92
   4   2 -11    3.06    0.52
  -4  -2  11    3.74    0.45
   3   2 -11   14.70    0.81
  -3  -2  11   13.81    0.75
   2   2 -11    1.02    0.24
   2   2 -11    0.93    0.36
   2   2 -11    1.52    0.35
  -2  -2  11    0.86    0.32
   1   2 -11    0.06    0.23
   1   2 -11    0.03    0.23
   1   2 -11   -0.15    0.29
  -1  -2  11    0.00    0.29
   0   2 -11   27.05    1.05
   0   2 -11   27.46    0.98
   0  -2  11   28.83    1.09
  -1   2 -11    0.04    0.24
  -1   2 -11   -0.28    0.28
   1  -2  11    0.07    0.28
  -2   2 -11    7.47    0.57
  -2   2 -11    7.30    0.60
   2  -2  11    6.42    0.66
   2  -2  11    7.31    0.62
  -3   2 -11    5.75    0.51
  -3   2 -11    6.94    0.58
   3  -2  11    6.18    0.67
   3  -2  11    6.52    0.53
  -4   2 -11   11.62    0.71
  -4   2 -11   10.40    0.70
   4  -2  11   10.09    0.90
  -5   2 -11    0.01    0.35
  -5   2 -11    0.02    0.32
   5  -2  11    0.99    0.48
   6  -2  11    1.11    0.55
   6   1 -11    0.25    0.52
  -6  -1  11    0.33    0.49
   5   1 -11    0.03    0.44
  -5  -1  11    0.17    0.40
   4   1 -11   34.33    1.35
   3   1 -11    2.54    0.45
  -3  -1  11    2.68    0.38
   2   1 -11    6.62    0.41
   2   1 -11    6.61    0.58
  -2  -1  11    6.45    0.51
   1   1 -11    0.67    0.32
   1   1 -11    0.11    0.20
   1   1 -11   -0.16    0.24
  -1  -1  11    0.27    0.28
   0   1 -11   54.50    1.57
   0   1 -11   56.50    1.63
   0  -1  11   58.93    1.67
  -1   1 -11    9.75    0.63
  -1   1 -11    9.21    0.58
   1  -1  11   11.20    0.66
  -2   1 -11   79.21    2.09
  -2   1 -11   79.95    2.09
   2  -1  11   80.33    2.15
   2  -1  11   75.71    2.26
  -3   1 -11    0.73    0.28
  -3   1 -11    0.46    0.29
   3  -1  11    0.80    0.40
   3  -1  11    0.50    0.29
  -4   1 -11   17.77    0.80
  -4   1 -11   16.90    0.77
   4  -1  11   16.84    0.72
   4  -1  11   15.84    0.94
  -5   1 -11    1.72    0.37
  -5   1 -11    1.86    0.39
   5  -1  11    1.86    0.49
   6  -1  11   17.90    1.09
  -6   0  11   45.74    1.75
  -5   0  11    5.69    0.68
  -4   0  11   28.66    1.22
  -3   0  11    2.49    0.35
  -3   0  11    3.15    0.46
   2   0 -11  246.91    5.74
  -2   0  11  264.73    5.93
  -2   0  11  257.44    6.00
   1   0 -11   44.04    1.21
  -1   0  11   42.56    1.32
   0   0 -11   91.52    2.35
   0   0 -11   97.91    2.45
   0   0  11   94.99    2.45
  -1   0 -11    2.00    0.30
  -1   0 -11    2.34    0.34
   1   0  11    2.69    0.37
   1   0  11    2.99    0.29
  -2   0 -11   55.68    1.52
  -2   0 -11   54.09    1.53
   2   0  11   52.10    1.55
   2   0  11   51.06    1.63
  -3   0 -11   16.79    0.72
  -3   0 -11   17.66    0.77
   3   0  11   16.69    0.86
  -4   0 -11   33.54    1.15
  -4   0 -11   34.31    1.07
   4   0  11   33.22    1.05
   4   0  11   35.41    1.30
  -5   0 -11   48.58    1.39
  -5   0 -11   48.94    1.50
   5   0  11   47.63    1.64
  -6   0 -11    4.12    0.48
   6   0  11    4.15    0.58
   7   0  11    1.16    0.52
  -6   1  11   26.44    1.35
  -5   1  11    1.12    0.50
  -4   1  11   71.75    2.17
  -3   1  11   22.69    1.03
  -3   1  11   23.26    0.87
  -2   1  11   58.74    1.77
  -2   1  11   62.30    1.69
   1  -1 -11   23.12    0.75
  -1   1  11   24.47    0.90
  -1   1  11   24.55    0.93
   0  -1 -11  141.90    3.43
   0   1  11  147.03    3.49
   0   1  11  147.87    3.54
  -1  -1 -11   71.14    1.85
  -1  -1 -11   73.81    1.89
   1   1  11   66.23    1.90
   1   1  11   71.35    1.81
  -2  -1 -11   38.60    1.16
  -2  -1 -11   39.75    1.19
   2   1  11   37.79    1.03
   2   1  11   38.94    1.24
  -3  -1 -11  110.10    2.77
  -3  -1 -11  109.02    2.70
   3   1  11  110.61    2.83
   3   1  11  111.33    2.74
  -4  -1 -11   28.76    0.95
  -4  -1 -11   30.06    1.05
   4   1  11   31.19    1.11
   4   1  11   29.89    0.94
  -5  -1 -11   47.99    1.46
   5   1  11   45.93    1.53
  -6  -1 -11   19.76    0.91
   6   1  11   20.54    1.01
   7   1  11   56.52    1.88
  -5   2  11    4.65    0.67
  -4   2  11   21.74    1.11
  -3   2  11    1.45    0.42
  -2   2  11   48.19    1.53
   1  -2 -11   68.86    1.64
  -1   2  11   62.54    1.83
   0  -2 -11   10.52    0.50
   0   2  11    9.77    0.57
   0   2  11    8.94    0.56
  -1  -2 -11   65.19    1.74
   1   2  11   66.10    1.70
   1   2  11   65.30    1.78
   1   2  11   68.23    1.73
  -2  -2 -11   85.34    2.22
   2   2  11   90.81    2.11
   2   2  11   86.23    2.23
   2   2  11   84.86    2.18
  -3  -2 -11   69.41    1.86
  -3  -2 -11   69.48    1.76
   3   2  11   66.20    1.79
   3   2  11   68.62    1.82
  -4  -2 -11   37.43    1.20
  -4  -2 -11   36.27    1.06
   4   2  11   36.51    1.07
   4   2  11   36.84    1.19
  -5  -2 -11   44.63    1.37
   5   2  11   43.18    1.39
   5   2  11   43.11    1.16
  -6  -2 -11    0.08    0.29
   6   2  11    0.27    0.35
   7   2  11   13.71    0.89
   8   2  11    2.80    0.57
  -4   3  11    9.52    0.80
  -4   3  11    9.92    0.77
  -3   3  11    5.83    0.61
  -2   3  11    3.09    0.37
  -2   3  11    2.95    0.46
   1  -3 -11    1.79    0.22
  -1   3  11    0.92    0.33
  -1   3  11    0.83    0.26
   0  -3 -11   12.58    0.54
   0   3  11   13.18    0.62
   0   3  11   12.76    0.66
  -1  -3 -11   35.03    1.07
   1   3  11   35.91    1.11
   1   3  11   36.78    1.12
  -2  -3 -11    2.01    0.31
   2   3  11    2.32    0.30
   2   3  11    2.30    0.28
   2   3  11    1.91    0.23
  -3  -3 -11    1.68    0.31
   3   3  11    1.77    0.21
   3   3  11    1.31    0.24
   3   3  11    1.29    0.24
  -4  -3 -11    4.67    0.45
   4   3  11    3.81    0.32
   4   3  11    4.87    0.43
  -5  -3 -11   15.51    0.76
   5   3  11   16.09    0.73
   5   3  11   14.46    0.56
  -6  -3 -11    3.03    0.42
   6   3  11    3.74    0.46
  -7  -3 -11    5.99    0.54
   7   3  11    4.93    0.56
   8   3  11    4.88    0.60
  -4   4  11    1.93    0.50
  -4   4  11    1.81    0.56
  -3   4  11    7.12    0.65
  -3   4  11    7.62    0.72
  -2   4  11    0.33    0.37
  -2   4  11   -0.29    0.24
  -1   4  11    1.23    0.30
  -1   4  11    0.88    0.36
   0  -4 -11   25.45    0.80
   0   4  11   24.13    0.95
   0   4  11   25.76    0.90
  -1  -4 -11   17.08    0.67
   1   4  11   17.62    0.72
   1   4  11   17.46    0.75
  -2  -4 -11   -0.10    0.21
   2   4  11    0.26    0.22
   2   4  11    0.07    0.22
  -3  -4 -11    5.04    0.43
   3   4  11    5.54    0.42
   3   4  11    5.01    0.34
   3   4  11    5.22    0.38
  -4  -4 -11    0.43    0.28
   4   4  11    0.35    0.21
   4   4  11    0.08    0.20
  -5  -4 -11    6.13    0.51
   5   4  11    6.79    0.40
   5   4  11    6.98    0.49
  -6  -4 -11    4.60    0.48
   6   4  11    5.55    0.50
  -7  -4 -11    9.82    0.70
   7   4  11    9.91    0.73
   8   4  11    1.17    0.46
  -3   5  11    9.91    0.82
  -3   5  11    9.47    0.82
  -2   5  11    1.91    0.47
  -2   5  11    2.39    0.46
  -2   5  11    2.35    0.46
  -1   5  11   18.14    0.95
  -1   5  11   21.32    0.91
  -1   5  11   20.92    0.83
   0  -5 -11    0.03    0.20
   0   5  11   -0.23    0.29
   0   5  11   -0.03    0.27
   0   5  11    0.01    0.26
  -1  -5 -11   37.78    1.14
   1   5  11   38.36    1.17
   1   5  11   39.06    1.25
   1   5  11   38.40    1.15
  -2  -5 -11    5.82    0.44
   2   5  11    5.96    0.40
   2   5  11    6.02    0.50
   2   5  11    6.25    0.48
  -3  -5 -11   55.45    1.56
   3   5  11   54.58    1.49
   3   5  11   52.98    1.48
  -4  -5 -11    0.12    0.27
   4   5  11    0.01    0.21
   4   5  11    0.15    0.20
  -5  -5 -11   25.84    1.01
   5   5  11   26.97    0.86
   5   5  11   27.75    0.91
  -6  -5 -11    0.13    0.31
   6   5  11    0.15    0.19
   6   5  11   -0.35    0.26
   6   5  11    0.10    0.28
  -7  -5 -11   43.90    1.44
   7   5  11   43.49    1.43
   8   5  11    0.02    0.37
  -2   6  11    4.08    0.56
  -2   6  11    3.20    0.58
  -1   6  11   16.42    0.94
  -1   6  11   14.91    0.76
  -1   6  11   15.34    0.84
   0   6  11   16.76    0.88
   0   6  11   15.63    0.78
   0   6  11   15.47    0.74
  -1  -6 -11   86.51    2.22
   1   6  11   88.87    2.26
   1   6  11   87.79    2.37
   1   6  11   86.80    2.24
  -2  -6 -11    0.04    0.26
   2   6  11    0.21    0.28
   2   6  11    0.00    0.28
   2   6  11    0.07    0.25
  -3  -6 -11   32.55    1.10
   3   6  11   31.24    1.05
   3   6  11   35.11    1.10
  -4  -6 -11    1.22    0.31
   4   6  11    1.16    0.28
   4   6  11    1.26    0.28
  -5  -6 -11   35.96    1.23
   5   6  11   34.51    1.06
  -6  -6 -11   10.53    0.71
   6   6  11    8.53    0.69
   6   6  11    9.43    0.50
  -7  -6 -11   37.64    1.32
   7   6  11   39.89    1.35
   7   6  11   39.11    1.30
  -8  -6 -11   14.82    0.86
   8   6  11   16.08    0.89
  -1   7  11   16.11    0.93
  -1   7  11   15.86    1.01
  -1   7  11   16.38    0.84
   0   7  11    0.15    0.32
   0   7  11    0.16    0.42
   0   7  11   -0.22    0.33
  -1  -7 -11   26.47    0.96
   1   7  11   28.52    1.15
   1   7  11   26.91    1.00
   1   7  11   26.37    1.00
  -2  -7 -11   -0.03    0.28
   2   7  11    0.13    0.34
   2   7  11    0.24    0.29
  -3  -7 -11   28.25    1.05
   3   7  11   30.45    1.09
   3   7  11   29.39    1.02
  -4  -7 -11    8.83    0.65
   4   7  11    8.03    0.57
   4   7  11    8.56    0.61
  -5  -7 -11   38.42    1.27
   5   7  11   36.70    1.18
   5   7  11   35.45    1.13
  -6  -7 -11    5.19    0.53
   6   7  11    5.58    0.47
  -7  -7 -11   12.62    0.81
   7   7  11   12.89    0.85
  -8  -7 -11    6.47    0.61
   8   7  11    6.11    0.65
   1   8  11   12.37    0.77
   1   8  11   12.20    0.90
  -2  -8 -11    7.57    0.64
   2   8  11    7.98    0.68
   2   8  11    8.21    0.66
  -3  -8 -11   11.75    0.75
   3   8  11   10.73    0.69
   3   8  11   10.81    0.78
  -4  -8 -11   -0.01    0.33
   4   8  11    0.13    0.29
   4   8  11   -0.06    0.31
  -5  -8 -11   13.56    0.82
   5   8  11   14.10    0.79
   5   8  11   14.56    0.72
  -6  -8 -11    0.28    0.37
   6   8  11   -0.17    0.26
  -7  -8 -11    0.20    0.38
   7   8  11    0.17    0.41
  -4  -9 -11    0.06    0.37
   4   9  11    0.28    0.35
   4   9  11    0.33    0.40
  -5  -9 -11    0.92    0.43
   5   9  11    0.97    0.36
   5   9  11    1.36    0.43
   3   6 -12    6.17    0.74
   3   6 -12    5.04    0.56
  -3  -6  12    5.49    0.69
   2   6 -12    9.39    0.86
   2   6 -12    8.75    0.70
  -2  -6  12    9.28    0.83
   1   6 -12    1.40    0.56
   1   6 -12   -0.28    0.37
  -1  -6  12    0.36    0.48
   5   5 -12    6.95    0.75
  -5  -5  12    5.73    0.66
   4   5 -12    5.52    0.68
  -4  -5  12    5.87    0.65
   3   5 -12   13.39    0.80
   3   5 -12   15.79    1.02
  -3  -5  12   15.87    1.01
   2   5 -12    1.26    0.38
   2   5 -12    0.66    0.48
  -2  -5  12    0.65    0.44
   1   5 -12    4.34    0.62
   1   5 -12    4.91    0.53
  -1  -5  12    4.93    0.61
   0   5 -12   -0.22    0.33
   0   5 -12    0.74    0.47
   0  -5  12    0.34    0.44
  -1   5 -12   22.14    1.06
  -1   5 -12   22.40    1.16
   1  -5  12   21.87    1.13
   5   4 -12   16.97    1.05
  -5  -4  12   16.23    0.98
   4   4 -12    4.05    0.55
   4   4 -12    3.45    0.55
  -4  -4  12    3.45    0.52
   3   4 -12   12.92    0.69
   3   4 -12   14.52    0.93
  -3  -4  12   14.01    0.89
   2   4 -12   -0.19    0.27
   2   4 -12    0.84    0.43
  -2  -4  12   -0.28    0.37
   1   4 -12   54.16    1.78
   1   4 -12   51.22    1.61
  -1  -4  12   55.11    1.79
   0   4 -12    8.57    0.69
   0   4 -12    9.03    0.74
   0  -4  12    8.70    0.73
  -1   4 -12   29.93    1.16
  -1   4 -12   29.73    1.23
   1  -4  12   28.34    1.22
  -2   4 -12    0.74    0.43
  -2   4 -12    0.18    0.36
   2  -4  12    0.79    0.38
   2  -4  12   -0.27    0.48
  -3   4 -12   19.78    1.02
  -3   4 -12   18.17    1.02
   3  -4  12   19.00    1.25
   6   3 -12    1.07    0.56
   5   3 -12   28.60    1.32
   4   3 -12   -0.01    0.39
  -4  -3  12    0.25    0.36
   3   3 -12   48.20    1.62
   3   3 -12   50.36    1.59
  -3  -3  12   50.29    1.62
   2   3 -12   16.64    0.92
   2   3 -12   16.80    0.76
  -2  -3  12   16.21    0.91
   1   3 -12   20.73    1.03
   1   3 -12   21.75    0.90
  -1  -3  12   20.86    1.02
   0   3 -12   16.28    0.88
   0   3 -12   16.14    0.79
   0  -3  12   15.36    0.89
  -1   3 -12   45.13    1.50
  -1   3 -12   44.03    1.42
   1  -3  12   43.98    1.50
  -2   3 -12   54.83    1.69
  -2   3 -12   56.89    1.73
   2  -3  12   56.15    1.74
   2  -3  12   56.22    1.95
  -3   3 -12    8.68    0.69
  -3   3 -12    7.68    0.61
   3  -3  12    7.90    0.62
   3  -3  12    7.87    0.82
  -4   3 -12    9.33    0.78
  -4   3 -12    8.97    0.78
   4  -3  12    7.41    0.82
   6   2 -12    3.21    0.67
   5   2 -12   28.14    1.34
   4   2 -12   10.98    0.85
  -4  -2  12   10.89    0.75
   3   2 -12   23.65    1.06
  -3  -2  12   25.22    1.06
   2   2 -12    0.90    0.35
   2   2 -12    0.64    0.24
   2   2 -12    0.57    0.35
  -2  -2  12    0.33    0.33
   1   2 -12   99.18    2.49
   1   2 -12   96.80    2.60
  -1  -2  12   95.64    2.61
   0   2 -12   26.22    1.07
   0   2 -12   25.35    0.97
   0  -2  12   26.25    1.06
  -1   2 -12    0.83    0.30
  -1   2 -12    1.14    0.39
   1  -2  12    0.30    0.30
  -2   2 -12   33.03    1.18
  -2   2 -12   32.61    1.16
   2  -2  12   32.56    1.21
   2  -2  12   33.61    1.40
  -3   2 -12    7.77    0.66
  -3   2 -12    6.96    0.57
   3  -2  12    7.13    0.57
   3  -2  12    5.21    0.67
  -4   2 -12   41.23    1.37
  -4   2 -12   40.59    1.36
   4  -2  12   37.59    1.59
  -5   2 -12    1.38    0.42
  -5   2 -12    1.15    0.42
   5  -2  12    1.36    0.53
   6   1 -12    0.57    0.54
  -6  -1  12   -0.16    0.48
   5   1 -12    4.14    0.65
  -5  -1  12    5.44    0.68
   4   1 -12    0.26    0.42
   3   1 -12    8.88    0.76
  -3  -1  12    9.75    0.68
   2   1 -12    3.04    0.31
   2   1 -12    3.67    0.45
  -2  -1  12    3.13    0.43
   1   1 -12    0.18    0.31
   1   1 -12    0.24    0.21
  -1  -1  12   -0.07    0.28
   0   1 -12    1.19    0.29
   0   1 -12    1.33    0.35
   0  -1  12    1.60    0.34
  -1   1 -12    0.41    0.26
  -1   1 -12    0.37    0.31
   1  -1  12   -0.06    0.28
  -2   1 -12    2.53    0.40
  -2   1 -12    2.79    0.37
   2  -1  12    2.68    0.40
   2  -1  12    3.15    0.53
  -3   1 -12   11.28    0.70
  -3   1 -12   13.80    0.71
   3  -1  12   11.54    0.71
   3  -1  12   11.53    0.88
  -4   1 -12    0.51    0.32
  -4   1 -12    0.43    0.32
   4  -1  12    0.80    0.45
   4  -1  12    0.43    0.29
  -5   1 -12    0.29    0.33
  -5   1 -12    0.07    0.32
   5  -1  12    0.40    0.47
   6  -1  12   11.16    0.99
  -6   0  12    0.00    0.52
  -5   0  12    0.27    0.44
  -4   0  12    5.74    0.62
  -3   0  12    4.57    0.55
  -3   0  12    2.49    0.36
   2   0 -12   20.45    0.68
  -2   0  12   21.50    0.87
  -2   0  12   22.30    0.94
   1   0 -12    1.01    0.23
  -1   0  12    0.71    0.30
  -1   0  12    1.04    0.30
   0   0 -12   24.14    0.87
   0   0 -12   25.34    0.96
   0   0  12   25.26    0.88
   0   0  12   24.31    0.97
  -1   0 -12    3.45    0.38
  -1   0 -12    3.55    0.41
   1   0  12    3.41    0.43
   1   0  12    4.70    0.39
  -2   0 -12   15.72    0.74
  -2   0 -12   15.91    0.74
   2   0  12   15.55    0.78
   2   0  12   15.03    0.83
  -3   0 -12    3.43    0.40
  -3   0 -12    3.06    0.40
   3   0  12    2.90    0.47
  -4   0 -12    1.04    0.33
  -4   0 -12    0.97    0.30
   4   0  12    0.78    0.28
   4   0  12    1.04    0.43
  -5   0 -12   17.23    0.85
   5   0  12   15.65    0.96
  -6   0 -12    2.44    0.44
   6   0  12    2.25    0.54
   7   0  12    1.17    0.57
  -5   1  12    4.51    0.68
  -4   1  12   27.34    1.24
  -3   1  12    9.42    0.77
  -3   1  12    9.25    0.61
  -2   1  12    2.37    0.36
  -2   1  12    2.37    0.42
   1  -1 -12   16.70    0.64
  -1   1  12   20.51    0.83
  -1   1  12   17.78    0.81
   0  -1 -12   85.66    2.18
   0   1  12   87.16    2.30
   0   1  12   87.65    2.25
  -1  -1 -12    2.37    0.33
  -1  -1 -12    2.38    0.36
   1   1  12    2.45    0.32
   1   1  12    2.23    0.37
  -2  -1 -12   86.33    2.23
  -2  -1 -12   89.11    2.22
   2   1  12   82.18    2.28
  -3  -1 -12   23.61    0.90
  -3  -1 -12   22.70    0.84
   3   1  12   21.49    0.88
   3   1  12   21.87    0.95
  -4  -1 -12   94.51    2.41
  -4  -1 -12   89.98    2.31
   4   1  12   89.78    2.31
   4   1  12   89.50    2.48
  -5  -1 -12   -0.21    0.26
   5   1  12    0.27    0.35
  -6  -1 -12   31.92    1.18
   6   1  12   31.06    1.29
   7   1  12    2.08    0.55
  -5   2  12   14.52    1.09
  -4   2  12   32.36    1.35
  -3   2  12    8.69    0.74
  -2   2  12  105.20    2.81
   1  -2 -12    4.80    0.35
  -1   2  12    4.94    0.48
   0  -2 -12   94.73    2.39
   0   2  12   96.39    2.49
   0   2  12   99.99    2.50
  -1  -2 -12   65.99    1.72
   1   2  12   61.75    1.69
   1   2  12   62.65    1.77
   1   2  12   63.49    1.68
  -2  -2 -12  129.20    3.14
   2   2  12  128.29    3.16
   2   2  12  122.48    3.09
   2   2  12  130.47    3.01
  -3  -2 -12    0.34    0.24
  -3  -2 -12   -0.06    0.24
   3   2  12   -0.05    0.22
   3   2  12    0.31    0.27
  -4  -2 -12   40.20    1.29
   4   2  12   37.71    1.16
   4   2  12   39.07    1.28
  -5  -2 -12    1.11    0.33
   5   2  12    0.86    0.22
   5   2  12    0.99    0.36
  -6  -2 -12   81.90    2.22
   6   2  12   78.02    2.28
   7   2  12    0.84    0.46
   8   2  12   13.40    1.03
  -4   3  12   13.28    1.01
  -3   3  12    4.03    0.58
  -2   3  12   33.29    1.31
  -2   3  12   37.19    1.17
   1  -3 -12   11.68    0.53
  -1   3  12   11.02    0.64
  -1   3  12   11.43    0.73
   0  -3 -12  109.99    2.58
   0   3  12  107.37    2.67
   0   3  12  100.20    2.70
  -1  -3 -12    5.67    0.44
   1   3  12    4.53    0.41
   1   3  12    5.99    0.46
  -2  -3 -12   45.31    1.37
   2   3  12   47.63    1.38
   2   3  12   49.58    1.32
   2   3  12   45.10    1.25
  -3  -3 -12    3.72    0.39
   3   3  12    3.57    0.34
   3   3  12    3.52    0.37
  -4  -3 -12  121.18    3.06
   4   3  12  122.60    2.99
   4   3  12  121.33    2.94
  -5  -3 -12   33.76    1.17
   5   3  12   30.44    0.96
   5   3  12   33.02    1.14
  -6  -3 -12   20.75    0.95
   6   3  12   21.47    0.96
  -7  -3 -12    7.28    0.61
   7   3  12    6.87    0.66
   8   3  12   35.23    1.43
  -3   4  12    1.15    0.49
  -3   4  12    1.86    0.47
  -2   4  12    9.71    0.66
  -2   4  12   10.03    0.80
  -1   4  12    1.33    0.40
  -1   4  12    2.52    0.37
   0  -4 -12    3.30    0.32
   0   4  12    3.05    0.42
   0   4  12    3.27    0.38
  -1  -4 -12    0.26    0.23
   1   4  12    0.04    0.26
   1   4  12    0.21    0.26
  -2  -4 -12   68.36    1.90
   2   4  12   74.06    1.89
   2   4  12   72.06    1.90
  -3  -4 -12   19.70    0.85
   3   4  12   21.20    0.79
   3   4  12   21.01    0.73
  -4  -4 -12   28.11    1.04
   4   4  12   26.65    0.91
   4   4  12   27.86    0.89
  -5  -4 -12    0.24    0.30
   5   4  12    0.13    0.26
   5   4  12    0.34    0.22
  -6  -4 -12   12.12    0.78
   6   4  12   14.89    0.77
  -7  -4 -12    8.55    0.72
   7   4  12   10.41    0.75
   8   4  12    6.14    0.68
  -3   5  12    2.71    0.61
  -3   5  12    2.88    0.54
  -2   5  12   -0.45    0.40
  -2   5  12   -0.06    0.38
  -1   5  12    0.49    0.30
  -1   5  12    0.26    0.38
  -1   5  12    0.75    0.37
   0  -5 -12    1.56    0.27
   0   5  12    2.19    0.37
   0   5  12    1.22    0.38
   0   5  12    1.66    0.34
  -1  -5 -12    0.83    0.26
   1   5  12    0.91    0.29
   1   5  12    0.98    0.34
  -2  -5 -12    1.43    0.30
   2   5  12    2.39    0.36
   2   5  12    1.76    0.31
  -3  -5 -12    0.05    0.26
   3   5  12    0.14    0.24
   3   5  12   -0.03    0.22
  -4  -5 -12    4.62    0.46
   4   5  12    4.42    0.39
  -5  -5 -12   20.41    0.91
   5   5  12   19.82    0.75
  -6  -5 -12   10.02    0.72
   6   5  12    9.74    0.50
   6   5  12    9.35    0.64
   6   5  12    9.34    0.63
  -7  -5 -12   -0.41    0.33
   7   5  12    0.54    0.36
  -8  -5 -12    0.06    0.36
   8   5  12    0.67    0.45
  -2   6  12    6.27    0.78
  -2   6  12    6.94    0.68
  -1   6  12    1.26    0.47
  -1   6  12    1.68    0.44
  -1   6  12    1.77    0.37
   0   6  12   37.07    1.27
   0   6  12   37.99    1.24
   0   6  12   39.55    1.40
  -1  -6 -12    3.81    0.40
   1   6  12    3.77    0.49
   1   6  12    3.84    0.42
   1   6  12    4.58    0.44
  -2  -6 -12    2.37    0.36
   2   6  12    2.17    0.35
   2   6  12    2.26    0.41
  -3  -6 -12   -0.08    0.26
   3   6  12   -0.09    0.28
   3   6  12   -0.24    0.24
  -4  -6 -12   35.79    1.24
   4   6  12   37.37    1.15
   4   6  12   36.35    1.15
  -5  -6 -12   25.04    1.05
   5   6  12   26.14    0.90
  -6  -6 -12    6.18    0.56
   6   6  12    5.82    0.45
  -7  -6 -12    0.30    0.36
   7   6  12    0.90    0.38
  -8  -6 -12    6.00    0.59
   8   6  12    6.01    0.63
   0   7  12    5.32    0.64
   0   7  12    5.79    0.58
   0   7  12    6.85    0.56
  -1  -7 -12    6.57    0.51
   1   7  12    8.28    0.69
   1   7  12    7.11    0.74
   1   7  12    8.45    0.67
  -2  -7 -12   29.38    1.06
   2   7  12   29.18    1.07
   2   7  12   30.24    1.18
  -3  -7 -12   17.26    0.84
   3   7  12   17.84    0.87
   3   7  12   17.85    0.81
  -4  -7 -12   13.46    0.79
   4   7  12   12.47    0.69
   4   7  12   12.90    0.72
  -5  -7 -12   16.21    0.87
   5   7  12   15.45    0.72
  -6  -7 -12   19.99    0.96
   6   7  12   17.97    0.75
  -7  -7 -12   29.19    1.18
   7   7  12   26.40    1.17
  -8  -7 -12    7.38    0.65
   8   7  12    7.26    0.79
   1   8  12   12.91    0.97
   1   8  12   13.72    0.83
  -2  -8 -12   13.91    0.78
   2   8  12   13.01    0.81
   2   8  12   13.09    0.90
  -3  -8 -12    5.04    0.52
   3   8  12    5.17    0.57
   3   8  12    4.41    0.49
  -4  -8 -12   25.13    1.08
   4   8  12   24.87    0.99
   4   8  12   26.08    1.08
  -5  -8 -12   16.04    0.92
   5   8  12   17.11    0.94
   5   8  12   17.59    0.81
  -6  -8 -12    0.34    0.39
   6   8  12    0.11    0.28
  -7  -8 -12   15.86    0.97
   7   8  12   16.19    1.00
   4   5 -13    4.03    0.62
  -4  -5  13    4.31    0.64
   3   5 -13    1.47    0.53
  -3  -5  13    1.15    0.49
   2   5 -13   -0.19    0.46
   2   5 -13    0.54    0.37
  -2  -5  13    0.43    0.47
   1   5 -13    3.44    0.62
   1   5 -13    3.44    0.50
  -1  -5  13    4.70    0.66
   0   5 -13   -0.33    0.37
   0   5 -13    0.04    0.49
   0  -5  13    0.69    0.46
  -1   5 -13    2.76    0.60
  -1   5 -13    2.40    0.51
   1  -5  13    3.01    0.54
   5   4 -13    5.55    0.70
  -5  -4  13    4.13    0.64
   4   4 -13    6.16    0.69
  -4  -4  13    6.95    0.70
   3   4 -13    0.10    0.44
  -3  -4  13    0.24    0.41
   2   4 -13    3.28    0.57
   2   4 -13    3.24    0.44
  -2  -4  13    2.63    0.52
   1   4 -13    5.87    0.68
   1   4 -13    4.60    0.52
  -1  -4  13    4.43    0.60
   0   4 -13    6.25    0.68
   0   4 -13    6.19    0.57
   0  -4  13    6.62    0.66
  -1   4 -13    2.99    0.49
  -1   4 -13    4.61    0.63
   1  -4  13    3.07    0.52
  -2   4 -13   17.05    0.96
  -2   4 -13   17.29    1.03
   2  -4  13   19.14    1.00
   2  -4  13   15.84    1.15
   5   3 -13   27.93    1.36
   4   3 -13   11.04    0.88
  -4  -3  13   10.04    0.83
   3   3 -13    2.54    0.51
   3   3 -13    2.69    0.50
  -3  -3  13    2.69    0.50
   2   3 -13   36.15    1.40
   2   3 -13   39.09    1.24
  -2  -3  13   39.37    1.44
   1   3 -13   26.66    1.15
   1   3 -13   24.59    1.00
  -1  -3  13   24.14    1.12
   0   3 -13    9.99    0.82
   0   3 -13    9.62    0.70
   0  -3  13    9.54    0.78
  -1   3 -13   19.39    1.02
  -1   3 -13   21.38    0.97
   1  -3  13   21.38    1.00
  -2   3 -13    2.94    0.52
  -2   3 -13    2.51    0.44
   2  -3  13    2.93    0.47
   2  -3  13    3.23    0.62
  -3   3 -13   11.44    0.82
  -3   3 -13   10.26    0.83
   3  -3  13   10.69    0.96
   3  -3  13    9.91    0.76
  -4   3 -13   17.53    1.00
  -4   3 -13   16.81    0.98
   4  -3  13   15.95    1.19
   5   2 -13    5.63    0.72
   4   2 -13   41.40    1.56
  -4  -2  13   43.21    1.49
   3   2 -13   49.06    1.61
  -3  -2  13   46.95    1.59
   2   2 -13    5.06    0.52
   2   2 -13    3.60    0.50
   2   2 -13    4.81    0.41
  -2  -2  13    3.98    0.50
   1   2 -13   56.24    1.62
   1   2 -13   58.24    1.76
  -1  -2  13   54.90    1.76
   0   2 -13   13.11    0.82
   0   2 -13   12.74    0.72
   0  -2  13   12.23    0.80
  -1   2 -13   60.97    1.84
  -1   2 -13   60.67    1.79
   1  -2  13   61.03    1.83
  -2   2 -13   30.76    1.19
  -2   2 -13   31.33    1.17
   2  -2  13   31.33    1.36
   2  -2  13   31.77    1.21
  -3   2 -13   55.49    1.71
  -3   2 -13   57.34    1.72
   3  -2  13   53.98    1.93
   3  -2  13   54.74    1.70
  -4   2 -13    0.48    0.38
  -4   2 -13    0.18    0.37
   4  -2  13    0.38    0.52
  -5   2 -13   14.84    0.93
  -5   2 -13   13.89    0.86
   5  -2  13   12.24    1.04
   5   1 -13   48.08    1.80
  -5  -1  13   46.32    1.74
   4   1 -13    3.18    0.57
  -4  -1  13    5.05    0.60
   3   1 -13   19.59    1.01
  -3  -1  13   20.77    0.94
   2   1 -13   30.95    0.96
  -2  -1  13   31.13    1.16
   1   1 -13   85.69    2.35
   1   1 -13   84.85    2.20
  -1  -1  13   86.82    2.34
   0   1 -13    2.29    0.35
   0   1 -13    2.26    0.40
   0  -1  13    2.86    0.42
  -1   1 -13   61.11    1.78
  -1   1 -13   59.01    1.73
   1  -1  13   59.50    1.79
  -2   1 -13    0.73    0.36
  -2   1 -13    0.55    0.30
   2  -1  13    0.90    0.35
   2  -1  13    0.36    0.42
  -3   1 -13   59.20    1.72
  -3   1 -13   56.77    1.67
   3  -1  13   55.00    1.69
   3  -1  13   52.64    1.87
  -4   1 -13    0.57    0.35
  -4   1 -13    0.34    0.34
   4  -1  13    0.71    0.32
   4  -1  13    0.47    0.46
  -5   1 -13   45.45    1.51
   5  -1  13   40.97    1.68
  -6   1 -13   11.51    0.87
   6  -1  13   11.46    1.00
  -5   0  13    0.86    0.50
  -4   0  13   22.59    1.15
  -3   0  13   86.97    2.47
  -3   0  13   87.93    2.34
  -2   0  13    0.01    0.29
  -2   0  13    0.52    0.33
   1   0 -13   33.70    1.07
  -1   0  13   37.33    1.24
  -1   0  13   35.56    1.20
   0   0 -13   18.48    0.87
   0   0 -13   19.88    0.79
   0   0  13   20.44    0.90
   0   0  13   19.25    0.79
  -1   0 -13   16.93    0.77
  -1   0 -13   19.30    0.83
   1   0  13   17.69    0.85
  -2   0 -13    8.36    0.60
  -2   0 -13    7.86    0.61
   2   0  13    7.08    0.58
   2   0  13    8.26    0.72
  -3   0 -13   71.69    1.94
  -3   0 -13   71.76    1.98
   3   0  13   65.10    2.08
  -4   0 -13   28.13    1.02
  -4   0 -13   27.03    1.06
   4   0  13   26.23    1.00
   4   0  13   24.56    1.21
  -5   0 -13    4.98    0.52
   5   0  13    4.17    0.63
  -6   0 -13    0.34    0.36
   6   0  13   -0.06    0.47
  -5   1  13    1.39    0.55
  -4   1  13    0.48    0.46
  -3   1  13   -0.02    0.29
  -3   1  13    0.52    0.41
  -2   1  13    0.35    0.29
  -2   1  13   -0.06    0.33
   1  -1 -13    6.10    0.43
  -1   1  13    7.48    0.61
  -1   1  13    7.20    0.60
   0  -1 -13    5.70    0.46
   0   1  13    6.31    0.53
   0   1  13    5.67    0.50
  -1  -1 -13    5.29    0.48
  -1  -1 -13    4.40    0.41
   1   1  13    4.82    0.48
   1   1  13    4.74    0.40
  -2  -1 -13    0.01    0.24
  -2  -1 -13    0.33    0.28
   2   1  13    0.06    0.30
  -3  -1 -13    2.76    0.37
  -3  -1 -13    3.09    0.38
   3   1  13    3.19    0.42
   3   1  13    3.70    0.49
  -4  -1 -13    2.08    0.38
  -4  -1 -13    1.88    0.35
   4   1  13    1.53    0.42
   4   1  13    2.19    0.35
  -5  -1 -13    0.09    0.31
   5   1  13    0.44    0.39
  -6  -1 -13    8.36    0.70
   6   1  13    8.30    0.78
   7   1  13    1.47    0.58
  -4   2  13    6.63    0.74
  -3   2  13    1.64    0.47
  -2   2  13    6.79    0.64
   1  -2 -13   59.27    1.56
  -1   2  13   61.56    1.80
   0  -2 -13    0.12    0.21
   0   2  13   -0.07    0.27
   0   2  13    0.35    0.29
  -1  -2 -13    3.66    0.37
   1   2  13    3.39    0.38
   1   2  13    4.31    0.41
   1   2  13    3.68    0.44
  -2  -2 -13    0.33    0.26
   2   2  13    0.21    0.27
   2   2  13   -0.01    0.26
  -3  -2 -13    8.00    0.60
  -3  -2 -13    8.78    0.54
   3   2  13    7.42    0.59
   3   2  13    6.58    0.52
  -4  -2 -13    0.07    0.29
   4   2  13    0.21    0.33
   4   2  13    0.12    0.25
  -5  -2 -13   28.13    1.07
   5   2  13   24.59    1.09
   5   2  13   26.03    0.89
  -6  -2 -13    1.86    0.40
   6   2  13    0.94    0.43
  -7  -2 -13    0.10    0.34
   7   2  13    0.32    0.46
  -4   3  13    0.77    0.52
  -3   3  13   53.21    1.82
  -2   3  13    0.76    0.40
  -2   3  13    1.33    0.35
  -1   3  13   18.08    0.85
  -1   3  13   21.18    0.96
   0  -3 -13    0.17    0.22
   0   3  13    0.32    0.28
   0   3  13    0.33    0.31
  -1  -3 -13   76.23    2.05
   1   3  13   79.46    2.12
   1   3  13   81.59    2.11
  -2  -3 -13   31.01    1.07
   2   3  13   31.69    1.09
   2   3  13   32.54    1.01
  -3  -3 -13   56.33    1.65
   3   3  13   55.19    1.60
   3   3  13   57.73    1.56
  -4  -3 -13   25.51    0.99
   4   3  13   22.67    0.89
   4   3  13   22.78    0.87
  -5  -3 -13   36.54    1.29
   5   3  13   36.16    1.24
   5   3  13   34.40    1.09
  -6  -3 -13    5.74    0.56
   6   3  13    5.66    0.58
  -7  -3 -13   35.66    1.33
   7   3  13   35.50    1.39
   8   3  13   18.87    1.12
  -3   4  13   16.41    0.99
  -3   4  13   15.01    1.04
  -2   4  13    0.59    0.43
  -2   4  13    0.79    0.35
  -1   4  13   80.88    2.34
  -1   4  13   84.28    2.23
   0  -4 -13   43.05    1.23
   0   4  13   42.50    1.43
   0   4  13   44.12    1.37
  -1  -4 -13   95.33    2.44
   1   4  13   98.96    2.54
   1   4  13   97.39    2.51
  -2  -4 -13    1.51    0.31
   2   4  13    2.28    0.37
   2   4  13    2.29    0.34
  -3  -4 -13   68.01    1.92
   3   4  13   69.56    1.87
  -4  -4 -13   10.60    0.70
   4   4  13   12.49    0.63
  -5  -4 -13   22.35    0.98
   5   4  13   22.29    0.81
   5   4  13   22.12    0.88
  -6  -4 -13   49.90    1.63
   6   4  13   52.10    1.59
  -7  -4 -13    8.82    0.74
   7   4  13    8.87    0.76
   8   4  13    4.97    0.64
  -2   5  13    8.91    0.74
  -2   5  13    9.06    0.79
  -1   5  13   16.36    0.81
  -1   5  13   14.55    0.85
  -1   5  13   15.35    0.94
   0   5  13    2.77    0.41
   0   5  13    2.39    0.46
  -1  -5 -13   42.73    1.28
   1   5  13   43.81    1.42
   1   5  13   42.31    1.34
  -2  -5 -13   50.47    1.51
   2   5  13   54.32    1.56
   2   5  13   50.97    1.52
  -3  -5 -13    1.40    0.33
   3   5  13    1.79    0.33
   3   5  13    1.36    0.31
  -4  -5 -13   18.12    0.85
   4   5  13   16.99    0.75
  -5  -5 -13    3.00    0.45
   5   5  13    3.78    0.38
  -6  -5 -13   28.42    1.14
   6   5  13   27.32    0.91
   6   5  13   28.10    1.16
  -7  -5 -13    0.48    0.38
   7   5  13    1.69    0.43
  -8  -5 -13   29.65    1.25
   8   5  13   31.95    1.31
  -1   6  13    7.27    0.73
  -1   6  13    7.68    0.68
  -1   6  13    6.73    0.57
   0   6  13    5.66    0.52
   0   6  13    5.49    0.55
   0   6  13    5.41    0.61
  -1  -6 -13    0.85    0.29
   1   6  13    0.96    0.34
   1   6  13    0.64    0.33
   1   6  13    0.87    0.38
  -2  -6 -13    2.51    0.37
   2   6  13    3.07    0.40
   2   6  13    3.21    0.46
  -3  -6 -13    2.52    0.39
   3   6  13    3.04    0.39
   3   6  13    2.65    0.41
  -4  -6 -13   17.66    0.87
   4   6  13   18.25    0.79
  -5  -6 -13   11.44    0.77
   5   6  13    9.54    0.60
  -6  -6 -13    6.10    0.60
   6   6  13    6.54    0.50
  -7  -6 -13    1.61    0.44
  -8  -6 -13    0.59    0.40
   0   7  13   -0.03    0.35
   0   7  13   -0.07    0.38
   0   7  13   -0.23    0.44
   1   7  13    0.61    0.36
   1   7  13    0.89    0.45
  -2  -7 -13   -0.13    0.28
   2   7  13    0.06    0.33
   2   7  13    0.31    0.40
  -3  -7 -13    5.18    0.51
   3   7  13    5.67    0.56
   3   7  13    5.52    0.50
  -4  -7 -13    6.97    0.59
   4   7  13    8.53    0.63
   4   7  13    7.57    0.65
  -5  -7 -13    3.02    0.48
   5   7  13    2.49    0.39
  -6  -7 -13    0.46    0.39
   6   7  13    0.16    0.27
  -7  -7 -13    2.97    0.51
   7   7  13    4.00    0.57
  -2  -8 -13   10.05    0.73
   2   8  13   11.26    0.80
   2   8  13   11.28    0.90
  -3  -8 -13    0.12    0.35
   3   8  13    0.10    0.41
   3   8  13    0.01    0.34
  -4  -8 -13    4.76    0.54
   4   8  13    6.70    0.62
   4   8  13    6.15    0.54
  -5  -8 -13    0.64    0.41
   5   8  13    0.98    0.35
  -6  -8 -13   14.19    0.95
   6   8  13   13.75    0.73
   2   5 -14    6.18    0.61
   2   5 -14    6.06    0.74
  -2  -5  14    5.51    0.73
   1   5 -14    2.88    0.52
   1   5 -14    3.40    0.65
  -1  -5  14    3.06    0.61
  -4  -4  14   14.05    1.04
   3   4 -14    4.44    0.63
  -3  -4  14    4.78    0.65
   2   4 -14   30.97    1.19
   2   4 -14   30.86    1.35
  -2  -4  14   34.33    1.42
   1   4 -14    0.29    0.38
   1   4 -14   -0.22    0.47
  -1  -4  14   -0.48    0.41
   0   4 -14    0.85    0.49
   0   4 -14    0.50    0.39
   0  -4  14    0.84    0.46
  -1   4 -14    0.22    0.47
  -1   4 -14    0.39    0.41
   1  -4  14    0.79    0.42
  -2   4 -14   18.37    1.11
  -2   4 -14   18.32    1.05
   2  -4  14   17.22    1.27
   2  -4  14   19.30    1.04
   5   3 -14   -0.01    0.49
   4   3 -14    0.26    0.45
  -4  -3  14   -0.23    0.40
   3   3 -14   -0.49    0.39
  -3  -3  14   -0.21    0.39
   2   3 -14    0.49    0.30
   2   3 -14    0.69    0.46
  -2  -3  14   -0.20    0.39
   1   3 -14    3.38    0.57
   1   3 -14    2.29    0.41
  -1  -3  14    3.15    0.53
   0   3 -14    3.76    0.49
   0   3 -14    3.30    0.57
   0  -3  14    3.09    0.51
  -1   3 -14    7.74    0.64
  -1   3 -14    8.19    0.75
   1  -3  14    7.84    0.68
  -2   3 -14    1.85    0.47
  -2   3 -14    1.99    0.50
   2  -3  14    1.31    0.56
   2  -3  14    1.89    0.47
  -3   3 -14   -0.18    0.39
  -3   3 -14    0.12    0.42
   3  -3  14    0.13    0.40
   3  -3  14    0.29    0.55
   5   2 -14    0.30    0.49
   4   2 -14    3.13    0.59
  -4  -2  14    2.80    0.51
   3   2 -14   -0.07    0.37
  -3  -2  14    0.12    0.38
   2   2 -14    4.10    0.56
   2   2 -14    3.73    0.40
  -2  -2  14    4.09    0.55
   1   2 -14    9.83    0.64
   1   2 -14    9.28    0.79
  -1  -2  14   10.18    0.78
   0   2 -14   15.66    0.83
   0   2 -14   18.28    0.96
   0  -2  14   17.71    0.92
  -1   2 -14    0.38    0.40
  -1   2 -14    0.44    0.33
   1  -2  14   -0.12    0.32
  -2   2 -14   13.94    0.83
  -2   2 -14   11.77    0.84
   2  -2  14   11.16    0.80
   2  -2  14   11.97    0.94
  -3   2 -14   11.33    0.81
  -3   2 -14    9.92    0.82
   3  -2  14   12.59    1.00
   3  -2  14   10.21    0.78
  -4   2 -14   11.34    0.82
  -4   2 -14   11.76    0.87
   4  -2  14    7.78    0.86
  -5  -1  14    1.49    0.54
  -4  -1  14   34.49    1.41
  -3  -1  14    0.68    0.34
   2   1 -14   58.01    1.67
  -2  -1  14   60.93    1.80
   1   1 -14    1.28    0.40
   1   1 -14    1.77    0.33
  -1  -1  14    1.98    0.40
   0   1 -14   27.03    1.10
   0   1 -14   27.05    1.00
   0  -1  14   26.71    1.10
  -1   1 -14    0.21    0.35
  -1   1 -14   -0.14    0.27
   1  -1  14    0.54    0.36
  -2   1 -14   69.39    2.05
  -2   1 -14   70.92    2.03
   2  -1  14   72.16    2.07
   2  -1  14   71.64    2.21
  -3   1 -14   39.97    1.39
  -3   1 -14   41.66    1.40
   3  -1  14   37.34    1.56
   3  -1  14   39.42    1.37
  -4   1 -14   16.86    0.93
  -4   1 -14   16.91    0.88
   4  -1  14   14.83    1.09
   4  -1  14   17.11    0.85
  -5   1 -14    0.15    0.39
   5  -1  14   -0.49    0.45
  -5   0  14    2.86    0.62
  -4   0  14   44.17    1.64
  -3   0  14    0.08    0.32
  -3   0  14    0.50    0.40
  -2   0  14   16.73    0.85
  -2   0  14   15.18    0.85
   1   0 -14    3.92    0.37
  -1   0  14    4.36    0.48
  -1   0  14    3.64    0.45
   0   0 -14   98.64    2.60
   0   0 -14   91.80    2.46
   0   0  14   99.74    2.51
   0   0  14   98.30    2.60
  -1   0 -14   47.87    1.46
  -1   0 -14   50.97    1.55
   1   0  14   49.06    1.57
  -2   0 -14   43.37    1.40
  -2   0 -14   45.15    1.42
   2   0  14   43.60    1.54
   2   0  14   43.82    1.46
  -3   0 -14   13.32    0.76
  -3   0 -14   13.26    0.77
   3   0  14   12.93    0.77
   3   0  14   10.61    0.86
  -4   0 -14   36.05    1.24
  -4   0 -14   35.57    1.29
   4   0  14   35.09    1.23
   4   0  14   33.42    1.45
  -5   0 -14   35.01    1.29
   5   0  14   31.13    1.44
  -6   0 -14    9.27    0.79
   6   0  14    6.79    0.81
  -4   1  14   30.05    1.36
  -3   1  14    1.17    0.45
  -3   1  14    0.60    0.34
  -2   1  14   19.48    0.90
  -2   1  14   18.36    0.94
   1  -1 -14    3.33    0.34
  -1   1  14    3.26    0.45
  -1   1  14    2.94    0.43
   0  -1 -14   12.07    0.61
   0   1  14    9.51    0.70
   0   1  14   11.33    0.67
  -1  -1 -14   23.35    0.92
   1   1  14   24.96    1.02
   1   1  14   23.35    1.00
   1   1  14   23.82    0.91
  -2  -1 -14   38.53    1.23
  -2  -1 -14   35.85    1.23
   2   1  14   37.13    1.30
  -3  -1 -14   42.09    1.27
  -3  -1 -14   39.24    1.30
   3   1  14   37.49    1.33
   3   1  14   38.76    1.40
  -4  -1 -14    0.77    0.34
   4   1  14    0.78    0.32
   4   1  14    1.08    0.43
  -5  -1 -14   10.02    0.75
   5   1  14    9.97    0.87
  -6  -1 -14   10.94    0.80
   6   1  14    9.11    0.84
  -4   2  14    3.19    0.62
  -3   2  14    0.87    0.46
  -2   2  14   16.75    0.83
  -2   2  14   16.45    0.93
   1  -2 -14   -0.03    0.21
  -1   2  14    0.22    0.34
   0  -2 -14   48.86    1.40
   0   2  14   49.33    1.51
   0   2  14   49.30    1.53
  -1  -2 -14    4.67    0.42
   1   2  14    4.10    0.47
   1   2  14    4.52    0.43
  -2  -2 -14    5.74    0.49
   2   2  14    5.72    0.50
   2   2  14    4.28    0.47
  -3  -2 -14   10.35    0.69
  -3  -2 -14   10.55    0.63
   3   2  14    9.55    0.67
   3   2  14    8.00    0.63
  -4  -2 -14    1.38    0.37
   4   2  14    2.14    0.37
   4   2  14    1.97    0.44
  -5  -2 -14   32.65    1.23
   5   2  14   31.99    1.06
   5   2  14   31.56    1.27
  -6  -2 -14    3.13    0.47
   6   2  14    3.06    0.56
  -7  -2 -14    0.32    0.35
   7   2  14    0.46    0.50
  -3   3  14    1.02    0.49
  -2   3  14    0.88    0.34
  -2   3  14   -0.02    0.40
  -1   3  14    0.28    0.35
  -1   3  14   -0.38    0.29
   0  -3 -14    1.49    0.29
   0   3  14    1.76    0.39
   0   3  14    2.08    0.40
  -1  -3 -14   11.20    0.63
   1   3  14   11.59    0.66
   1   3  14   12.46    0.73
  -2  -3 -14    3.11    0.39
   2   3  14    2.93    0.41
   2   3  14    2.98    0.41
  -3  -3 -14    2.06    0.38
   3   3  14    1.44    0.35
  -4  -3 -14   18.09    0.87
   4   3  14   17.08    0.81
   4   3  14   17.13    0.79
  -5  -3 -14   14.14    0.84
   5   3  14   12.78    0.78
   5   3  14   12.66    0.66
  -6  -3 -14    0.76    0.38
   6   3  14    1.24    0.44
  -7  -3 -14   -0.02    0.38
   7   3  14   -0.12    0.43
  -3   4  14   10.44    0.89
  -3   4  14    8.31    0.81
  -2   4  14    7.10    0.60
  -2   4  14    6.19    0.70
  -1   4  14   17.75    0.87
  -1   4  14   16.08    0.94
   0  -4 -14   11.08    0.57
   0   4  14   10.36    0.76
   0   4  14   12.95    0.76
  -1  -4 -14    0.90    0.29
   1   4  14    0.88    0.34
   1   4  14    0.46    0.33
  -2  -4 -14    3.48    0.40
   2   4  14    3.05    0.43
   2   4  14    3.56    0.41
  -3  -4 -14   23.23    0.98
   3   4  14   24.69    0.96
  -4  -4 -14    1.28    0.36
   4   4  14    0.53    0.29
  -5  -4 -14   13.27    0.81
   5   4  14   14.24    0.68
   5   4  14   13.34    0.74
  -6  -4 -14    8.45    0.68
   6   4  14    7.09    0.62
  -7  -4 -14   17.55    0.97
   7   4  14   15.23    0.94
  -2   5  14   10.34    0.88
  -2   5  14    8.13    0.80
  -1   5  14   16.32    0.86
  -1   5  14   16.61    1.00
  -1   5  14   16.04    0.92
   0   5  14   12.14    0.76
   0   5  14   11.45    0.83
  -1  -5 -14   29.17    1.01
   1   5  14   30.42    1.16
   1   5  14   29.44    1.10
  -2  -5 -14    0.07    0.28
   2   5  14    0.15    0.31
   2   5  14   -0.14    0.30
  -3  -5 -14   42.15    1.41
   3   5  14   45.86    1.40
  -4  -5 -14    3.79    0.48
   4   5  14    4.66    0.44
  -5  -5 -14   88.52    2.49
   5   5  14   91.61    2.33
  -6  -5 -14    1.12    0.42
   6   5  14    0.66    0.27
  -7  -5 -14   15.21    0.94
   7   5  14   14.86    0.94
  -1   6  14   22.15    1.18
  -1   6  14   19.48    0.98
  -1   6  14   22.38    1.08
   0   6  14    0.01    0.34
   0   6  14   -0.03    0.37
   0   6  14   -0.21    0.42
  -1  -6 -14   41.45    1.30
   1   6  14   40.69    1.41
   1   6  14   43.19    1.49
   1   6  14   43.53    1.40
  -2  -6 -14   16.29    0.80
   2   6  14   18.25    0.86
   2   6  14   16.70    0.89
  -3  -6 -14   48.69    1.51
   3   6  14   49.14    1.52
   3   6  14   46.98    1.48
  -4  -6 -14    0.20    0.34
   4   6  14    0.23    0.30
  -5  -6 -14   24.71    1.08
   5   6  14   24.48    0.94
  -6  -6 -14    1.17    0.43
   6   6  14    1.41    0.33
  -7  -6 -14   33.58    1.32
   1   7  14    8.96    0.74
   1   7  14    7.84    0.73
  -2  -7 -14    0.46    0.32
   2   7  14    0.37    0.35
   2   7  14    0.40    0.42
  -3  -7 -14    6.87    0.59
   3   7  14    6.11    0.59
   3   7  14    6.43    0.57
  -4  -7 -14    1.80    0.43
   4   7  14    1.41    0.37
  -5  -7 -14    5.61    0.59
   5   7  14    6.11    0.53
  -6  -7 -14   18.45    1.02
   6   7  14   17.02    0.79
  -7  -7 -14    1.17    0.48
  -3  -8 -14    1.21    0.40
   3   8  14    1.21    0.42
   3   8  14    1.56    0.49
  -4  -8 -14    5.40    0.60
   4   8  14    5.38    0.56
   4   8  14    5.32    0.69
  -5  -8 -14    0.42    0.42
   5   8  14    0.15    0.34
   3   4 -15    5.89    0.71
  -3  -4  15    5.64    0.70
   2   4 -15    0.22    0.36
   2   4 -15    0.05    0.47
  -2  -4  15    0.20    0.45
   1   4 -15   16.40    1.06
   1   4 -15   13.34    0.88
  -1  -4  15   14.87    1.07
   0   4 -15    2.74    0.51
   0   4 -15    1.86    0.59
   0  -4  15    2.41    0.52
  -4  -3  15    3.40    0.57
  -3  -3  15   23.80    1.21
   2   3 -15    3.22    0.57
   2   3 -15    3.56    0.44
  -2  -3  15    2.74    0.54
   1   3 -15   19.45    0.93
   1   3 -15   19.57    1.09
  -1  -3  15   19.43    1.07
   0   3 -15   11.91    0.82
   0   3 -15   11.82    0.95
   0  -3  15   11.69    0.86
  -1   3 -15   22.07    1.16
  -1   3 -15   18.58    1.03
   1  -3  15   21.11    1.08
  -2   3 -15    6.70    0.72
  -2   3 -15    6.60    0.66
   2  -3  15    8.16    0.70
   2  -3  15    7.79    0.86
  -4  -2  15   13.98    0.93
  -3  -2  15    4.84    0.58
   2   2 -15    4.33    0.48
   2   2 -15    6.40    0.68
  -2  -2  15    4.67    0.57
   1   2 -15    8.71    0.73
   1   2 -15    8.06    0.62
  -1  -2  15    7.17    0.65
   0   2 -15    9.63    0.78
   0   2 -15    8.11    0.67
   0  -2  15    9.95    0.81
  -1   2 -15    0.26    0.34
  -1   2 -15    0.64    0.43
   1  -2  15    0.52    0.38
  -2   2 -15   19.63    0.99
  -2   2 -15   16.36    1.00
   2  -2  15   17.62    1.14
   2  -2  15   17.33    0.95
  -3   2 -15    0.99    0.47
  -3   2 -15    1.23    0.44
   3  -2  15    1.19    0.58
   3  -2  15    0.05    0.38
  -4   2 -15    2.84    0.54
  -4   2 -15    1.78    0.50
   4  -2  15    1.22    0.63
  -4  -1  15    4.85    0.66
  -3  -1  15    0.49    0.40
  -3  -1  15    0.72    0.38
  -2  -1  15    2.04    0.43
   1   1 -15    6.14    0.49
   1   1 -15    6.41    0.63
  -1  -1  15    6.40    0.60
   0   1 -15    0.57    0.31
   0   1 -15    0.71    0.40
   0  -1  15    1.33    0.41
  -1   1 -15    2.79    0.43
  -1   1 -15    3.64    0.51
   1  -1  15    2.95    0.47
  -2   1 -15    0.90    0.42
  -2   1 -15    1.86    0.40
   2  -1  15    1.67    0.52
   2  -1  15    1.42    0.42
  -3   1 -15   -0.06    0.37
  -3   1 -15    0.16    0.35
   3  -1  15    0.01    0.35
   3  -1  15   -0.23    0.47
  -4   1 -15    3.14    0.52
  -4   1 -15    3.99    0.54
   4  -1  15    2.32    0.62
   4  -1  15    2.66    0.57
  -5   1 -15   16.69    1.00
   5  -1  15   14.98    1.17
  -4   0  15    0.26    0.46
  -3   0  15   22.95    1.03
  -3   0  15   21.79    1.10
  -2   0  15    7.24    0.64
  -2   0  15    8.13    0.65
   1   0 -15   15.87    0.71
  -1   0  15   16.91    0.84
  -1   0  15   16.48    0.88
   0   0 -15    9.38    0.63
   0   0 -15    9.71    0.77
   0   0  15   10.33    0.75
   0   0  15    9.73    0.65
  -1   0 -15   24.37    0.97
  -1   0 -15   23.43    1.02
   1   0  15   23.90    1.05
  -2   0 -15    7.45    0.66
  -2   0 -15    5.48    0.51
   2   0  15    8.29    0.72
   2   0  15    5.94    0.57
  -3   0 -15   46.28    1.52
  -3   0 -15   47.36    1.51
   3   0  15   43.69    1.64
   3   0  15   47.14    1.53
  -4   0 -15    4.83    0.53
  -4   0 -15    4.86    0.57
   4   0  15    4.14    0.49
   4   0  15    4.17    0.67
  -5   0 -15    3.25    0.51
   5   0  15    2.22    0.62
  -4   1  15   27.88    1.34
  -3   1  15    4.87    0.63
  -3   1  15    3.22    0.57
  -2   1  15   18.06    0.91
  -2   1  15   18.01    0.96
   1  -1 -15   73.64    1.93
  -1   1  15   75.07    2.13
  -1   1  15   74.16    2.12
   0  -1 -15   59.64    1.67
   0   1  15   59.53    1.81
   0   1  15   60.40    1.74
  -1  -1 -15    7.34    0.60
   1   1  15    7.99    0.64
   1   1  15    7.82    0.69
  -2  -1 -15   38.62    1.27
  -2  -1 -15   38.24    1.27
   2   1  15   36.31    1.34
   2   1  15   36.15    1.31
  -3  -1 -15    8.03    0.64
  -3  -1 -15    8.65    0.67
   3   1  15    9.02    0.76
   3   1  15    7.60    0.64
  -4  -1 -15   48.06    1.50
   4   1  15   43.09    1.61
   4   1  15   42.37    1.43
  -5  -1 -15   10.93    0.80
   5   1  15   11.33    0.96
  -6  -1 -15   48.63    1.61
   6   1  15   43.88    1.76
  -3   2  15   47.61    1.71
  -2   2  15   39.41    1.35
  -2   2  15   37.66    1.42
  -1   2  15    2.84    0.44
  -1   2  15    2.92    0.47
   0  -2 -15   42.14    1.26
   0   2  15   40.09    1.39
   0   2  15   40.56    1.36
  -1  -2 -15    3.30    0.40
   1   2  15    3.97    0.49
   1   2  15    3.56    0.43
  -2  -2 -15   76.81    2.06
   2   2  15   71.52    2.12
  -3  -2 -15    2.71    0.43
   3   2  15    3.00    0.46
   3   2  15    2.45    0.42
  -4  -2 -15   84.91    2.26
   4   2  15   76.88    2.19
   4   2  15   78.90    2.30
  -5  -2 -15    1.33    0.41
   5   2  15    1.00    0.32
   5   2  15    1.75    0.49
  -6  -2 -15   17.70    0.96
   6   2  15   14.99    1.02
  -7  -2 -15    0.85    0.42
   7   2  15   -0.18    0.50
  -3   3  15    1.46    0.55
  -2   3  15    2.14    0.43
  -2   3  15    1.12    0.47
  -1   3  15    5.47    0.61
  -1   3  15    5.81    0.56
   0  -3 -15   23.10    0.88
   0   3  15   26.19    1.06
   0   3  15   25.82    1.05
  -1  -3 -15    2.73    0.37
   1   3  15    3.21    0.45
   1   3  15    2.84    0.43
  -2  -3 -15   21.07    0.89
   2   3  15   18.63    0.92
  -3  -3 -15    0.84    0.33
   3   3  15    0.71    0.34
  -4  -3 -15   15.68    0.84
   4   3  15   15.45    0.81
   4   3  15   14.49    0.79
  -5  -3 -15    0.74    0.38
   5   3  15    0.00    0.28
   5   3  15    0.86    0.39
  -6  -3 -15   26.94    1.17
   6   3  15   23.69    1.16
  -7  -3 -15    8.88    0.74
   7   3  15    7.96    0.79
  -2   4  15   15.51    1.04
  -2   4  15   16.26    1.19
  -1   4  15    0.50    0.41
  -1   4  15    0.30    0.36
   0  -4 -15    2.34    0.41
   0   4  15    2.43    0.43
   0   4  15    0.94    0.40
  -1  -4 -15    8.87    0.60
   1   4  15    8.94    0.69
   1   4  15    9.61    0.72
  -2  -4 -15    2.22    0.37
   2   4  15    2.17    0.49
   2   4  15    2.98    0.44
  -3  -4 -15    4.83    0.51
   3   4  15    5.38    0.51
  -4  -4 -15    1.51    0.40
   4   4  15    1.02    0.34
  -5  -4 -15   11.90    0.80
   5   4  15   11.56    0.69
  -6  -4 -15    1.21    0.42
   6   4  15    0.20    0.39
  -7  -4 -15    0.25    0.40
   7   4  15    0.52    0.45
  -1   5  15   -0.03    0.44
  -1   5  15    0.10    0.40
   0   5  15    0.77    0.39
   0   5  15   -0.09    0.39
  -1  -5 -15    1.75    0.34
   1   5  15    1.87    0.44
   1   5  15    1.85    0.42
  -2  -5 -15   22.44    0.96
   2   5  15   25.15    1.02
   2   5  15   24.63    1.03
  -3  -5 -15    0.20    0.31
   3   5  15    0.02    0.32
  -4  -5 -15   10.18    0.74
   4   5  15    9.31    0.68
  -5  -5 -15    1.77    0.43
   5   5  15    1.21    0.34
  -6  -5 -15    6.24    0.64
   6   5  15    6.17    0.49
  -7  -5 -15    2.73    0.51
   0   6  15   33.98    1.26
   0   6  15   33.15    1.31
   0   6  15   29.39    1.35
  -1  -6 -15    0.55    0.38
   1   6  15   -0.16    0.35
   1   6  15    0.59    0.44
  -2  -6 -15    9.18    0.67
   2   6  15    8.39    0.71
   2   6  15    9.20    0.72
  -3  -6 -15    0.17    0.33
   3   6  15    0.47    0.35
  -4  -6 -15   13.47    0.85
   4   6  15   14.20    0.79
  -5  -6 -15    2.30    0.47
   5   6  15    2.42    0.40
  -6  -6 -15   15.51    0.97
   6   6  15   16.81    0.79
  -7  -6 -15    2.90    0.52
  -2  -7 -15   21.49    0.96
   2   7  15   25.00    1.08
   2   7  15   21.52    1.11
  -3  -7 -15   22.35    1.02
   3   7  15   24.27    1.04
   3   7  15   24.33    1.10
  -4  -7 -15   10.06    0.80
   4   7  15   10.21    0.75
  -5  -7 -15    6.06    0.64
   5   7  15    6.62    0.56
  -6  -7 -15   13.55    0.96
   6   7  15   13.39    0.76
   2   3 -16   14.10    1.03
  -2  -3  16   13.19    1.00
   1   3 -16    4.22    0.63
   1   3 -16    5.08    0.55
  -1  -3  16    3.98    0.59
   0   3 -16   30.88    1.40
   0   3 -16   32.55    1.29
   0  -3  16   32.27    1.35
  -1   3 -16   22.98    1.14
  -1   3 -16   24.40    1.26
   1  -3  16   22.78    1.16
  -3  -2  16    1.82    0.47
  -2  -2  16   16.10    0.98
   1   2 -16   14.05    0.78
   1   2 -16   15.19    0.97
  -1  -2  16   14.90    0.95
   0   2 -16    0.62    0.45
   0   2 -16    0.91    0.37
   0  -2  16   -0.03    0.40
  -1   2 -16   11.98    0.90
  -1   2 -16   11.52    0.82
   1  -2  16   10.92    0.85
  -2   2 -16   14.88    0.94
  -2   2 -16   17.51    1.07
   2  -2  16   16.64    1.14
   2  -2  16   15.22    0.96
  -3   2 -16   23.53    1.21
  -3   2 -16   22.67    1.16
   3  -2  16   24.08    1.11
   3  -2  16   22.68    1.34
  -3  -1  16    4.04    0.59
  -3  -1  16    2.98    0.51
  -2  -1  16    2.47    0.48
  -2  -1  16    2.95    0.48
   1   1 -16    6.82    0.53
  -1  -1  16    5.75    0.70
  -1  -1  16    5.85    0.61
   0   1 -16   13.44    0.90
   0   1 -16   13.87    0.77
   0  -1  16   13.44    0.90
  -1   1 -16   55.29    1.76
  -1   1 -16   51.25    1.66
   1  -1  16   56.15    1.76
  -2   1 -16    5.34    0.61
  -2   1 -16    4.92    0.55
   2  -1  16    6.16    0.63
   2  -1  16    7.51    0.78
  -3   1 -16    5.06    0.61
  -3   1 -16    3.88    0.54
   3  -1  16    5.08    0.72
  -4   1 -16    0.46    0.48
  -4   1 -16    0.48    0.43
   4  -1  16   -0.19    0.55
  -3   0  16    4.97    0.57
  -3   0  16    5.88    0.66
  -2   0  16    0.67    0.40
  -2   0  16    0.89    0.39
   1   0 -16    8.00    0.56
  -1   0  16    6.98    0.63
  -1   0  16    7.46    0.62
   0   0 -16    1.83    0.37
   0   0  16    1.66    0.43
  -1   0 -16    0.04    0.35
  -1   0 -16   -0.47    0.28
   1   0  16    0.18    0.37
  -2   0 -16    0.20    0.36
  -2   0 -16    0.19    0.32
   2   0  16    0.47    0.43
   2   0  16   -0.32    0.35
  -3   0 -16    3.21    0.49
  -3   0 -16    4.18    0.51
   3   0  16    4.73    0.54
   3   0  16    1.73    0.55
  -4   0 -16    7.48    0.66
   4   0  16    7.99    0.84
   4   0  16    9.09    0.73
  -5   0 -16    0.43    0.41
   5   0  16    0.00    0.54
  -3   1  16    6.99    0.72
  -2   1  16    0.18    0.37
  -2   1  16   -0.28    0.37
  -1   1  16   10.85    0.78
  -1   1  16   11.95    0.81
   0  -1 -16    1.06    0.30
   0   1  16    0.45    0.35
   0   1  16    0.58    0.37
  -1  -1 -16    1.06    0.32
  -2  -1 -16   16.97    0.84
  -2  -1 -16   16.74    0.86
   2   1  16   16.97    0.92
   2   1  16   16.07    0.93
  -3  -1 -16   22.22    0.97
  -3  -1 -16   22.86    1.02
   3   1  16   20.04    1.06
   3   1  16   20.32    1.01
  -4  -1 -16    8.10    0.66
   4   1  16    6.06    0.70
   4   1  16    7.37    0.62
  -5  -1 -16    2.22    0.46
   5   1  16    1.39    0.58
  -3   2  16   10.93    0.87
  -2   2  16   -0.47    0.39
  -2   2  16    0.10    0.36
  -1   2  16   10.34    0.80
  -1   2  16   11.13    0.78
   0  -2 -16    0.08    0.26
   0   2  16   -0.43    0.32
   0   2  16   -0.30    0.32
  -1  -2 -16   67.33    1.85
   1   2  16   64.06    1.95
  -2  -2 -16    2.16    0.38
   2   2  16    2.30    0.45
  -3  -2 -16   32.98    1.22
   3   2  16   32.55    1.22
   3   2  16   32.16    1.25
  -4  -2 -16    2.41    0.45
   4   2  16    1.83    0.49
   4   2  16    1.53    0.40
  -5  -2 -16   35.97    1.29
   5   2  16   27.91    1.31
   5   2  16   30.60    1.14
  -6  -2 -16    5.11    0.60
   6   2  16    3.22    0.63
  -2   3  16    4.32    0.53
  -2   3  16    4.28    0.62
  -1   3  16   31.73    1.24
  -1   3  16   32.66    1.30
   0  -3 -16    0.41    0.27
   0   3  16    0.11    0.36
   0   3  16    0.43    0.36
  -1  -3 -16   29.49    1.07
   1   3  16   30.64    1.18
   1   3  16   28.10    1.20
  -2  -3 -16    2.69    0.41
   2   3  16    1.72    0.43
  -3  -3 -16   65.56    1.88
   3   3  16   60.96    1.89
  -4  -3 -16   33.11    1.22
   4   3  16   27.55    1.15
  -5  -3 -16   13.51    0.86
   5   3  16   10.27    0.80
   5   3  16   10.53    0.71
  -6  -3 -16    6.93    0.66
   6   3  16    7.76    0.75
  -1   4  16   18.26    1.05
  -1   4  16   18.61    0.97
   0   4  16    0.15    0.37
   0   4  16    0.13    0.38
  -1  -4 -16   17.35    0.79
   1   4  16   16.03    0.87
   1   4  16   18.29    0.94
  -2  -4 -16   31.36    1.15
   2   4  16   32.60    1.23
  -3  -4 -16    7.41    0.61
   3   4  16    6.80    0.61
  -4  -4 -16   16.93    0.91
   4   4  16   14.65    0.85
  -5  -4 -16   26.83    1.15
   5   4  16   24.49    1.03
  -6  -4 -16   28.19    1.22
   0   5  16   -0.67    0.39
   0   5  16    0.58    0.41
  -1  -5 -16    0.70    0.30
   1   5  16    0.30    0.39
   1   5  16   -0.03    0.38
  -2  -5 -16    0.42    0.33
   2   5  16    0.71    0.41
  -3  -5 -16    4.12    0.50
   3   5  16    3.93    0.50
  -4  -5 -16   10.25    0.78
   4   5  16   11.16    0.78
  -5  -5 -16    0.74    0.42
   5   5  16    1.28    0.38
  -6  -5 -16    1.32    0.45
   6   5  16    0.84    0.34
   1   6  16    3.10    0.53
   1   6  16    2.57    0.54
  -2  -6 -16    1.19    0.37
   2   6  16    0.82    0.45
   2   6  16    1.29    0.43
  -3  -6 -16    0.36    0.36
   3   6  16    0.79    0.39
  -4  -6 -16    0.17    0.36
   4   6  16    0.63    0.37
  -5  -6 -16    5.00    0.61
   5   6  16    4.64    0.51
  -6  -6 -16    4.93    0.64
   6   6  16    4.16    0.48
  -3  -7 -16    1.60    0.42
   3   7  16    2.11    0.47
  -4  -7 -16    4.18    0.55
   4   7  16    2.85    0.50
  -5  -7 -16    7.43    0.68
   5   7  16    6.45    0.60
  -2  -2  17    4.95    0.62
   1   2 -17    0.48    0.47
   1   2 -17    0.36    0.35
  -1  -2  17    0.70    0.45
   0   2 -17   27.77    1.15
   0   2 -17   29.92    1.34
   0  -2  17   28.28    1.29
  -1   2 -17    1.15    0.52
  -1   2 -17    0.93    0.43
   1  -2  17    1.39    0.48
  -2   2 -17    9.87    0.83
  -2   2 -17   10.31    0.86
   2  -2  17    9.14    0.89
   2  -2  17    9.12    0.75
  -2  -1  17   51.70    1.75
  -2  -1  17   54.58    1.79
   1   1 -17    0.98    0.33
  -1  -1  17    0.39    0.42
   0   1 -17   56.91    1.73
   0   1 -17   57.98    1.86
   0  -1  17   56.19    1.84
  -1   1 -17    0.44    0.46
  -1   1 -17    0.23    0.34
   1  -1  17    0.54    0.41
  -2   1 -17   32.60    1.30
  -2   1 -17   35.56    1.38
   2  -1  17   32.20    1.34
   2  -1  17   34.25    1.48
  -3   1 -17    1.08    0.45
  -3   1 -17    1.04    0.48
   3  -1  17    1.07    0.57
  -3   0  17   -0.09    0.39
  -3   0  17    0.24    0.45
  -2   0  17   19.11    1.03
  -2   0  17   20.61    1.04
  -1   0  17    1.01    0.43
   0   0 -17   13.47    0.75
   0   0  17   12.88    0.89
  -1   0 -17   15.27    0.85
  -1   0 -17   18.26    0.97
   1   0  17   17.31    1.00
   1   0  17   17.80    1.03
  -2   0 -17   22.16    1.07
  -2   0 -17   23.07    1.03
   2   0  17   23.11    1.19
  -3   0 -17    0.87    0.39
  -3   0 -17    0.71    0.42
   3   0  17    0.67    0.41
   3   0  17    0.40    0.51
  -4   0 -17   19.57    1.02
   4   0  17   17.43    0.96
   4   0  17   16.82    1.19
  -2   1  17   15.82    0.97
  -2   1  17   15.91    0.95
  -1   1  17    6.51    0.62
  -1   1  17    7.76    0.67
   0  -1 -17    6.30    0.50
   0   1  17    6.12    0.62
  -1  -1 -17    3.71    0.45
  -2  -1 -17    8.45    0.73
   2   1  17    9.49    0.81
   2   1  17    9.73    0.81
  -3  -1 -17   14.03    0.86
  -3  -1 -17   12.69    1.00
   3   1  17   13.20    0.90
   3   1  17   14.96    0.99
  -4  -1 -17    7.10    0.65
   4   1  17    7.72    0.65
   4   1  17    6.85    0.75
  -5  -1 -17   25.95    1.16
   5   1  17   21.93    1.32
  -2   2  17    0.88    0.42
  -2   2  17    0.96    0.46
  -1   2  17    3.48    0.52
  -1   2  17    2.67    0.50
   0  -2 -17   -0.01    0.27
   0   2  17    0.64    0.39
   0   2  17    0.17    0.44
  -1  -2 -17    1.53    0.35
   1   2  17    1.65    0.44
  -2  -2 -17    2.55    0.43
   2   2  17    2.35    0.46
  -3  -2 -17    1.42    0.39
   3   2  17    1.35    0.41
  -4  -2 -17    3.44    0.52
   4   2  17    2.08    0.54
   4   2  17    2.86    0.48
  -5  -2 -17    3.88    0.53
   5   2  17    3.63    0.63
   5   2  17    3.34    0.47
  -1   3  17    0.81    0.41
  -1   3  17    0.25    0.44
   0   3  17   29.81    1.22
   0   3  17   29.42    1.21
  -1  -3 -17    7.56    0.63
   1   3  17    8.26    0.69
  -2  -3 -17    9.07    0.70
   2   3  17    6.90    0.64
  -3  -3 -17    0.37    0.34
   3   3  17    0.52    0.39
  -4  -3 -17    6.76    0.61
   4   3  17    5.12    0.56
  -5  -3 -17    6.31    0.63
   5   3  17    6.10    0.58
  -6  -3 -17   16.11    0.98
   6   3  17   13.86    1.04
  -1   4  17    9.78    0.82
  -1   4  17   11.46    0.86
   0   4  17    5.57    0.63
   0   4  17    5.12    0.58
  -1  -4 -17   22.40    0.92
   1   4  17   22.81    1.10
  -2  -4 -17   21.26    0.94
   2   4  17   18.31    1.01
  -3  -4 -17   25.42    1.07
   3   4  17   22.10    1.09
  -4  -4 -17   15.31    0.90
   4   4  17   13.36    0.86
  -5  -4 -17   20.72    1.05
   5   4  17   18.68    0.95
  -6  -4 -17    5.17    0.64
   0   5  17   10.99    0.88
   0   5  17   10.45    0.84
  -1  -5 -17   25.51    1.11
   1   5  17   28.52    1.22
   1   5  17   28.40    1.22
  -2  -5 -17    5.49    0.53
   2   5  17    6.07    0.62
  -3  -5 -17   22.68    1.02
   3   5  17   22.67    1.07
  -4  -5 -17    4.51    0.55
   4   5  17    3.70    0.53
  -5  -5 -17   21.88    1.09
   5   5  17   22.45    1.02
  -6  -5 -17    0.58    0.44
   6   5  17    0.48    0.37
  -2  -6 -17   -0.25    0.33
   2   6  17   -0.43    0.40
  -3  -6 -17   22.95    1.07
   3   6  17   26.64    1.15
  -4  -6 -17    2.11    0.47
   4   6  17    1.95    0.46
  -5  -6 -17   13.30    0.93
   5   6  17   12.53    0.84
  -1  -1  18    4.45    0.60
   0   1 -18    3.50    0.61
   0   1 -18    4.01    0.49
   0  -1  18    3.68    0.57
  -1   1 -18   17.13    0.95
  -1   1 -18   18.26    1.07
   1  -1  18   19.97    1.08
   1  -1  18   19.96    1.19
  -2   1 -18    4.51    0.58
  -2   1 -18    5.28    0.65
   2  -1  18    5.54    0.75
   2  -1  18    4.26    0.59
  -1   0  18    8.67    0.74
   0   0 -18   16.03    0.83
   0   0  18   15.93    1.01
  -1   0 -18    4.72    0.64
  -1   0 -18    5.06    0.55
   1   0  18    4.77    0.60
  -2   0 -18    0.28    0.42
  -2   0 -18    0.30    0.39
   2   0  18    0.79    0.49
  -3   0 -18   10.40    0.87
  -3   0 -18   10.11    0.82
   3   0  18   10.38    0.86
   3   0  18    9.47    0.88
  -1   1  18    3.76    0.57
   0  -1 -18   17.11    0.82
  -1  -1 -18   47.22    1.50
   1   1  18   47.15    1.64
  -2  -1 -18   50.00    1.61
   2   1  18   48.78    1.68
  -3  -1 -18    0.01    0.35
   3   1  18    0.00    0.46
   3   1  18    0.00    0.38
  -4  -1 -18    9.51    0.76
   4   1  18   10.82    0.82
   4   1  18    9.92    0.88
  -1   2  18   13.17    0.90
  -1   2  18    9.71    0.83
   0  -2 -18    1.77    0.38
   0   2  18    1.38    0.45
  -1  -2 -18    1.23    0.36
   1   2  18    1.67    0.47
  -2  -2 -18   11.34    0.77
   2   2  18   11.59    0.86
  -3  -2 -18    7.35    0.62
   3   2  18    8.43    0.69
  -4  -2 -18   15.98    0.96
   4   2  18   13.65    0.90
  -5  -2 -18    0.60    0.44
   5   2  18   -0.06    0.51
  -1   3  18    0.93    0.45
   0   3  18    0.27    0.41
  -1  -3 -18    3.38    0.43
   1   3  18    3.89    0.54
  -2  -3 -18   17.46    0.89
   2   3  18   14.59    0.96
  -3  -3 -18   13.92    0.83
   3   3  18   10.86    0.87
  -4  -3 -18    0.55    0.39
   4   3  18    0.52    0.40
  -5  -3 -18    0.23    0.39
   5   3  18    0.31    0.38
   0   4  18    0.60    0.42
   0   4  18   -0.30    0.41
  -1  -4 -18    1.24    0.36
   1   4  18    0.76    0.44
  -2  -4 -18    6.44    0.56
   2   4  18    6.52    0.67
  -3  -4 -18    0.22    0.37
   3   4  18   -0.16    0.40
  -4  -4 -18    0.62    0.41
   4   4  18    0.69    0.41
  -5  -4 -18   10.55    0.87
   5   4  18    7.60    0.66
  -2  -5 -18    9.48    0.72
   2   5  18    7.76    0.73
  -3  -5 -18    2.16    0.45
   3   5  18    1.58    0.48
  -4  -5 -18   26.69    1.17
   4   5  18   25.41    1.19
  -5  -5 -18    3.28    0.58
   5   5  18    3.43    0.52
  -1   0 -19    3.08    0.48
   1   0  19    3.47    0.59
   0  -1 -19    4.28    0.48
  -1  -1 -19   12.26    0.79
   1   1  19   12.58    0.94
  -2  -1 -19    2.25    0.45
   2   1  19    3.20    0.55
   0   2  19    2.33    0.54
  -1  -2 -19   31.85    1.20
   1   2  19   34.23    1.39
  -2  -2 -19    0.34    0.36
   2   2  19    0.46    0.43
  -3  -2 -19    3.78    0.51
   3   2  19    5.11    0.60
  -1  -3 -19   41.33    1.36
   1   3  19   40.01    1.54
  -2  -3 -19    0.31    0.35
   2   3  19    0.27    0.41
  -3  -3 -19   23.64    1.10
   3   3  19   25.37    1.20
  -4  -3 -19    6.93    0.71
   4   3  19    6.21    0.67
  -2  -4 -19    7.30    0.60
   2   4  19    6.90    0.71
  -3  -4 -19    5.48    0.59
   3   4  19    5.09    0.64
   0   0   0    0.00    0.00
;
_shelx_hkl_checksum              14733
_shelx_res_file
;
    AX1006_multiscan_t.res created by SHELXL-2014/7
TITL AX1006_multiscan_t in P-1
CELL 0.71073 7.1617 7.2787 14.4257 77.0382   78.7453   61.5479
ZERR 2.00    0.0004 0.0004  0.0008  0.0009    0.0008    0.0007
LATT 1
SFAC C  H  N  S  Br
UNIT 24 12 8 2 4
OMIT  -4.00  55.00
L.S. 14
ACTA
BOND $H
FMAP 2
PLAN -10
SIZE 0.186 0.361 0.494
HTAB
CONF
TEMP -123.150
WGHT    0.037000    1.114700
FVAR       0.20164
BR1   5    0.764693    0.113548    1.182846    11.00000    0.02748    0.02225 =
         0.01974    0.00111   -0.00918   -0.01104
BR2   5    1.238194    0.067966    0.532064    11.00000    0.02001    0.03454 =
         0.03315   -0.01040    0.00630   -0.01163
C1    1    0.275721    0.369619    0.836998    11.00000    0.01207    0.01326 =
         0.01264   -0.00142    0.00063   -0.00655
C2    1    0.341982    0.372860    0.735927    11.00000    0.01481    0.01366 =
         0.01208   -0.00009    0.00000   -0.00705
C3    1    0.407389    0.303297    0.916896    11.00000    0.01328    0.01163 =
         0.01104   -0.00202    0.00105   -0.00578
C4    1    0.325756    0.252020    1.009718    11.00000    0.01348    0.01601 =
         0.01350   -0.00295    0.00151   -0.00713
AFIX  43
H4    2    0.188716    0.256603    1.018530    11.00000   -1.20000
AFIX   0
C5    1    0.620561    0.190980    1.072894    11.00000    0.01860    0.01263 =
         0.01287   -0.00159   -0.00276   -0.00649
C6    1    0.717697    0.239897    0.984644    11.00000    0.01489    0.01941 =
         0.01866   -0.00323    0.00066   -0.00968
AFIX  43
H6    2    0.855174    0.233306    0.978550    11.00000   -1.20000
AFIX   0
C7    1    0.607813    0.298520    0.905914    11.00000    0.01588    0.01953 =
         0.01285   -0.00217    0.00235   -0.01049
AFIX  43
H7    2    0.668264    0.335570    0.844355    11.00000   -1.20000
AFIX   0
C8    1    0.559701    0.303349    0.686298    11.00000    0.01439    0.01720 =
         0.00961   -0.00186    0.00014   -0.00686
C9    1    0.725354    0.103874    0.711848    11.00000    0.01815    0.01735 =
         0.01235    0.00129    0.00075   -0.00671
AFIX  43
H9    2    0.696112    0.011033    0.763420    11.00000   -1.20000
AFIX   0
C10   1    0.957600    0.167383    0.594599    11.00000    0.01243    0.02279 =
         0.01374   -0.00645    0.00198   -0.00830
C11   1    0.806310    0.367282    0.560734    11.00000    0.01974    0.02261 =
         0.01294    0.00279   -0.00026   -0.01164
AFIX  43
H11   2    0.840404    0.452900    0.507044    11.00000   -1.20000
AFIX   0
C12   1    0.603592    0.436547    0.608554    11.00000    0.01419    0.01703 =
         0.01354    0.00243   -0.00133   -0.00514
AFIX  43
H12   2    0.494616    0.573603    0.588868    11.00000   -1.20000
AFIX   0
N1    3    0.064850    0.446949    0.857056    11.00000    0.01453    0.01873 =
         0.01453   -0.00156   -0.00041   -0.00727
N2    3    0.179943    0.453958    0.683606    11.00000    0.01571    0.02327 =
         0.01268   -0.00036    0.00022   -0.00800
N3    3    0.429352    0.196855    1.086887    11.00000    0.01788    0.01615 =
         0.01239   -0.00088   -0.00006   -0.00856
N4    3    0.924445    0.036268    0.667168    11.00000    0.01454    0.01938 =
         0.01521   -0.00245   -0.00082   -0.00458
S1    4   -0.038750    0.520479    0.756377    11.00000    0.01268    0.02784 =
         0.01581   -0.00040   -0.00118   -0.00762
HKLF 4 1 1 0 0 0 1 0 0 0 1
REM  AX1006_multiscan_t in P-1
REM R1 =  0.0262 for    2672 Fo > 4sig(Fo)  and  0.0300 for all    2957 data
REM    172 parameters refined using      0 restraints
END
WGHT      0.0370      1.1147
REM Instructions for potential hydrogen bonds
EQIV $1 -x+1, -y, -z+2
HTAB C9 N3_$1
EQIV $2 -x+1, -y+1, -z+1
HTAB C11 N2_$2
REM Highest difference peak  0.519,  deepest hole -0.840,  1-sigma level  0.098
Q1    1   0.6423  0.2058  0.6985  11.00000  0.05    0.52
Q2    1   0.6604  0.2130  1.0253  11.00000  0.05    0.48
Q3    1   0.8708  0.2552  0.5697  11.00000  0.05    0.47
Q4    1  -0.1009  0.5426  0.7529  11.00000  0.05    0.47
Q5    1   0.3818  0.2661  0.9579  11.00000  0.05    0.46
Q6    1   0.5072  0.2981  0.9124  11.00000  0.05    0.45
Q7    1   0.0019  0.4871  0.7401  11.00000  0.05    0.44
Q8    1   0.3393  0.3440  0.8795  11.00000  0.05    0.44
Q9    1   0.8211  0.0776  0.6859  11.00000  0.05    0.43
Q10   1  -0.0161  0.4981  0.7961  11.00000  0.05    0.43
;
_shelx_res_checksum              92062
loop_
_space_group_symop_operation_xyz
'x, y, z'
'-x, -y, -z'
loop_
_atom_site_type_symbol
_atom_site_label
_atom_site_fract_x
_atom_site_fract_y
_atom_site_fract_z
_atom_site_U_iso_or_equiv
_atom_site_adp_type
_atom_site_calc_flag
_atom_site_occupancy
Br Br1 0.76469(5) 0.11355(4) 1.18285(2) 0.02297(9) Uani d 1
Br Br2 1.23819(5) 0.06797(5) 0.53206(2) 0.02999(10) Uani d 1
C C1 0.2757(4) 0.3696(4) 0.83700(18) 0.0127(5) Uani d 1
C C2 0.3420(4) 0.3729(4) 0.73593(18) 0.0138(5) Uani d 1
C C3 0.4074(4) 0.3033(4) 0.91690(17) 0.0122(5) Uani d 1
C C4 0.3258(4) 0.2520(4) 1.00972(18) 0.0145(5) Uani d 1
H H4 0.1887 0.2566 1.0185 0.017 Uiso calc 1
C C5 0.6206(4) 0.1910(4) 1.07289(18) 0.0148(5) Uani d 1
C C6 0.7177(4) 0.2399(4) 0.98464(19) 0.0172(5) Uani d 1
H H6 0.8552 0.2333 0.9785 0.021 Uiso calc 1
C C7 0.6078(4) 0.2985(4) 0.90591(18) 0.0157(5) Uani d 1
H H7 0.6683 0.3356 0.8444 0.019 Uiso calc 1
C C8 0.5597(4) 0.3033(4) 0.68630(17) 0.0141(5) Uani d 1
C C9 0.7254(4) 0.1039(4) 0.71185(18) 0.0175(5) Uani d 1
H H9 0.6961 0.0110 0.7634 0.021 Uiso calc 1
C C10 0.9576(4) 0.1674(4) 0.59460(18) 0.0160(5) Uani d 1
C C11 0.8063(4) 0.3673(4) 0.56073(19) 0.0188(5) Uani d 1
H H11 0.8404 0.4529 0.5070 0.023 Uiso calc 1
C C12 0.6036(4) 0.4365(4) 0.60855(18) 0.0166(5) Uani d 1
H H12 0.4946 0.5736 0.5889 0.020 Uiso calc 1
N N1 0.0649(4) 0.4469(3) 0.85706(16) 0.0164(4) Uani d 1
N N2 0.1799(4) 0.4540(4) 0.68361(16) 0.0182(4) Uani d 1
N N3 0.4294(4) 0.1969(3) 1.08689(15) 0.0156(4) Uani d 1
N N4 0.9244(4) 0.0363(3) 0.66717(16) 0.0178(4) Uani d 1
S S1 -0.03875(11) 0.52048(11) 0.75638(5) 0.01999(15) Uani d 1
loop_
_atom_site_aniso_label
_atom_site_aniso_U_11
_atom_site_aniso_U_22
_atom_site_aniso_U_33
_atom_site_aniso_U_12
_atom_site_aniso_U_13
_atom_site_aniso_U_23
Br1 0.02748(16) 0.02225(14) 0.01974(15) -0.01104(12) -0.00918(11) 0.00111(10)
Br2 0.02001(16) 0.03454(17) 0.03315(18) -0.01163(13) 0.00630(12) -0.01040(13)
C1 0.0121(11) 0.0133(10) 0.0126(11) -0.0065(9) 0.0006(9) -0.0014(9)
C2 0.0148(12) 0.0137(11) 0.0121(11) -0.0070(9) 0.0000(9) -0.0001(9)
C3 0.0133(12) 0.0116(10) 0.0110(11) -0.0058(9) 0.0010(9) -0.0020(8)
C4 0.0135(12) 0.0160(11) 0.0135(12) -0.0071(9) 0.0015(10) -0.0029(9)
C5 0.0186(13) 0.0126(10) 0.0129(11) -0.0065(10) -0.0028(10) -0.0016(9)
C6 0.0149(12) 0.0194(12) 0.0187(13) -0.0097(10) 0.0007(10) -0.0032(10)
C7 0.0159(12) 0.0195(12) 0.0128(12) -0.0105(10) 0.0023(10) -0.0022(9)
C8 0.0144(12) 0.0172(11) 0.0096(11) -0.0069(10) 0.0001(9) -0.0019(9)
C9 0.0181(13) 0.0173(12) 0.0123(12) -0.0067(10) 0.0007(10) 0.0013(9)
C10 0.0124(12) 0.0228(12) 0.0137(12) -0.0083(10) 0.0020(10) -0.0064(10)
C11 0.0197(13) 0.0226(12) 0.0129(12) -0.0116(11) -0.0003(10) 0.0028(10)
C12 0.0142(12) 0.0170(11) 0.0135(12) -0.0051(10) -0.0013(10) 0.0024(9)
N1 0.0145(11) 0.0187(10) 0.0145(10) -0.0073(9) -0.0004(9) -0.0016(8)
N2 0.0157(11) 0.0233(11) 0.0127(10) -0.0080(9) 0.0002(9) -0.0004(8)
N3 0.0179(11) 0.0162(10) 0.0124(10) -0.0086(9) -0.0001(8) -0.0009(8)
N4 0.0145(11) 0.0194(10) 0.0152(10) -0.0046(9) -0.0008(9) -0.0024(8)
S1 0.0127(3) 0.0278(3) 0.0158(3) -0.0076(3) -0.0012(2) -0.0004(2)
loop_
_atom_type_symbol
_atom_type_description
_atom_type_scat_dispersion_real
_atom_type_scat_dispersion_imag
_atom_type_scat_source
C C 0.0033 0.0016 'International Tables Vol C Tables 4.2.6.8 and 6.1.1.4'
H H 0.0000 0.0000 'International Tables Vol C Tables 4.2.6.8 and 6.1.1.4'
N N 0.0061 0.0033 'International Tables Vol C Tables 4.2.6.8 and 6.1.1.4'
S S 0.1246 0.1234 'International Tables Vol C Tables 4.2.6.8 and 6.1.1.4'
Br Br -0.2901 2.4595 'International Tables Vol C Tables 4.2.6.8 and 6.1.1.4'
loop_
_geom_angle_atom_site_label_1
_geom_angle_atom_site_label_2
_geom_angle_atom_site_label_3
_geom_angle
N1 C1 C2 112.7(2)
N1 C1 C3 118.3(2)
C2 C1 C3 128.9(2)
N2 C2 C1 113.1(2)
N2 C2 C8 118.3(2)
C1 C2 C8 128.6(2)
C4 C3 C7 117.0(2)
C4 C3 C1 119.3(2)
C7 C3 C1 123.6(2)
N3 C4 C3 123.8(2)
N3 C4 H4 118.1
C3 C4 H4 118.1
N3 C5 C6 124.5(2)
N3 C5 Br1 116.56(19)
C6 C5 Br1 118.9(2)
C7 C6 C5 117.7(2)
C7 C6 H6 121.2
C5 C6 H6 121.2
C6 C7 C3 119.9(2)
C6 C7 H7 120.1
C3 C7 H7 120.1
C9 C8 C12 117.8(2)
C9 C8 C2 122.2(2)
C12 C8 C2 120.0(2)
N4 C9 C8 123.3(2)
N4 C9 H9 118.4
C8 C9 H9 118.4
N4 C10 C11 125.8(2)
N4 C10 Br2 115.89(19)
C11 C10 Br2 118.3(2)
C12 C11 C10 116.9(2)
C12 C11 H11 121.5
C10 C11 H11 121.5
C11 C12 C8 119.5(2)
C11 C12 H12 120.2
C8 C12 H12 120.2
C1 N1 S1 107.62(18)
C2 N2 S1 107.62(18)
C5 N3 C4 117.1(2)
C10 N4 C9 116.6(2)
N1 S1 N2 98.99(12)
loop_
_geom_bond_atom_site_label_1
_geom_bond_atom_site_label_2
_geom_bond_distance
Br1 C5 1.893(3)
Br2 C10 1.891(3)
C1 N1 1.332(3)
C1 C2 1.441(3)
C1 C3 1.480(3)
C2 N2 1.324(3)
C2 C8 1.475(4)
C3 C4 1.397(3)
C3 C7 1.397(4)
C4 N3 1.338(3)
C4 H4 0.9500
C5 N3 1.326(3)
C5 C6 1.385(4)
C6 C7 1.379(4)
C6 H6 0.9500
C7 H7 0.9500
C8 C9 1.393(3)
C8 C12 1.401(3)
C9 N4 1.344(3)
C9 H9 0.9500
C10 N4 1.317(3)
C10 C11 1.384(4)
C11 C12 1.380(4)
C11 H11 0.9500
C12 H12 0.9500
N1 S1 1.625(2)
N2 S1 1.629(2)
loop_
_geom_torsion_atom_site_label_1
_geom_torsion_atom_site_label_2
_geom_torsion_atom_site_label_3
_geom_torsion_atom_site_label_4
_geom_torsion
N1 C1 C2 N2 0.7(3)
C3 C1 C2 N2 -176.1(2)
N1 C1 C2 C8 179.3(2)
C3 C1 C2 C8 2.5(4)
N1 C1 C3 C4 22.4(3)
C2 C1 C3 C4 -160.9(2)
N1 C1 C3 C7 -154.3(2)
C2 C1 C3 C7 22.4(4)
C7 C3 C4 N3 -0.9(4)
C1 C3 C4 N3 -177.8(2)
N3 C5 C6 C7 -0.1(4)
Br1 C5 C6 C7 -179.15(19)
C5 C6 C7 C3 -1.1(4)
C4 C3 C7 C6 1.5(4)
C1 C3 C7 C6 178.3(2)
N2 C2 C8 C9 -129.4(3)
C1 C2 C8 C9 52.0(4)
N2 C2 C8 C12 48.3(3)
C1 C2 C8 C12 -130.3(3)
C12 C8 C9 N4 1.6(4)
C2 C8 C9 N4 179.4(2)
N4 C10 C11 C12 1.3(4)
Br2 C10 C11 C12 -179.2(2)
C10 C11 C12 C8 -1.1(4)
C9 C8 C12 C11 -0.2(4)
C2 C8 C12 C11 -178.0(2)
C2 C1 N1 S1 -0.9(2)
C3 C1 N1 S1 176.28(17)
C1 C2 N2 S1 -0.1(3)
C8 C2 N2 S1 -178.87(18)
C6 C5 N3 C4 0.7(4)
Br1 C5 N3 C4 179.80(17)
C3 C4 N3 C5 -0.2(4)
C11 C10 N4 C9 0.1(4)
Br2 C10 N4 C9 -179.44(19)
C8 C9 N4 C10 -1.6(4)
C1 N1 S1 N2 0.78(19)
C2 N2 S1 N1 -0.4(2)

_cod_database_fobs_code 1543505
