#------------------------------------------------------------------------------
#$Date: 2016-08-05 06:40:34 +0300 (Fri, 05 Aug 2016) $
#$Revision: 184976 $
#$URL: file:///home/coder/svn-repositories/cod/cif/1/54/33/1543337.cif $
#------------------------------------------------------------------------------
#
# This file is available in the Crystallography Open Database (COD),
# http://www.crystallography.net/
#
# All data on this site have been placed in the public domain by the
# contributors.
#
data_1543337
loop_
_publ_author_name
'Miao, Wenjun'
'Ni, Chuanfa'
'Zhao, Yanchuan'
'Hu, Jinbo'
_publ_section_title
;
 Nucleophilic Iododifluoromethylation of Carbonyl Compounds Using
 Difluoromethyl 2-Pyridyl Sulfone.
;
_journal_issue                   11
_journal_name_full               'Organic letters'
_journal_page_first              2766
_journal_page_last               2769
_journal_paper_doi               10.1021/acs.orglett.6b01258
_journal_volume                  18
_journal_year                    2016
_chemical_formula_sum            'C9 H6 F2 I N O'
_chemical_formula_weight         309.05
_chemical_name_systematic
; 
 ? 
;
_space_group_crystal_system      monoclinic
_space_group_IT_number           14
_space_group_name_Hall           '-P 2yn'
_space_group_name_H-M_alt        'P 1 21/n 1'
_symmetry_space_group_name_Hall  '-P 2yn'
_symmetry_space_group_name_H-M   'P 1 21/n 1'
_atom_sites_solution_hydrogens   geom
_audit_creation_method           SHELXL-2013
_cell_angle_alpha                90
_cell_angle_beta                 97.160(3)
_cell_angle_gamma                90
_cell_formula_units_Z            4
_cell_length_a                   5.9943(9)
_cell_length_b                   8.2991(14)
_cell_length_c                   20.452(3)
_cell_measurement_reflns_used    1967
_cell_measurement_temperature    293(2)
_cell_measurement_theta_max      49.769
_cell_measurement_theta_min      5.303
_cell_volume                     1009.5(3)
_computing_cell_refinement       'Bruker SMART'
_computing_data_collection       'Bruker SMART'
_computing_data_reduction        'Bruker SHELXTL'
_computing_molecular_graphics    'Bruker SHELXTL'
_computing_publication_material  'Bruker SHELXTL'
_computing_structure_refinement  'SHELXL-2013 (Sheldrick, 2013)'
_computing_structure_solution    'Bruker SHELXTL'
_diffrn_ambient_temperature      293(2)
_diffrn_measured_fraction_theta_full 0.999
_diffrn_measured_fraction_theta_max 0.999
_diffrn_measurement_device_type  'CCD area detector'
_diffrn_measurement_method       'phi and omega scans'
_diffrn_radiation_type           MoK\a
_diffrn_radiation_wavelength     0.71073
_diffrn_reflns_av_R_equivalents  0.0294
_diffrn_reflns_av_unetI/netI     0.0304
_diffrn_reflns_Laue_measured_fraction_full 0.999
_diffrn_reflns_Laue_measured_fraction_max 0.999
_diffrn_reflns_limit_h_max       6
_diffrn_reflns_limit_h_min       -7
_diffrn_reflns_limit_k_max       10
_diffrn_reflns_limit_k_min       -9
_diffrn_reflns_limit_l_max       25
_diffrn_reflns_limit_l_min       -25
_diffrn_reflns_number            5851
_diffrn_reflns_point_group_measured_fraction_full 0.999
_diffrn_reflns_point_group_measured_fraction_max 0.999
_diffrn_reflns_theta_full        25.242
_diffrn_reflns_theta_max         25.995
_diffrn_reflns_theta_min         2.007
_exptl_absorpt_coefficient_mu    3.167
_exptl_absorpt_correction_T_max  0.7456
_exptl_absorpt_correction_T_min  0.6004
_exptl_absorpt_correction_type   multi-scan
_exptl_absorpt_process_details   sadabs
_exptl_crystal_colour            colorless
_exptl_crystal_density_diffrn    2.033
_exptl_crystal_description       prismatic
_exptl_crystal_F_000             584
_exptl_crystal_size_max          0.210
_exptl_crystal_size_mid          0.180
_exptl_crystal_size_min          0.120
_refine_diff_density_max         1.663
_refine_diff_density_min         -1.170
_refine_diff_density_rms         0.100
_refine_ls_extinction_method     none
_refine_ls_goodness_of_fit_ref   1.028
_refine_ls_hydrogen_treatment    constr
_refine_ls_matrix_type           full
_refine_ls_number_parameters     128
_refine_ls_number_reflns         1986
_refine_ls_number_restraints     0
_refine_ls_restrained_S_all      1.028
_refine_ls_R_factor_all          0.0551
_refine_ls_R_factor_gt           0.0465
_refine_ls_shift/su_max          0.000
_refine_ls_shift/su_mean         0.000
_refine_ls_structure_factor_coef Fsqd
_refine_ls_weighting_details
'w=1/[\s^2^(Fo^2^)+(0.0376P)^2^+3.9206P] where P=(Fo^2^+2Fc^2^)/3'
_refine_ls_weighting_scheme      calc
_refine_ls_wR_factor_gt          0.1055
_refine_ls_wR_factor_ref         0.1105
_reflns_Friedel_coverage         0.000
_reflns_number_gt                1670
_reflns_number_total             1986
_reflns_threshold_expression     'I > 2\s(I)'
_cod_data_source_file            ol6b01258_si_002.cif
_cod_data_source_block           cd15089
_cod_depositor_comments          'Adding full bibliography for 1543337.cif.'
_cod_database_code               1543337
_shelx_space_group_comment
; 
The symmetry employed for this shelxl refinement is uniquely defined 
by the following loop, which should always be used as a source of 
symmetry information in preference to the above space-group names. 
They are only intended as comments. 
;
_shelx_estimated_absorpt_t_min   0.556
_shelx_estimated_absorpt_t_max   0.702
_shelxl_version_number           2013-4
_shelx_res_file
; 
TITL cd15089 in P2(1)/n 
CELL 0.71073   5.9943   8.2991  20.4522  90.000  97.160  90.000 
ZERR    4.00   0.0009   0.0014   0.0033   0.000   0.003   0.000 
LATT 1 
SYMM 0.5-X, 0.5+Y, 0.5-Z 
SFAC C  H  N  O  F  I 
UNIT 36 24 4 4 8 4 
OMIT  -3.00  52.00 
L.S. 10 
ACTA 
BOND  $H 
FMAP 2 
PLAN 20 
HTAB O1 N1_$1 
EQIV $1 x-1, y-1, z 
conf 
htab 
mpla c3 > c8 
size 0.21 0.18 0.12 
wpdb -1 
WGHT    0.037600    3.920600 
FVAR       0.16462 
MOLE 1 
I1    6    1.124188   -0.057950    0.216085    11.00000    0.04097    0.08104 = 
         0.10328    0.02394   -0.00500   -0.00659 
N1    3    1.404482    0.712515    0.063075    11.00000    0.07654    0.06254 = 
         0.07906   -0.00110    0.01125   -0.03514 
O1    4    0.763173   -0.053890    0.070668    11.00000    0.08692    0.06847 = 
         0.07077   -0.02129    0.02884   -0.04451 
AFIX 147 
H1    2    0.661662   -0.120122    0.070670    11.00000   -1.50000 
AFIX   0 
F1    5    0.655363   -0.126042    0.191659    11.00000    0.04473    0.05764 = 
         0.08316    0.01776    0.01012   -0.01633 
F2    5    0.718876    0.114796    0.227452    11.00000    0.09637    0.06493 = 
         0.06838   -0.00619    0.03702    0.00743 
C1    1    0.782480    0.006363    0.185005    11.00000    0.03976    0.03897 = 
         0.05747    0.00064    0.01167   -0.00524 
C2    1    0.733169    0.068238    0.114981    11.00000    0.04209    0.04713 = 
         0.05729   -0.00115    0.00627   -0.01444 
AFIX  13 
H2    2    0.575096    0.101380    0.107762    11.00000   -1.20000 
AFIX   0 
C3    1    0.876225    0.213054    0.102413    11.00000    0.03946    0.04577 = 
         0.04376    0.00176    0.00381   -0.01415 
C4    1    0.828369    0.361887    0.126555    11.00000    0.04251    0.04998 = 
         0.06407    0.00520    0.01223   -0.00658 
AFIX  43 
H4    2    0.704955    0.374315    0.149510    11.00000   -1.20000 
AFIX   0 
C5    1    0.962878    0.493987    0.116950    11.00000    0.05750    0.04168 = 
         0.06216   -0.00512    0.00582   -0.00578 
AFIX  43 
H5    2    0.930546    0.594533    0.133508    11.00000   -1.20000 
AFIX   0 
C6    1    1.145453    0.474291    0.082479    11.00000    0.04655    0.04589 = 
         0.04544    0.00649   -0.00040   -0.01673 
C7    1    1.190529    0.326261    0.057069    11.00000    0.04855    0.06152 = 
         0.04973    0.00047    0.01110   -0.01674 
AFIX  43 
H7    2    1.311127    0.314301    0.032940    11.00000   -1.20000 
AFIX   0 
C8    1    1.057520    0.195468    0.067242    11.00000    0.05530    0.04644 = 
         0.05059   -0.00532    0.01107   -0.01280 
AFIX  43 
H8    2    1.089665    0.095154    0.050433    11.00000   -1.20000 
AFIX   0 
C9    1    1.287780    0.610322    0.071801    11.00000    0.05681    0.05384 = 
         0.05507    0.00349   -0.00209   -0.01957 
HKLF 4 
  
REM  cd15089 in P2(1)/n 
REM R1 =  0.0465 for    1670 Fo > 4sig(Fo)  and  0.0551 for all    1986 data 
REM    128 parameters refined using      0 restraints 
  
END 
  
WGHT      0.0366      3.9708 
  
REM Instructions for potential hydrogen bonds 
HTAB O1 N1_$1 
  
REM Highest difference peak  1.663,  deepest hole -1.170,  1-sigma level  0.100 
Q1    1   1.0677  0.0250  0.2358  11.00000  0.05    1.66 
Q2    1   1.1059 -0.0619  0.1727  11.00000  0.05    1.28 
Q3    1   1.1626 -0.0877  0.2228  11.00000  0.05    0.66 
Q4    1   1.1268 -0.1385  0.2364  11.00000  0.05    0.54 
Q5    1   0.5851  0.0464  0.0704  11.00000  0.05    0.44 
Q6    1   0.8566  0.4375  0.1097  11.00000  0.05    0.32 
Q7    1   0.9991  0.2023  0.0984  11.00000  0.05    0.32 
Q8    1   1.1354 -0.0683  0.2873  11.00000  0.05    0.25 
Q9    1   1.1267  0.1959  0.2251  11.00000  0.05    0.24 
Q10   1   0.9534 -0.0296  0.1930  11.00000  0.05    0.23 
Q11   1   0.8080  0.1420  0.1070  11.00000  0.05    0.23 
Q12   1   1.2149 -0.0876  0.2730  11.00000  0.05    0.22 
Q13   1   1.1611  0.2516  0.0844  11.00000  0.05    0.21 
Q14   1   1.0257  0.4905  0.0778  11.00000  0.05    0.21 
Q15   1   0.9178  0.1925  0.0699  11.00000  0.05    0.21 
Q16   1   0.6326  0.1749  0.1879  11.00000  0.05    0.20 
Q17   1   1.0873  0.2033  0.1835  11.00000  0.05    0.20 
Q18   1   0.8784  0.0887  0.2280  11.00000  0.05    0.20 
Q19   1   0.8633  0.0168  0.1070  11.00000  0.05    0.20 
Q20   1   1.2416  0.0170  0.2709  11.00000  0.05    0.20 
;
_shelx_res_checksum              39425
_shelx_hkl_file
; 
   1   0   0   -0.22    0.02 
  -2   0   0  179.76    5.56 
   2   0   0  166.28    5.25 
  -3   0   0   -0.16    0.12 
   3   0   0    0.06    0.09 
  -4   0   0  249.22    7.99 
   4   0   0  242.12    7.51 
  -5   0   0   -0.10    0.17 
   5   0   0    0.09    0.15 
  -6   0   0    0.27    0.23 
  -7   0   0    0.13    0.31 
  -7   1   0    6.02    0.74 
  -6   1   0   19.77    1.14 
  -5   1   0   69.80    2.65 
  -5   1   0   67.52    2.32 
  -4   1   0    1.20    0.19 
  -4   1   0    1.42    0.30 
  -3   1   0   92.50    2.94 
  -3   1   0   95.98    3.25 
  -2   1   0   56.73    2.00 
  -2   1   0   58.05    1.82 
  -1   1   0  208.89    6.26 
   0   1   0   -0.83    0.06 
  -1  -1   0  215.96    6.82 
  -1  -1   0  221.85    6.89 
   1   1   0  217.04    6.55 
  -2  -1   0   58.42    1.95 
  -2  -1   0   59.64    2.00 
   2   1   0   57.07    1.89 
  -3  -1   0   93.24    3.11 
  -4  -1   0    1.30    0.25 
   4   1   0    0.73    0.18 
  -5  -1   0   68.69    2.53 
   5   1   0   67.74    2.38 
  -6  -1   0   18.03    1.10 
  -6  -1   0   18.64    1.01 
  -7  -1   0    6.89    0.84 
  -7   2   0    7.53    0.86 
  -6   2   0    1.02    0.36 
  -5   2   0   16.32    0.97 
  -4   2   0   53.59    1.81 
  -4   2   0   50.77    2.08 
  -3   2   0   35.95    1.49 
  -3   2   0   36.73    1.29 
  -2   2   0   17.59    0.70 
  -2   2   0   17.67    0.79 
  -1   2   0   95.92    3.02 
   0   2   0  725.54   21.53 
  -1  -2   0   99.93    3.30 
   1   2   0  102.68    3.18 
  -2  -2   0   18.65    0.80 
  -2  -2   0   19.49    0.67 
   2   2   0   18.01    0.76 
  -3  -2   0   37.10    1.34 
  -3  -2   0   38.44    1.48 
   3   2   0   37.91    1.39 
  -4  -2   0   55.61    2.00 
  -4  -2   0   56.92    2.15 
   4   2   0   55.69    2.00 
  -5  -2   0   15.98    0.82 
  -5  -2   0   16.28    0.95 
  -6  -2   0    0.53    0.33 
  -7  -2   0    8.10    0.87 
  -7   3   0    1.71    0.57 
  -6   3   0   38.92    1.90 
  -5   3   0    1.53    0.38 
  -4   3   0    2.23    0.30 
  -4   3   0    2.06    0.38 
  -3   3   0   76.08    2.74 
  -3   3   0   72.88    2.50 
  -2   3   0  274.42    8.66 
  -2   3   0  262.88    8.20 
  -1   3   0   12.28    0.60 
  -1   3   0   12.60    0.58 
   0   3   0    0.06    0.06 
   0   3   0    0.31    0.11 
  -1  -3   0   13.36    0.67 
   1   3   0   11.98    0.60 
  -2  -3   0  275.91    8.80 
   2   3   0  276.89    8.46 
  -3  -3   0   75.53    2.44 
  -3  -3   0   74.45    2.67 
   3   3   0   74.27    2.55 
  -4  -3   0    2.43    0.39 
   4   3   0    2.60    0.34 
  -5  -3   0    1.58    0.37 
   5   3   0    2.18    0.35 
  -6  -3   0   36.28    1.72 
  -7  -3   0    1.02    0.49 
  -7   4   0    6.40    0.93 
  -6   4   0    2.37    0.53 
  -5   4   0   18.99    1.16 
  -4   4   0    0.89    0.35 
  -4   4   0    1.71    0.32 
  -3   4   0  100.26    3.41 
  -3   4   0  104.52    3.68 
  -2   4   0   26.84    1.18 
  -2   4   0   27.02    1.12 
  -1   4   0  148.22    4.78 
  -1   4   0  141.50    4.62 
   0   4   0    0.64    0.19 
   0   4   0    0.66    0.15 
  -1  -4   0  151.38    5.08 
   1   4   0  156.50    4.80 
   1   4   0  145.84    4.82 
  -2  -4   0   24.19    1.13 
   2   4   0   25.53    1.09 
  -3  -4   0   96.25    3.49 
   3   4   0  103.44    3.39 
  -4  -4   0    1.09    0.32 
   4   4   0    1.01    0.28 
  -5  -4   0   18.52    1.10 
   5   4   0   19.32    1.02 
  -6  -4   0    2.28    0.52 
  -7  -4   0    6.24    0.87 
  -7   5   0    1.05    0.61 
  -6   5   0   16.56    1.22 
  -5   5   0    0.26    0.33 
  -4   5   0    1.93    0.42 
  -4   5   0    1.52    0.32 
  -3   5   0    0.42    0.27 
  -3   5   0    0.70    0.25 
  -2   5   0   79.49    2.79 
  -2   5   0   79.85    2.90 
  -1   5   0    0.60    0.20 
  -1   5   0    0.14    0.16 
   0   5   0    0.01    0.10 
   0   5   0    1.22    0.25 
  -1  -5   0    0.55    0.29 
   1   5   0    0.54    0.10 
   1   5   0    0.38    0.18 
  -2  -5   0   80.75    3.04 
   2   5   0   82.87    2.90 
  -3  -5   0    1.13    0.36 
   3   5   0    0.82    0.25 
  -4  -5   0    1.56    0.38 
   4   5   0    1.60    0.36 
  -5  -5   0    0.00    0.28 
   5   5   0   -0.18    0.17 
  -6  -5   0   15.00    1.09 
  -7  -5   0    1.86    0.67 
  -6   6   0    0.19    0.28 
  -5   6   0   13.09    1.03 
  -4   6   0   10.96    0.88 
  -4   6   0   12.56    0.79 
  -3   6   0   15.29    0.95 
  -3   6   0   16.38    0.92 
  -2   6   0    2.15    0.36 
  -2   6   0    1.97    0.36 
  -1   6   0   46.73    1.81 
  -1   6   0   47.39    1.88 
   0   6   0   18.87    0.98 
   0   6   0   18.03    0.82 
   1   6   0   47.49    1.93 
  -2  -6   0    1.96    0.47 
   2   6   0    1.20    0.30 
  -3  -6   0   15.20    1.02 
   3   6   0   16.00    0.96 
  -4  -6   0   11.22    0.90 
   4   6   0   13.08    0.88 
  -5  -6   0   13.21    1.02 
   5   6   0   14.59    1.00 
  -6  -6   0    0.35    0.50 
  -6   7   0    0.67    0.39 
  -5   7   0    3.76    0.66 
  -4   7   0    0.10    0.30 
  -4   7   0   -0.09    0.20 
  -3   7   0   19.91    1.09 
  -3   7   0   18.95    1.13 
  -2   7   0    4.43    0.55 
  -2   7   0    4.03    0.50 
  -1   7   0   43.92    1.76 
  -1   7   0   44.00    1.86 
   0   7   0    0.16    0.17 
   1   7   0   41.14    1.81 
  -2  -7   0    4.36    0.68 
   2   7   0    3.70    0.56 
  -3  -7   0   19.45    1.23 
   3   7   0   17.78    1.12 
  -4  -7   0   -0.13    0.36 
   4   7   0   -0.01    0.23 
  -5  -7   0    5.73    0.85 
   5   7   0    4.23    0.70 
  -6  -7   0    1.56    0.70 
  -5   8   0    0.20    0.32 
  -4   8   0    6.23    0.73 
  -4   8   0    6.22    0.79 
  -3   8   0    1.22    0.35 
  -3   8   0    0.79    0.37 
  -2   8   0    0.56    0.28 
  -2   8   0    0.17    0.23 
  -1   8   0    0.47    0.25 
   0   8   0    9.42    0.83 
   1   8   0    0.56    0.30 
   2   8   0    0.31    0.30 
  -3  -8   0    1.02    0.47 
   3   8   0    1.11    0.41 
  -4  -8   0    5.43    0.88 
   4   8   0    6.22    0.81 
  -5  -8   0    0.14    0.59 
   5   8   0    0.41    0.29 
  -4   9   0   -0.12    0.27 
  -3   9   0    1.14    0.43 
  -3   9   0    0.75    0.37 
  -2   9   0    0.03    0.26 
  -1   9   0    4.48    0.66 
   0   9   0    0.21    0.28 
   1   9   0    3.28    0.59 
   2   9   0   -0.08    0.29 
  -3  -9   0    1.99    0.62 
   3   9   0    0.43    0.34 
  -4  -9   0    0.76    0.68 
   4   9   0    0.42    0.29 
  -3  10   0    0.06    0.43 
  -2  10   0    0.30    0.39 
  -1  10   0    1.12    0.48 
   0  10   0    0.34    0.38 
   1  10   0    0.80    0.44 
   2  10   0    0.83    0.34 
   3  10   0    0.31    0.32 
   0  11   0   -0.04    0.42 
   0  11  -1    0.10    0.46 
   3  10  -1    0.42    0.31 
   2  10  -1    0.38    0.29 
   1  10  -1    0.68    0.34 
   0  10  -1    1.47    0.49 
  -1  10  -1    1.57    0.50 
  -2  10  -1    0.47    0.40 
  -3  10  -1    1.94    0.62 
   4   9  -1    0.56    0.30 
  -4  -9   1    0.45    0.65 
   3   9  -1    3.80    0.69 
  -3  -9   1    2.76    0.72 
   2   9  -1    3.87    0.68 
   1   9  -1    0.33    0.30 
   0   9  -1    1.39    0.41 
  -1   9  -1    0.95    0.37 
  -2   9  -1    6.05    0.74 
  -3   9  -1    1.07    0.40 
  -3   9  -1    0.33    0.36 
  -4   9  -1    0.27    0.36 
  -4   9  -1    0.33    0.41 
   5   8  -1    4.75    0.73 
  -5  -8   1    4.66    0.91 
   4   8  -1    0.30    0.33 
  -4  -8   1    0.05    0.46 
   3   8  -1    1.55    0.45 
  -3  -8   1    2.29    0.63 
   2   8  -1   -0.05    0.23 
   1   8  -1   24.06    1.36 
   0   8  -1    5.20    0.65 
  -1   8  -1   12.90    0.78 
  -1   8  -1   11.55    0.86 
  -2   8  -1   -0.16    0.17 
  -2   8  -1    0.33    0.25 
  -3   8  -1   11.42    0.89 
  -3   8  -1   11.63    0.86 
  -4   8  -1    1.11    0.43 
  -4   8  -1    1.30    0.40 
  -5   8  -1    2.86    0.58 
  -6  -7   1    2.68    0.79 
   5   7  -1    2.42    0.54 
  -5  -7   1    2.24    0.61 
   4   7  -1    0.67    0.31 
  -4  -7   1    0.09    0.37 
   3   7  -1    6.80    0.75 
  -3  -7   1    8.59    0.88 
   2   7  -1   16.93    1.04 
  -2  -7   1   16.10    1.13 
   1   7  -1   11.46    0.82 
   0   7  -1   10.24    0.75 
   0   7  -1   10.92    0.61 
  -1   7  -1    0.32    0.22 
  -1   7  -1    0.63    0.24 
  -2   7  -1   17.93    1.03 
  -2   7  -1   19.79    1.07 
  -3   7  -1    0.88    0.32 
  -3   7  -1    0.75    0.30 
  -4   7  -1    0.42    0.32 
  -4   7  -1    0.45    0.28 
  -5   7  -1    3.29    0.62 
  -6   7  -1    3.47    0.65 
  -6  -6   1    1.01    0.57 
   5   6  -1    7.61    0.79 
  -5  -6   1    7.93    0.85 
   4   6  -1    9.83    0.81 
  -4  -6   1    8.96    0.84 
   3   6  -1    5.46    0.61 
  -3  -6   1    5.14    0.66 
   2   6  -1    6.67    0.63 
  -2  -6   1    9.12    0.81 
   1   6  -1    8.54    0.65 
   0   6  -1   39.84    1.65 
   0   6  -1   38.39    1.47 
  -1   6  -1   15.39    0.82 
  -1   6  -1   17.05    0.92 
  -2   6  -1    3.59    0.47 
  -2   6  -1    3.65    0.45 
  -3   6  -1    5.09    0.61 
  -3   6  -1    6.62    0.61 
  -4   6  -1   11.88    0.92 
  -4   6  -1   11.86    0.79 
  -5   6  -1    1.94    0.51 
  -6   6  -1    2.49    0.53 
  -7  -5   1    4.93    0.86 
  -6  -5   1    1.91    0.54 
   5   5  -1    5.69    0.62 
  -5  -5   1    5.08    0.67 
   4   5  -1   15.70    0.89 
  -4  -5   1   14.25    0.93 
   3   5  -1   95.85    3.33 
  -3  -5   1   94.31    3.46 
   2   5  -1   28.77    1.31 
  -2  -5   1   31.88    1.44 
   1   5  -1   52.31    2.02 
   1   5  -1   54.57    1.81 
  -1  -5   1   55.64    2.21 
   0   5  -1    5.80    0.51 
   0   5  -1    6.04    0.37 
  -1   5  -1  116.52    3.84 
  -1   5  -1  113.26    3.88 
  -2   5  -1   23.04    1.09 
  -2   5  -1   23.34    1.11 
  -3   5  -1   26.51    1.30 
  -3   5  -1   25.74    1.20 
  -4   5  -1    4.07    0.48 
  -4   5  -1    3.66    0.55 
  -5   5  -1   21.55    1.33 
  -6   5  -1    2.09    0.58 
  -7   5  -1    0.62    0.61 
  -7  -4   1    0.00    0.45 
  -6  -4   1    1.35    0.44 
   5   4  -1    1.63    0.33 
  -5  -4   1    1.72    0.42 
   4   4  -1  121.34    4.06 
  -4  -4   1  122.03    4.27 
   3   4  -1    2.04    0.31 
  -3  -4   1    1.83    0.35 
   2   4  -1   -0.09    0.09 
  -2  -4   1    0.38    0.21 
   1   4  -1   56.63    1.84 
   1   4  -1   56.84    2.02 
  -1  -4   1   55.07    2.14 
   0   4  -1  303.82    9.31 
  -1   4  -1    8.23    0.53 
  -2   4  -1   16.95    0.82 
  -3   4  -1    3.91    0.48 
  -3   4  -1    3.87    0.42 
  -4   4  -1  101.97    3.49 
  -4   4  -1  104.21    3.82 
  -5   4  -1    2.56    0.49 
  -6   4  -1    2.88    0.58 
  -7   4  -1    0.17    0.50 
  -7  -3   1    5.25    0.77 
  -6  -3   1   11.93    0.89 
   5   3  -1   26.99    1.22 
  -5  -3   1   28.46    1.36 
   4   3  -1   12.06    0.69 
  -4  -3   1   12.37    0.59 
  -4  -3   1   12.58    0.77 
   3   3  -1   80.74    2.74 
  -3  -3   1   81.44    2.89 
  -3  -3   1   82.76    2.66 
   2   3  -1    0.38    0.15 
  -2  -3   1    0.85    0.22 
   1   3  -1  131.88    4.26 
  -1  -3   1  139.05    4.48 
   0   3  -1   10.61    0.54 
  -1   3  -1  245.54    7.52 
  -2   3  -1  102.70    3.33 
  -3   3  -1   72.80    2.68 
  -3   3  -1   72.50    2.46 
  -4   3  -1    4.55    0.53 
  -4   3  -1    4.90    0.43 
  -5   3  -1   30.77    1.53 
  -6   3  -1    6.71    0.78 
  -7   3  -1    4.57    0.77 
  -7  -2   1    5.11    0.76 
  -6  -2   1    7.99    0.77 
   5   2  -1   62.27    2.29 
  -5  -2   1   65.01    2.35 
  -5  -2   1   65.94    2.52 
  -4  -2   1  109.86    3.65 
  -4  -2   1  108.25    3.79 
   3   2  -1   97.20    3.18 
  -3  -2   1   99.41    3.36 
  -3  -2   1   99.17    3.23 
   2   2  -1   26.55    1.02 
  -2  -2   1   27.47    1.09 
  -2  -2   1   29.07    0.96 
   1   2  -1  198.82    5.93 
  -1  -2   1  194.83    6.18 
  -1  -2   1  190.52    6.20 
   0   2  -1  303.49    9.13 
  -1   2  -1   17.16    0.69 
  -2   2  -1   29.09    1.05 
  -3   2  -1  169.46    5.23 
  -4   2  -1  124.03    4.58 
  -4   2  -1  140.44    4.21 
  -5   2  -1   26.25    1.13 
  -5   2  -1   29.51    1.40 
  -6   2  -1    0.08    0.23 
  -7   2  -1   11.78    1.05 
  -7  -1   1    3.81    0.68 
  -6  -1   1   61.94    2.44 
  -6  -1   1   64.46    2.58 
   5   1  -1    1.79    0.28 
  -5  -1   1    1.98    0.34 
   4   1  -1    1.70    0.24 
  -4  -1   1    1.93    0.28 
   3   1  -1   16.24    0.67 
  -3  -1   1   15.61    0.69 
  -2  -1   1  603.67   19.04 
  -2  -1   1  623.06   19.19 
   1   1  -1    5.49    0.25 
  -1  -1   1    5.18    0.28 
  -1  -1   1    5.31    0.22 
   0   1  -1   41.12    1.34 
   0  -1   1   40.98    1.40 
  -1   1  -1   23.16    0.79 
  -2   1  -1  945.64   27.98 
  -3   1  -1   -0.01    0.08 
  -4   1  -1    2.71    0.39 
  -4   1  -1    3.56    0.30 
  -5   1  -1   11.35    0.63 
  -5   1  -1   11.47    0.78 
  -6   1  -1   32.73    1.59 
  -7   1  -1    0.17    0.33 
  -7   0   1    8.82    0.81 
  -6   0   1    0.60    0.26 
  -5   0   1   67.78    2.56 
   4   0  -1    0.12    0.11 
  -4   0   1   -0.50    0.15 
   3   0  -1  223.63    6.68 
  -3   0   1  217.42    7.10 
   2   0  -1   -0.15    0.05 
  -2   0   1   -0.22    0.09 
   1   0  -1  313.24    9.24 
  -1   0   1  301.97    9.66 
   0   0   1   -0.83    0.01 
   0   0   1   -0.83    0.01 
   1   0   1   33.15    1.08 
   2   0   1   -0.18    0.07 
  -4   0  -1   -0.40    0.15 
   4   0   1    0.08    0.09 
  -5   0  -1   35.43    1.53 
   5   0   1   34.98    1.40 
  -6   0  -1    0.00    0.20 
  -7   0  -1   27.62    1.49 
  -7   1   1    2.96    0.56 
  -6   1   1   64.86    2.63 
  -5   1   1    1.84    0.37 
  -4   1   1    1.54    0.20 
  -4   1   1    1.86    0.32 
  -3   1   1   15.25    0.60 
  -3   1   1   15.10    0.75 
  -2   1   1  574.65   18.15 
  -2   1   1  581.49   17.15 
  -1   1   1    5.40    0.24 
  -1   1   1    4.87    0.27 
   0   1   1   46.72    1.49 
  -1  -1  -1   23.75    0.84 
   1   1   1   23.20    0.82 
  -2  -1  -1  958.44   29.70 
   2   1   1  963.79   28.49 
  -3  -1  -1   -0.03    0.10 
   3   1   1    0.07    0.10 
  -4  -1  -1    3.56    0.35 
   4   1   1    3.47    0.36 
  -6  -1  -1   31.37    1.46 
  -6  -1  -1   31.03    1.53 
  -7  -1  -1    0.21    0.36 
  -7   2   1    5.81    0.77 
  -6   2   1    9.64    0.85 
  -5   2   1   68.81    2.69 
  -4   2   1  108.98    3.82 
  -4   2   1  107.25    3.43 
  -3   2   1   97.81    3.39 
  -3   2   1   97.38    3.09 
  -2   2   1   27.11    1.09 
  -2   2   1   27.23    0.99 
  -1   2   1  190.38    5.80 
  -1   2   1  191.72    6.11 
   0   2   1  316.91    9.24 
   0   2   1  298.73    9.65 
  -1  -2  -1   18.42    0.74 
   1   2   1   17.44    0.70 
  -2  -2  -1   30.54    1.16 
  -2  -2  -1   30.42    1.03 
   2   2   1   30.17    1.12 
  -3  -2  -1  177.72    5.76 
  -3  -2  -1  176.31    5.67 
   3   2   1  177.68    5.53 
  -4  -2  -1  141.09    4.70 
  -4  -2  -1  143.50    4.82 
   4   2   1  144.07    4.60 
  -5  -2  -1   29.53    1.35 
  -5  -2  -1   27.50    1.20 
   5   2   1   25.38    1.20 
  -6  -2  -1    0.10    0.26 
  -7  -2  -1   10.76    1.00 
  -7   3   1    6.26    0.84 
  -6   3   1   11.85    1.01 
  -5   3   1   29.69    1.48 
  -4   3   1   11.77    0.76 
  -4   3   1   11.63    0.63 
  -3   3   1   79.52    2.90 
  -3   3   1   81.04    2.67 
  -2   3   1    0.31    0.18 
  -2   3   1    0.48    0.16 
  -1   3   1  134.43    4.35 
  -1   3   1  131.37    4.16 
   0   3   1   11.78    0.49 
   0   3   1   12.19    0.57 
  -1  -3  -1  252.78    8.05 
   1   3   1  252.01    7.71 
  -2  -3  -1  100.82    3.34 
   2   3   1   96.09    3.20 
  -3  -3  -1   81.06    2.83 
  -3  -3  -1   82.17    2.61 
   3   3   1   77.21    2.72 
  -4  -3  -1    3.87    0.45 
   4   3   1    3.94    0.42 
  -5  -3  -1   26.61    1.33 
   5   3   1   29.09    1.29 
  -6  -3  -1    7.18    0.73 
  -7  -3  -1    4.42    0.74 
  -7   4   1    0.14    0.44 
  -6   4   1    1.67    0.47 
  -5   4   1    1.62    0.42 
  -4   4   1  123.93    4.47 
  -4   4   1  126.07    4.10 
  -3   4   1    3.07    0.43 
  -3   4   1    2.37    0.32 
  -2   4   1    0.02    0.11 
  -2   4   1    0.06    0.13 
  -1   4   1   54.40    1.94 
  -1   4   1   55.72    1.98 
   0   4   1  312.27    9.81 
   0   4   1  308.55    9.48 
  -1  -4  -1    8.48    0.62 
   1   4   1    9.03    0.36 
   1   4   1    9.04    0.54 
  -2  -4  -1   17.46    0.88 
   2   4   1   16.33    0.83 
  -3  -4  -1    4.57    0.48 
   3   4   1    3.70    0.43 
  -4  -4  -1  101.93    3.60 
   4   4   1   99.36    3.48 
  -5  -4  -1    2.73    0.48 
   5   4   1    2.99    0.44 
  -6  -4  -1    2.55    0.55 
  -7  -4  -1    0.16    0.49 
  -7   5   1    5.11    0.91 
  -6   5   1    0.59    0.46 
  -5   5   1    5.51    0.73 
  -4   5   1   15.31    0.97 
  -4   5   1   14.21    0.82 
  -3   5   1   94.24    3.44 
  -3   5   1   93.43    3.21 
  -2   5   1   30.63    1.33 
  -2   5   1   29.82    1.27 
  -1   5   1   51.12    1.95 
  -1   5   1   54.68    1.96 
   0   5   1    6.02    0.47 
   0   5   1    5.81    0.37 
  -1  -5  -1  116.10    4.08 
   1   5   1  110.24    3.84 
   1   5   1  118.66    3.71 
  -2  -5  -1   26.69    1.30 
   2   5   1   26.43    1.22 
  -3  -5  -1   25.86    1.29 
   3   5   1   26.99    1.26 
  -4  -5  -1    3.62    0.53 
   4   5   1    4.11    0.51 
  -5  -5  -1   18.11    1.13 
   5   5   1   21.00    1.13 
  -6  -5  -1    1.61    0.50 
  -7  -5  -1    1.31    0.66 
  -6   6   1    0.51    0.35 
  -5   6   1    7.21    0.84 
  -4   6   1    8.73    0.82 
  -4   6   1    8.54    0.66 
  -3   6   1    5.71    0.55 
  -3   6   1    4.70    0.57 
  -2   6   1    7.28    0.57 
  -2   6   1    7.72    0.58 
  -1   6   1    8.46    0.55 
  -1   6   1    7.55    0.64 
   0   6   1   37.77    1.42 
   0   6   1   36.85    1.56 
   1   6   1   15.78    0.91 
  -2  -6  -1    4.21    0.61 
   2   6   1    3.56    0.49 
  -3  -6  -1    8.02    0.77 
   3   6   1    5.58    0.62 
  -4  -6  -1   11.84    0.90 
   4   6   1   10.94    0.82 
  -5  -6  -1    2.38    0.55 
   5   6   1    2.57    0.52 
  -6  -6  -1    2.67    0.68 
  -6   7   1    2.89    0.60 
  -5   7   1    2.82    0.59 
  -4   7   1    0.57    0.33 
  -4   7   1    0.99    0.31 
  -3   7   1    8.42    0.73 
  -3   7   1    7.40    0.73 
  -2   7   1   14.78    0.89 
  -2   7   1   14.75    0.90 
  -1   7   1   11.23    0.77 
  -1   7   1   11.59    0.70 
   0   7   1   10.29    0.73 
   1   7   1    0.40    0.23 
  -2  -7  -1   17.98    1.17 
   2   7   1   16.90    1.04 
  -3  -7  -1    0.18    0.35 
   3   7   1    0.62    0.30 
  -4  -7  -1   -0.02    0.36 
   4   7   1    0.46    0.30 
  -5  -7  -1    3.11    0.70 
   5   7   1    3.04    0.62 
  -6  -7  -1    3.70    0.88 
  -5   8   1    3.96    0.68 
  -4   8   1   -0.12    0.29 
  -3   8   1    1.73    0.45 
  -3   8   1    1.23    0.35 
  -2   8   1   -0.16    0.20 
  -2   8   1   -0.09    0.21 
  -1   8   1   22.82    1.24 
   0   8   1    4.37    0.60 
   1   8   1   11.10    0.85 
   2   8   1    0.20    0.25 
  -3  -8  -1   10.01    1.04 
   3   8   1    8.67    0.88 
  -4  -8  -1    1.18    0.57 
   4   8   1    1.32    0.43 
  -5  -8  -1    1.13    0.70 
   5   8   1    2.26    0.55 
  -4   9   1    0.33    0.31 
  -3   9   1    3.20    0.59 
  -3   9   1    3.67    0.62 
  -2   9   1    3.59    0.60 
  -1   9   1    0.54    0.31 
   0   9   1    1.21    0.40 
   1   9   1    1.37    0.43 
   2   9   1    4.50    0.69 
   3   9   1    1.19    0.36 
  -4  -9  -1    0.65    0.64 
   4   9   1    0.50    0.29 
  -3  10   1    0.13    0.41 
  -2  10   1   -0.13    0.35 
  -1  10   1    0.67    0.42 
   0  10   1    0.92    0.43 
   1  10   1    1.85    0.55 
   2  10   1    1.02    0.37 
   3  10   1    3.16    0.61 
   0  11   1    0.06    0.44 
   0  11  -2    0.83    0.54 
   3  10  -2    0.81    0.35 
   2  10  -2    0.27    0.28 
   1  10  -2    1.31    0.40 
   0  10  -2    0.55    0.39 
  -1  10  -2    0.19    0.36 
  -2  10  -2    0.90    0.48 
  -3  10  -2    2.69    0.68 
   4   9  -2    0.50    0.34 
  -4  -9   2    0.79    0.68 
   3   9  -2    8.78    0.95 
  -3  -9   2    8.34    1.08 
   2   9  -2    0.04    0.26 
   1   9  -2    0.74    0.38 
   0   9  -2    0.49    0.29 
  -1   9  -2   10.08    0.93 
  -2   9  -2    0.40    0.30 
  -3   9  -2    1.04    0.42 
  -3   9  -2    1.25    0.45 
  -4   9  -2    1.00    0.37 
  -4   9  -2    0.51    0.45 
   5   8  -2    0.39    0.35 
  -5  -8   2    0.04    0.55 
   4   8  -2    6.49    0.83 
  -4  -8   2    6.66    0.94 
   3   8  -2    0.59    0.34 
  -3  -8   2   -0.10    0.40 
   2   8  -2    1.40    0.41 
   1   8  -2    0.20    0.24 
   0   8  -2    2.73    0.50 
  -1   8  -2    0.50    0.26 
  -1   8  -2    1.21    0.30 
  -2   8  -2    6.80    0.67 
  -2   8  -2    8.10    0.78 
  -3   8  -2   -0.08    0.28 
  -3   8  -2   -0.03    0.21 
  -4   8  -2    9.89    0.96 
  -4   8  -2    8.89    0.89 
  -5   8  -2    0.78    0.37 
  -6  -7   2    0.90    0.69 
   5   7  -2    0.48    0.35 
  -5  -7   2    0.14    0.42 
   4   7  -2    0.05    0.24 
  -4  -7   2    0.19    0.39 
   3   7  -2   14.68    0.99 
  -3  -7   2   14.36    1.06 
   2   7  -2    9.86    0.83 
  -2  -7   2    9.79    0.96 
   1   7  -2    1.89    0.40 
   0   7  -2    0.76    0.27 
   0   7  -2    0.38    0.18 
  -1   7  -2   10.95    0.70 
  -1   7  -2   10.58    0.76 
  -2   7  -2    8.13    0.66 
  -2   7  -2    9.15    0.70 
  -3   7  -2    2.63    0.48 
  -3   7  -2    2.48    0.44 
  -4   7  -2   -0.04    0.30 
  -4   7  -2    0.17    0.21 
  -5   7  -2    8.32    0.93 
  -6   7  -2    0.88    0.36 
  -6  -6   2    0.52    0.48 
   5   6  -2    8.83    0.82 
  -5  -6   2    9.53    0.92 
   4   6  -2   13.47    0.90 
  -4  -6   2   13.61    0.97 
   3   6  -2   10.38    0.75 
  -3  -6   2   10.30    0.83 
   2   6  -2    2.44    0.42 
  -2  -6   2    3.55    0.57 
   1   6  -2   41.81    1.80 
  -1  -6   2   45.69    1.98 
   0   6  -2   23.86    1.17 
   0   6  -2   23.42    0.99 
  -1   6  -2    5.30    0.47 
  -1   6  -2    6.37    0.59 
  -2   6  -2    5.01    0.54 
  -2   6  -2    4.65    0.51 
  -3   6  -2   39.18    1.79 
  -3   6  -2   39.67    1.70 
  -4   6  -2    8.37    0.73 
  -4   6  -2    9.57    0.87 
  -5   6  -2    1.28    0.44 
  -6   6  -2    0.49    0.32 
  -7  -5   2    2.66    0.73 
  -6  -5   2   12.68    1.03 
   5   5  -2    0.15    0.21 
  -5  -5   2   -0.11    0.28 
   4   5  -2    7.11    0.64 
  -4  -5   2    7.90    0.73 
   3   5  -2    0.54    0.23 
  -3  -5   2    0.98    0.35 
   2   5  -2   86.80    2.97 
  -2  -5   2   80.99    3.10 
   1   5  -2    0.27    0.15 
  -1  -5   2    0.66    0.31 
   0   5  -2   23.47    1.09 
  -1   5  -2    7.30    0.55 
  -2   5  -2   90.84    3.15 
  -3   5  -2    2.44    0.42 
  -3   5  -2    3.08    0.43 
  -4   5  -2   10.53    0.71 
  -4   5  -2   10.25    0.79 
  -5   5  -2    8.79    0.89 
  -6   5  -2   14.98    1.17 
  -7  -4   2    1.67    0.61 
  -6  -4   2    1.11    0.42 
   5   4  -2   41.98    1.75 
  -5  -4   2   43.91    1.93 
   4   4  -2    0.70    0.23 
  -4  -4   2    0.28    0.24 
   3   4  -2    1.13    0.25 
  -3  -4   2    0.67    0.28 
   2   4  -2   10.84    0.63 
  -2  -4   2   11.90    0.70 
   1   4  -2  399.34   12.14 
   0   4  -2    6.74    0.50 
  -1   4  -2   37.94    1.47 
  -2   4  -2    0.37    0.18 
  -3   4  -2   94.04    3.21 
  -4   4  -2    0.01    0.25 
  -4   4  -2    0.18    0.20 
  -5   4  -2    7.68    0.60 
  -5   4  -2    7.73    0.79 
  -6   4  -2    1.11    0.42 
  -7   4  -2   12.64    1.23 
  -7  -3   2    2.10    0.58 
  -6  -3   2   26.12    1.41 
   5   3  -2    2.19    0.33 
  -5  -3   2    2.95    0.47 
   4   3  -2   40.93    1.55 
  -4  -3   2   38.89    1.44 
  -4  -3   2   39.46    1.68 
   3   3  -2   94.58    3.14 
  -3  -3   2   92.99    3.31 
  -3  -3   2   98.35    3.11 
   2   3  -2  256.57    7.91 
  -2  -3   2  255.42    8.27 
  -2  -3   2  263.33    8.14 
   1   3  -2   94.43    3.04 
  -1  -3   2   92.12    3.18 
   0   3  -2   89.16    2.92 
  -1   3  -2  181.95    5.67 
  -2   3  -2  246.41    7.57 
  -3   3  -2    5.22    0.42 
  -4   3  -2   16.94    0.95 
  -4   3  -2   15.31    0.80 
  -5   3  -2   17.00    0.88 
  -5   3  -2   16.45    1.05 
  -6   3  -2   27.07    1.51 
  -7   3  -2    0.13    0.40 
  -7  -2   2    3.18    0.65 
  -6  -2   2    9.76    0.79 
   5   2  -2    6.71    0.47 
  -5  -2   2    6.23    0.62 
  -5  -2   2    5.62    0.48 
   4   2  -2   88.31    2.79 
  -4  -2   2   87.48    2.87 
  -4  -2   2   74.40    2.96 
   3   2  -2    0.01    0.05 
  -3  -2   2    0.24    0.17 
  -3  -2   2    0.15    0.13 
   2   2  -2   65.74    2.15 
  -2  -2   2   64.30    2.28 
  -2  -2   2   67.68    2.17 
   1   2  -2  396.90   11.43 
  -1  -2   2  379.91   11.96 
  -1  -2   2  367.23   11.90 
   0   2  -2  516.11   15.06 
   0  -2   2  492.51   15.70 
  -1   2  -2   57.66    1.90 
  -2   2  -2  105.11    3.31 
  -3   2  -2  119.06    3.77 
  -4   2  -2   97.00    3.49 
  -4   2  -2   96.43    3.17 
  -5   2  -2    5.01    0.59 
  -5   2  -2    4.57    0.44 
  -6   2  -2   21.62    1.26 
  -7   2  -2    8.79    0.93 
  -7  -1   2   13.13    1.03 
  -6  -1   2    6.04    0.68 
  -6  -1   2    4.74    0.55 
  -5  -1   2   16.78    0.96 
  -5  -1   2   16.96    0.88 
   4   1  -2    6.64    0.41 
  -4  -1   2    6.78    0.46 
   3   1  -2  428.90   12.78 
  -3  -1   2  425.85   13.48 
   2   1  -2  189.51    5.73 
  -2  -1   2  189.97    6.04 
  -2  -1   2  190.29    6.05 
  -1  -1   2  529.11   16.13 
  -1  -1   2  501.43   15.95 
   0   1  -2    0.47    0.09 
   0  -1   2    0.40    0.11 
   0  -1   2    0.50    0.09 
  -1   1  -2  121.82    3.72 
  -2   1  -2  142.79    4.38 
  -3   1  -2    1.00    0.17 
  -4   1  -2    4.13    0.35 
  -5   1  -2   95.43    3.16 
  -5   1  -2   94.73    3.50 
  -6   1  -2    3.63    0.54 
  -7   1  -2    4.01    0.65 
  -7   0   2   -0.41    0.27 
  -6   0   2   12.24    0.82 
  -5   0   2    0.11    0.20 
   4   0  -2  162.34    5.10 
  -4   0   2  170.37    5.54 
   3   0  -2   -0.04    0.07 
  -3   0   2   -0.08    0.14 
   2   0  -2  169.12    4.97 
  -2   0   2  160.83    5.30 
  -1   0   2   -0.52    0.07 
   0   0   2  565.39   16.45 
   0   0   2  539.93   17.30 
   1   0   2   -0.56    0.05 
   2   0   2   59.57    1.96 
   3   0   2    0.14    0.11 
  -4   0  -2  207.76    6.77 
   4   0   2  203.49    6.41 
  -5   0  -2   -0.10    0.16 
   5   0   2    0.00    0.11 
  -6   0  -2   11.42    0.80 
  -7   1   2   12.84    0.96 
  -6   1   2    4.46    0.59 
  -5   1   2   18.22    1.01 
  -4   1   2    6.08    0.35 
  -4   1   2    6.26    0.50 
  -3   1   2  415.23   12.38 
  -3   1   2  416.93   13.22 
  -2   1   2  183.31    5.88 
  -2   1   2  181.14    5.47 
  -1   1   2  501.10   14.77 
  -1   1   2  492.52   15.56 
   0   1   2    0.32    0.07 
   0   1   2    0.26    0.06 
  -1  -1  -2  123.24    3.97 
   1   1   2  128.10    3.87 
  -2  -1  -2  150.04    4.71 
   2   1   2  143.66    4.54 
   3   1   2    0.23    0.12 
  -4  -1  -2    3.73    0.37 
   4   1   2    3.33    0.37 
  -5  -1  -2   91.82    3.29 
  -5  -1  -2   94.11    3.35 
   5   1   2   90.86    3.16 
  -6  -1  -2    5.09    0.56 
  -6  -1  -2    5.58    0.66 
  -7  -1  -2    4.32    0.71 
  -7   2   2    4.10    0.68 
  -6   2   2    9.78    0.80 
  -5   2   2    7.58    0.69 
  -4   2   2   89.49    3.19 
  -4   2   2   86.16    2.81 
  -3   2   2   -0.09    0.13 
  -3   2   2    0.16    0.11 
  -2   2   2   64.49    2.08 
  -2   2   2   65.00    2.27 
  -1   2   2  398.02   12.40 
  -1   2   2  389.56   11.75 
   0   2   2  562.99   16.75 
  -1  -2  -2   59.34    2.01 
   1   2   2   59.35    1.93 
   1   2   2   59.78    1.96 
  -2  -2  -2  113.30    3.73 
   2   2   2  114.79    3.63 
  -3  -2  -2  120.79    4.05 
   3   2   2  122.67    3.92 
  -4  -2  -2   93.47    3.15 
  -4  -2  -2   90.62    3.24 
   4   2   2   92.42    3.12 
  -5  -2  -2    5.48    0.57 
  -5  -2  -2    5.22    0.46 
   5   2   2    4.76    0.50 
  -6  -2  -2   20.89    1.18 
  -7  -2  -2    9.02    0.92 
  -7   3   2    0.89    0.46 
  -6   3   2   27.17    1.50 
  -5   3   2    3.75    0.54 
  -4   3   2   38.68    1.65 
  -4   3   2   36.90    1.41 
  -3   3   2   95.27    3.03 
  -3   3   2   91.17    3.30 
  -2   3   2  257.10    8.27 
  -2   3   2  255.77    7.80 
  -1   3   2   93.16    3.11 
  -1   3   2   92.65    2.97 
   0   3   2   94.83    3.13 
   0   3   2   98.05    3.10 
  -1  -3  -2  180.77    6.03 
   1   3   2  187.86    5.80 
   1   3   2  191.81    5.92 
  -2  -3  -2  243.57    7.81 
   2   3   2  245.97    7.54 
  -3  -3  -2    4.90    0.28 
  -3  -3  -2    4.41    0.43 
   3   3   2    4.46    0.43 
  -4  -3  -2   14.85    0.84 
   4   3   2   14.73    0.80 
  -5  -3  -2   17.70    1.00 
   5   3   2   17.95    0.96 
  -6  -3  -2   27.30    1.41 
  -7  -3  -2    0.17    0.41 
  -7   4   2    1.63    0.61 
  -6   4   2    1.14    0.42 
  -5   4   2   43.74    2.01 
  -4   4   2    0.31    0.18 
  -4   4   2   -0.19    0.24 
  -3   4   2    0.58    0.19 
  -3   4   2    0.46    0.22 
  -2   4   2   11.64    0.61 
  -2   4   2   11.38    0.65 
  -1   4   2  407.93   12.72 
  -1   4   2  393.96   12.12 
   0   4   2    6.74    0.44 
   0   4   2    6.01    0.35 
  -1  -4  -2   39.55    1.60 
   1   4   2   38.36    1.50 
   1   4   2   39.92    1.32 
  -2  -4  -2    0.13    0.18 
   2   4   2    0.14    0.12 
  -3  -4  -2   89.00    3.21 
   3   4   2   92.13    3.13 
  -4  -4  -2    0.51    0.25 
   4   4   2    0.42    0.20 
  -5  -4  -2    7.02    0.70 
   5   4   2    7.87    0.68 
  -6  -4  -2    1.41    0.46 
  -7  -4  -2   12.18    1.14 
  -7   5   2    2.97    0.79 
  -6   5   2   13.12    1.15 
  -5   5   2   -0.15    0.28 
  -4   5   2    7.25    0.54 
  -4   5   2    7.19    0.70 
  -3   5   2    0.36    0.21 
  -3   5   2    0.20    0.26 
  -2   5   2   85.40    3.09 
  -2   5   2   87.01    2.95 
  -1   5   2    0.56    0.20 
  -1   5   2    0.25    0.16 
   0   5   2   24.30    1.09 
   0   5   2   24.64    0.98 
  -1  -5  -2    9.15    0.67 
   1   5   2    6.96    0.54 
   1   5   2    7.63    0.38 
  -2  -5  -2   90.27    3.30 
   2   5   2   91.29    3.18 
  -3  -5  -2    2.77    0.45 
   3   5   2    3.29    0.46 
  -4  -5  -2   10.13    0.75 
   4   5   2   11.53    0.79 
  -5  -5  -2   10.18    0.86 
   5   5   2    9.66    0.82 
  -6  -5  -2   12.62    1.01 
  -6   6   2    1.19    0.44 
  -5   6   2    9.03    0.93 
  -4   6   2   13.68    0.83 
  -4   6   2   13.98    0.97 
  -3   6   2   10.36    0.75 
  -3   6   2    8.75    0.63 
  -2   6   2    3.14    0.43 
  -2   6   2    3.31    0.43 
  -1   6   2   42.13    1.56 
  -1   6   2   34.18    1.55 
   0   6   2   26.63    1.06 
   0   6   2   23.22    1.17 
   1   6   2    4.78    0.51 
  -2  -6  -2    5.13    0.65 
   2   6   2    4.30    0.53 
  -3  -6  -2   37.61    1.77 
   3   6   2   38.43    1.71 
  -4  -6  -2    7.65    0.78 
   4   6   2    8.41    0.78 
  -5  -6  -2    1.00    0.41 
   5   6   2    0.62    0.34 
  -6  -6  -2   -0.21    0.45 
  -6   7   2    0.93    0.37 
  -5   7   2    0.47    0.37 
  -4   7   2   -0.29    0.24 
  -3   7   2   14.45    0.89 
  -3   7   2   14.08    0.95 
  -2   7   2    8.59    0.65 
  -2   7   2    8.50    0.70 
  -1   7   2    2.04    0.38 
  -1   7   2    2.12    0.34 
   0   7   2    0.53    0.23 
   1   7   2    8.14    0.73 
  -2  -7  -2    9.41    0.87 
   2   7   2    6.79    0.71 
  -3  -7  -2    2.42    0.55 
   3   7   2    2.78    0.52 
  -4  -7  -2    0.07    0.34 
   4   7   2    0.33    0.29 
  -5  -7  -2    6.03    0.86 
   5   7   2    5.55    0.77 
  -6  -7  -2    0.44    0.64 
  -5   8   2    0.38    0.32 
  -4   8   2    6.03    0.77 
  -3   8   2    0.11    0.28 
  -3   8   2    0.47    0.26 
  -2   8   2    1.17    0.33 
  -2   8   2    1.21    0.34 
  -1   8   2    0.10    0.20 
   0   8   2    2.56    0.47 
   1   8   2    1.08    0.33 
   2   8   2    6.92    0.79 
  -3  -8  -2    0.33    0.41 
   3   8   2   -0.02    0.26 
  -4  -8  -2    8.91    1.02 
   4   8   2    7.76    0.90 
  -5  -8  -2    0.38    0.59 
   5   8   2    0.55    0.32 
  -4   9   2    0.62    0.36 
  -3   9   2    7.74    0.80 
  -3   9   2    8.90    0.86 
  -2   9   2    0.42    0.28 
  -1   9   2    0.60    0.32 
   0   9   2    0.44    0.31 
   1   9   2    9.76    0.94 
   2   9   2    0.27    0.26 
   3   9   2    0.26    0.27 
  -4  -9  -2    0.04    0.60 
   4   9   2    1.01    0.34 
  -3  10   2    0.27    0.41 
  -2  10   2    0.23    0.38 
  -1  10   2    0.79    0.43 
   0  10   2    2.34    0.57 
   1  10   2    0.22    0.39 
   2  10   2    1.66    0.45 
   3  10   2    2.34    0.52 
   0  11   2    0.47    0.50 
   0  11  -3   -0.04    0.49 
   3  10  -3    0.66    0.30 
   2  10  -3    1.08    0.38 
   1  10  -3    2.38    0.53 
   0  10  -3    0.75    0.42 
  -1  10  -3    1.01    0.47 
  -2  10  -3    0.66    0.46 
  -3  10  -3    0.24    0.47 
   4   9  -3    1.43    0.43 
  -4  -9   3    0.32    0.65 
   3   9  -3    0.57    0.35 
  -3  -9   3   -0.25    0.48 
   2   9  -3    5.75    0.80 
   1   9  -3    0.06    0.26 
   0   9  -3    1.50    0.45 
  -1   9  -3    0.84    0.36 
  -2   9  -3    2.19    0.52 
  -3   9  -3    0.83    0.42 
  -3   9  -3    0.66    0.38 
  -4   9  -3    0.28    0.32 
  -4   9  -3    0.29    0.42 
   5   8  -3    6.39    0.83 
  -5  -8   3    8.18    1.10 
   4   8  -3    0.18    0.29 
  -4  -8   3    0.44    0.51 
   3   8  -3    1.67    0.46 
  -3  -8   3    1.91    0.61 
   2   8  -3    0.49    0.30 
  -2  -8   3    0.55    0.42 
   1   8  -3   26.51    1.43 
   0   8  -3    1.87    0.42 
  -1   8  -3    3.70    0.58 
  -1   8  -3    3.59    0.46 
  -2   8  -3    0.19    0.22 
  -2   8  -3    0.13    0.23 
  -3   8  -3    4.10    0.63 
  -3   8  -3    4.04    0.63 
  -4   8  -3    0.41    0.30 
  -4   8  -3    0.38    0.36 
  -5   8  -3    0.60    0.32 
  -6  -7   3    2.46    0.81 
   5   7  -3    1.23    0.43 
  -5  -7   3    0.58    0.52 
   4   7  -3    8.74    0.84 
  -4  -7   3    9.90    1.00 
   3   7  -3    7.12    0.74 
  -3  -7   3    5.04    0.74 
   2   7  -3   13.96    0.95 
  -2  -7   3   15.14    1.10 
   1   7  -3    2.04    0.44 
   0   7  -3   12.13    0.84 
   0   7  -3   12.86    0.68 
  -1   7  -3   22.52    1.22 
  -1   7  -3   24.76    1.15 
  -2   7  -3    8.99    0.77 
  -2   7  -3    8.04    0.65 
  -3   7  -3    0.10    0.19 
  -3   7  -3    0.66    0.29 
  -4   7  -3    4.07    0.67 
  -4   7  -3    3.61    0.56 
  -5   7  -3    3.71    0.65 
  -6  -6   3    0.71    0.51 
   5   6  -3    9.05    0.80 
  -5  -6   3    7.70    0.87 
   4   6  -3   17.24    1.03 
  -4  -6   3   17.65    1.14 
   3   6  -3    0.61    0.25 
  -3  -6   3    0.98    0.39 
   2   6  -3    3.67    0.50 
  -2  -6   3    4.12    0.61 
   1   6  -3   31.57    1.44 
  -1  -6   3   32.31    1.59 
   0   6  -3   46.95    1.91 
  -1   6  -3    3.11    0.45 
  -2   6  -3   21.36    1.11 
  -3   6  -3   11.19    0.76 
  -3   6  -3    9.84    0.76 
  -4   6  -3   18.05    1.03 
  -4   6  -3   16.60    1.12 
  -5   6  -3    0.10    0.31 
  -6   6  -3    2.80    0.61 
  -7  -5   3   13.77    1.27 
  -6  -5   3    0.34    0.38 
   5   5  -3    3.59    0.51 
  -5  -5   3    3.49    0.61 
   4   5  -3    2.01    0.37 
  -4  -5   3    3.52    0.53 
   3   5  -3   63.62    2.40 
  -3  -5   3   65.61    2.54 
   2   5  -3    5.95    0.55 
  -2  -5   3    6.26    0.63 
   1   5  -3    1.73    0.31 
  -1  -5   3    1.87    0.43 
   0   5  -3   11.11    0.69 
  -1   5  -3  173.20    5.60 
  -2   5  -3    2.47    0.38 
  -3   5  -3    2.28    0.38 
  -4   5  -3    4.86    0.55 
  -4   5  -3    4.62    0.60 
  -5   5  -3   32.38    1.52 
  -5   5  -3   30.98    1.68 
  -6   5  -3    0.77    0.49 
  -7  -4   3    0.69    0.53 
  -6  -4   3   12.46    0.95 
   5   4  -3    0.95    0.28 
  -5  -4   3    0.95    0.34 
   4   4  -3   42.92    1.72 
  -4  -4   3   46.31    1.89 
   3   4  -3    3.74    0.40 
  -3  -4   3    3.64    0.47 
   2   4  -3  108.02    3.54 
  -2  -4   3  104.92    3.69 
   1   4  -3   59.02    2.10 
  -1  -4   3   57.13    2.21 
   0   4  -3   79.37    2.73 
  -1   4  -3    1.32    0.26 
  -2   4  -3   55.86    2.05 
  -3   4  -3    4.79    0.46 
  -4   4  -3   44.81    1.78 
  -5   4  -3   -0.05    0.21 
  -5   4  -3    0.38    0.22 
  -6   4  -3    8.66    0.94 
  -7   4  -3    0.05    0.52 
  -7  -3   3   13.50    1.14 
  -6  -3   3   10.28    0.84 
  -5  -3   3    1.05    0.31 
   4   3  -3    0.06    0.09 
  -4  -3   3    0.53    0.25 
  -4  -3   3    0.12    0.16 
   3   3  -3  133.05    4.19 
  -3  -3   3  130.49    4.22 
  -3  -3   3  128.79    4.41 
   2   3  -3   59.10    2.00 
  -2  -3   3   57.50    1.90 
  -2  -3   3   54.87    2.07 
   1   3  -3    8.44    0.46 
  -1  -3   3    5.84    0.45 
   0   3  -3    4.57    0.34 
  -1   3  -3  279.40    8.55 
  -2   3  -3   59.13    2.06 
  -3   3  -3   10.77    0.60 
  -4   3  -3   14.75    0.77 
  -5   3  -3   31.43    1.56 
  -5   3  -3   31.14    1.34 
  -6   3  -3    4.39    0.68 
  -7   3  -3    0.19    0.45 
  -7  -2   3    0.87    0.46 
  -6  -2   3    7.08    0.74 
  -5  -2   3   10.26    0.64 
  -5  -2   3   11.13    0.76 
   4   2  -3   67.47    2.27 
  -4  -2   3   65.61    2.51 
  -4  -2   3   68.97    2.37 
   3   2  -3    7.13    0.40 
  -3  -2   3    8.10    0.42 
  -3  -2   3    7.66    0.50 
   2   2  -3   26.43    0.98 
  -2  -2   3   24.76    1.05 
  -2  -2   3   28.27    0.97 
   1   2  -3  506.92   14.97 
  -1  -2   3  505.39   15.71 
  -1  -2   3  492.16   15.61 
   0   2  -3  164.92    5.06 
   0  -2   3  163.67    5.28 
  -1   2  -3   18.13    0.73 
  -2   2  -3  191.52    5.88 
  -3   2  -3  148.01    4.65 
  -4   2  -3   50.69    1.83 
  -5   2  -3    0.60    0.27 
  -5   2  -3    0.98    0.26 
  -6   2  -3   19.14    1.18 
  -7   2  -3    9.61    0.96 
  -7  -1   3    2.64    0.60 
  -6  -1   3   49.05    1.98 
  -6  -1   3   46.50    2.08 
  -5  -1   3    1.00    0.32 
  -5  -1   3    0.81    0.27 
   4   1  -3   94.86    2.95 
  -4  -1   3   89.08    3.16 
   3   1  -3   66.97    2.13 
  -3  -1   3   66.45    2.30 
   2   1  -3  205.88    6.09 
  -2  -1   3  199.14    6.44 
  -2  -1   3  202.42    6.45 
  -1  -1   3   43.38    1.52 
  -1  -1   3   46.02    1.52 
   0   1  -3  512.77   15.40 
   0  -1   3  512.86   16.08 
   0  -1   3  530.51   16.26 
  -1   1  -3  421.05   12.54 
  -2   1  -3  577.26   17.19 
  -3   1  -3   20.47    0.84 
  -4   1  -3   46.86    1.69 
  -5   1  -3   10.46    0.74 
  -5   1  -3    9.54    0.61 
  -6   1  -3   42.01    1.91 
  -7   1  -3    0.33    0.35 
  -8   0   3   -0.31    0.53 
  -7   0   3    3.73    0.56 
  -6   0   3    0.28    0.22 
  -5   0   3   95.21    3.41 
   4   0  -3    0.08    0.10 
  -4   0   3   -0.46    0.13 
   3   0  -3   18.65    0.66 
  -3   0   3   18.60    0.83 
   2   0  -3    0.07    0.03 
  -2   0   3    0.08    0.09 
   1   0  -3  536.58   16.95 
  -1   0   3  570.71   17.39 
   0   0   3   -0.64    0.04 
   0   0   3   -0.67    0.06 
   0   0   3   -0.68    0.06 
   1   0   3   11.72    0.52 
   2   0   3   -0.03    0.08 
   3   0   3  294.68    8.98 
   4   0   3   -0.16    0.11 
  -5   0  -3    0.13    0.18 
   5   0   3    0.07    0.18 
  -6   0  -3   -0.22    0.23 
  -7   1   3    3.08    0.58 
  -6   1   3   46.44    2.02 
  -5   1   3    1.33    0.31 
  -4   1   3   85.21    2.71 
  -4   1   3   89.36    3.11 
  -3   1   3   64.64    1.97 
  -3   1   3   61.11    2.26 
  -2   1   3  194.71    6.18 
  -2   1   3  188.80    5.74 
  -1   1   3   45.53    1.58 
  -1   1   3   45.85    1.43 
   0   1   3  559.93   17.51 
   0   1   3  559.82   16.61 
  -1  -1  -3  459.91   14.03 
   1   1   3  445.87   13.51 
  -2  -1  -3  592.15   18.33 
   2   1   3  589.80   17.64 
   3   1   3   19.18    0.85 
   4   1   3   41.87    1.62 
  -5  -1  -3   11.26    0.75 
  -5  -1  -3   10.77    0.71 
   5   1   3   10.91    0.69 
  -6  -1  -3   40.17    1.75 
  -6  -1  -3   39.40    1.81 
  -7  -1  -3   -0.17    0.32 
  -7   2   3    1.43    0.46 
  -6   2   3    7.69    0.75 
  -5   2   3   10.61    0.75 
  -4   2   3   65.01    2.52 
  -4   2   3   67.95    2.19 
  -3   2   3    7.32    0.38 
  -3   2   3    8.29    0.54 
  -2   2   3   26.13    1.09 
  -2   2   3   27.89    0.95 
  -1   2   3  513.46   16.28 
  -1   2   3  524.29   15.43 
   0   2   3  179.88    5.48 
  -1  -2  -3   19.82    0.78 
   1   2   3   20.13    0.72 
   1   2   3   18.94    0.78 
  -2  -2  -3  199.31    6.33 
   2   2   3  198.40    6.15 
  -3  -2  -3  146.73    4.85 
   3   2   3  149.27    4.72 
  -4  -2  -3   50.06    1.89 
  -4  -2  -3   53.14    2.00 
   4   2   3   53.58    1.96 
  -5  -2  -3    0.94    0.30 
  -5  -2  -3    1.23    0.28 
   5   2   3    0.66    0.26 
  -6  -2  -3   17.66    1.07 
  -7  -2  -3    9.09    0.91 
  -7   3   3   13.34    1.09 
  -6   3   3   11.33    0.90 
  -5   3   3    0.35    0.25 
  -4   3   3    0.25    0.15 
  -4   3   3    0.01    0.22 
  -3   3   3  128.29    4.37 
  -3   3   3  126.19    3.99 
  -2   3   3   56.49    1.84 
  -2   3   3   52.96    2.00 
  -1   3   3    5.89    0.36 
  -1   3   3    6.29    0.38 
   0   3   3    4.22    0.30 
   0   3   3    4.16    0.26 
  -1  -3  -3  280.91    9.06 
   1   3   3  283.10    8.72 
   1   3   3  293.91    9.02 
  -2  -3  -3   56.72    2.04 
   2   3   3   57.37    2.02 
  -3  -3  -3   11.85    0.65 
   3   3   3    9.37    0.60 
  -4  -3  -3   11.46    0.72 
   4   3   3   12.98    0.74 
  -5  -3  -3   33.23    1.49 
   5   3   3   30.55    1.43 
  -6  -3  -3    4.22    0.61 
   6   3   3    4.39    0.58 
  -7  -3  -3   -0.26    0.39 
  -7   4   3    0.29    0.46 
  -6   4   3   13.48    1.03 
  -5   4   3    0.18    0.29 
  -4   4   3   45.62    1.99 
  -4   4   3   47.37    1.72 
  -3   4   3    3.26    0.44 
  -3   4   3    4.15    0.37 
  -2   4   3  104.25    3.44 
  -2   4   3  109.14    3.69 
  -1   4   3   57.94    2.02 
  -1   4   3   58.19    2.07 
   0   4   3   84.38    2.76 
   0   4   3   80.23    2.74 
  -1  -4  -3    1.07    0.28 
   1   4   3    0.83    0.21 
   1   4   3    0.97    0.12 
  -2  -4  -3   52.52    2.01 
   2   4   3   53.85    1.98 
  -3  -4  -3    3.36    0.42 
   3   4   3    4.13    0.46 
  -4  -4  -3   42.48    1.82 
   4   4   3   48.13    1.86 
  -5  -4  -3    0.19    0.27 
   5   4   3    0.02    0.18 
  -6  -4  -3    8.29    0.84 
   6   4   3    7.81    0.78 
  -7  -4  -3   -0.02    0.49 
  -7   5   3   12.72    1.25 
  -6   5   3    0.20    0.40 
  -5   5   3    3.63    0.60 
  -4   5   3    1.76    0.32 
  -4   5   3    1.43    0.37 
  -3   5   3   69.75    2.45 
  -2   5   3    6.18    0.47 
  -2   5   3    6.38    0.51 
  -1   5   3    1.75    0.26 
  -1   5   3    1.51    0.28 
   0   5   3   11.58    0.58 
   0   5   3   12.26    0.69 
  -1  -5  -3  165.54    5.63 
   1   5   3  167.03    5.35 
   1   5   3  169.23    5.40 
  -2  -5  -3    3.34    0.47 
   2   5   3    2.12    0.36 
  -3  -5  -3    2.97    0.46 
   3   5   3    2.45    0.40 
  -4  -5  -3    3.87    0.53 
   4   5   3    4.67    0.58 
  -5  -5  -3   32.32    1.57 
   5   5   3   30.41    1.52 
  -6  -5  -3    0.68    0.40 
   6   5   3    0.52    0.33 
  -6   6   3    0.62    0.34 
  -5   6   3    8.16    0.86 
  -4   6   3   17.51    1.11 
  -3   6   3    1.13    0.32 
  -3   6   3    1.27    0.31 
  -2   6   3    4.39    0.47 
  -2   6   3    3.84    0.44 
  -1   6   3   31.80    1.27 
  -1   6   3   26.03    1.25 
   0   6   3   50.01    1.81 
   0   6   3   47.79    1.92 
   1   6   3    3.48    0.47 
  -2  -6  -3   20.88    1.18 
   2   6   3   19.59    1.08 
  -3  -6  -3   10.61    0.81 
   3   6   3    9.52    0.74 
  -4  -6  -3   16.74    1.06 
   4   6   3   16.08    1.05 
  -5  -6  -3    0.08    0.34 
   5   6   3   -0.03    0.26 
  -6  -6  -3    3.04    0.67 
   6   6   3    3.18    0.60 
  -6   7   3    1.59    0.45 
  -5   7   3    0.84    0.38 
  -4   7   3   11.01    0.89 
  -3   7   3    6.67    0.62 
  -3   7   3    5.51    0.63 
  -2   7   3   15.70    0.89 
  -2   7   3   13.47    0.86 
  -1   7   3    2.39    0.36 
  -1   7   3    1.49    0.34 
   0   7   3   12.40    0.81 
   1   7   3   23.53    1.24 
  -2  -7  -3    8.39    0.81 
   2   7   3    7.86    0.77 
  -3  -7  -3    0.53    0.34 
   3   7   3    0.21    0.24 
  -4  -7  -3    2.79    0.60 
   4   7   3    3.33    0.61 
  -5  -7  -3    3.60    0.74 
   5   7   3    3.88    0.65 
  -5   8   3    7.94    0.92 
  -4   8   3    0.33    0.34 
  -3   8   3    2.35    0.45 
  -3   8   3    1.80    0.42 
  -2   8   3    0.54    0.26 
  -2   8   3    0.68    0.28 
  -1   8   3   25.77    1.34 
   0   8   3    2.56    0.47 
   1   8   3    2.35    0.48 
   2   8   3    0.32    0.26 
  -3  -8  -3    4.49    0.74 
   3   8   3    4.81    0.70 
  -4  -8  -3   -0.33    0.41 
   4   8   3   -0.14    0.27 
  -5  -8  -3   -0.18    0.55 
   5   8   3    0.55    0.35 
  -4   9   3    1.09    0.43 
  -3   9   3   -0.14    0.30 
  -3   9   3    0.10    0.25 
  -2   9   3    5.89    0.73 
  -1   9   3    0.19    0.27 
   0   9   3    1.81    0.45 
   1   9   3    1.57    0.45 
   2   9   3    2.30    0.51 
   3   9   3    0.77    0.38 
  -4  -9  -3    0.32    0.62 
   4   9   3    0.43    0.30 
  -3  10   3   -0.06    0.40 
  -2  10   3    0.36    0.39 
  -1  10   3    2.81    0.62 
   0  10   3    0.97    0.45 
   1  10   3    1.12    0.46 
   2  10   3    0.22    0.29 
   3  10   3    1.14    0.36 
   0  11   3    0.03    0.46 
   3  10  -4    0.74    0.36 
   2  10  -4    0.23    0.25 
   1  10  -4    1.13    0.38 
   0  10  -4    0.64    0.43 
  -1  10  -4    1.44    0.49 
  -2  10  -4    2.46    0.65 
  -3  10  -4    1.82    0.65 
   4   9  -4    1.11    0.42 
  -4  -9   4    0.51    0.68 
   3   9  -4    4.24    0.73 
  -3  -9   4    2.94    0.75 
   2   9  -4    0.16    0.26 
   1   9  -4    1.68    0.47 
   0   9  -4    1.55    0.46 
  -1   9  -4    9.69    0.93 
  -2   9  -4    0.10    0.26 
  -3   9  -4    1.26    0.48 
  -3   9  -4    1.49    0.46 
  -4   9  -4    0.72    0.35 
  -4   9  -4    0.57    0.49 
   5   8  -4    1.16    0.44 
  -5  -8   4    0.47    0.62 
   4   8  -4    3.36    0.67 
  -4  -8   4    4.35    0.80 
   3   8  -4    1.12    0.42 
  -3  -8   4    2.29    0.64 
   2   8  -4    4.08    0.66 
  -2  -8   4    4.33    0.74 
   1   8  -4    0.60    0.31 
   0   8  -4    6.74    0.75 
  -1   8  -4    0.91    0.30 
  -1   8  -4    1.08    0.36 
  -2   8  -4    7.98    0.73 
  -2   8  -4    9.29    0.85 
  -3   8  -4    0.68    0.32 
  -3   8  -4    0.79    0.34 
  -4   8  -4    3.46    0.64 
  -4   8  -4    3.88    0.64 
  -5   8  -4    0.17    0.27 
  -6  -7   4    1.35    0.70 
   5   7  -4    0.98    0.39 
  -5  -7   4    1.00    0.53 
   4   7  -4    2.26    0.50 
  -4  -7   4    1.17    0.49 
   3   7  -4   11.21    0.84 
  -3  -7   4    8.94    0.92 
   2   7  -4    4.95    0.64 
  -2  -7   4    4.06    0.69 
   1   7  -4   20.01    1.13 
   0   7  -4   10.88    0.80 
  -1   7  -4   34.89    1.62 
  -2   7  -4    6.88    0.69 
  -3   7  -4   -0.02    0.25 
  -3   7  -4    0.13    0.19 
  -4   7  -4    2.23    0.54 
  -4   7  -4    2.76    0.52 
  -5   7  -4    5.20    0.75 
  -6  -6   4    3.07    0.73 
   5   6  -4    7.90    0.75 
  -5  -6   4    6.85    0.83 
   4   6  -4    0.01    0.21 
  -4  -6   4    0.67    0.36 
   3   6  -4    0.56    0.23 
  -3  -6   4    0.39    0.32 
   2   6  -4   28.68    1.37 
  -2  -6   4   29.00    1.50 
   1   6  -4   23.19    1.20 
  -1  -6   4   25.24    1.35 
   0   6  -4    9.60    0.69 
  -1   6  -4    9.66    0.70 
  -2   6  -4   43.40    1.83 
  -3   6  -4   34.77    1.59 
  -4   6  -4   12.16    0.91 
  -4   6  -4   10.55    0.80 
  -5   6  -4    0.53    0.36 
  -5   6  -4    0.14    0.25 
  -6   6  -4    0.95    0.49 
  -7  -5   4    0.54    0.60 
  -6  -5   4    5.30    0.77 
   5   5  -4    0.80    0.27 
  -5  -5   4   -0.16    0.26 
   4   5  -4   31.61    1.42 
  -4  -5   4   33.14    1.59 
   3   5  -4    2.02    0.36 
  -3  -5   4    1.28    0.39 
   2   5  -4   80.87    2.74 
  -2  -5   4   69.87    2.83 
   1   5  -4    1.19    0.27 
  -1  -5   4    1.30    0.38 
   0   5  -4   45.16    1.79 
  -1   5  -4    1.46    0.31 
  -2   5  -4   38.58    1.62 
  -3   5  -4    1.57    0.34 
  -4   5  -4   18.14    1.02 
  -5   5  -4    0.75    0.40 
  -5   5  -4    0.02    0.22 
  -6   5  -4    4.95    0.79 
  -7  -4   4    0.02    0.49 
  -6  -4   4    0.14    0.32 
  -5  -4   4   45.30    2.01 
   4   4  -4   16.97    0.87 
  -4  -4   4   17.44    0.99 
   3   4  -4    0.43    0.18 
  -3  -4   4    0.04    0.22 
   2   4  -4    7.33    0.52 
  -2  -4   4    8.03    0.59 
  -2  -4   4    7.51    0.37 
   1   4  -4  167.36    5.43 
  -1  -4   4  174.57    5.72 
   0   4  -4    0.54    0.18 
  -1   4  -4    2.03    0.33 
  -2   4  -4    3.55    0.41 
  -3   4  -4  132.71    4.37 
  -4   4  -4    1.36    0.30 
  -5   4  -4    0.19    0.20 
  -5   4  -4   -0.13    0.21 
  -6   4  -4    0.65    0.44 
  -7   4  -4   13.01    1.26 
  -7  -3   4    1.55    0.55 
  -6  -3   4    8.65    0.84 
  -5  -3   4    0.46    0.26 
   4   3  -4  106.89    3.58 
  -4  -3   4  109.91    3.67 
  -4  -3   4  113.27    3.90 
   3   3  -4   44.06    1.63 
  -3  -3   4   45.24    1.60 
  -3  -3   4   46.16    1.79 
   2   3  -4  188.58    5.85 
  -2  -3   4  188.53    6.13 
  -2  -3   4  187.39    6.00 
   1   3  -4    9.93    0.54 
  -1  -3   4    9.25    0.56 
  -1  -3   4    9.66    0.46 
   0   3  -4  143.95    4.57 
  -1   3  -4  156.22    4.92 
  -2   3  -4   58.14    2.04 
  -3   3  -4    3.29    0.36 
  -4   3  -4   90.00    3.08 
  -5   3  -4   21.25    1.23 
  -5   3  -4   21.67    1.06 
  -6   3  -4   14.96    1.07 
  -7   3  -4   -0.01    0.45 
  -7  -2   4    0.73    0.44 
  -6  -2   4    7.03    0.75 
  -5  -2   4   60.27    2.33 
  -5  -2   4   55.12    2.14 
   4   2  -4   82.37    2.71 
  -4  -2   4   84.85    3.01 
  -4  -2   4   81.72    2.86 
   3   2  -4    0.79    0.15 
  -3  -2   4    0.42    0.18 
  -3  -2   4    0.75    0.16 
  -2  -2   4   58.04    1.94 
  -2  -2   4   55.50    2.01 
   1   2  -4  270.31    8.47 
  -1  -2   4  283.05    8.86 
  -1  -2   4  286.91    8.83 
   0   2  -4   89.11    2.83 
   0  -2   4   88.24    2.96 
   0  -2   4   87.85    2.95 
  -1   2  -4   20.74    0.82 
  -2   2  -4   74.47    2.45 
  -3   2  -4   27.69    1.11 
  -4   2  -4   46.96    1.75 
  -5   2  -4    2.33    0.36 
  -6   2  -4   11.03    0.88 
  -7   2  -4    6.65    0.85 
  -7  -1   4   19.94    1.29 
  -6  -1   4   -0.22    0.21 
  -6  -1   4    0.93    0.32 
  -5  -1   4    0.06    0.20 
  -5  -1   4    0.05    0.20 
   4   1  -4   22.92    0.87 
  -4  -1   4   22.07    1.01 
   3   1  -4  233.91    6.85 
  -3  -1   4  223.61    7.31 
  -3  -1   4  223.79    7.30 
   2   1  -4   13.19    0.49 
  -2  -1   4   12.41    0.60 
  -2  -1   4   12.93    0.57 
  -1  -1   4    0.41    0.12 
  -1  -1   4    0.26    0.10 
   0   1  -4  120.08    3.64 
   0  -1   4  118.15    3.88 
  -1   1  -4  911.89   27.01 
  -2   1  -4    2.25    0.23 
  -3   1  -4    1.51    0.23 
  -4   1  -4   33.41    1.32 
  -5   1  -4   83.70    2.88 
  -6   1  -4    4.24    0.60 
  -7   1  -4    0.82    0.42 
  -8   0   4    3.99    0.82 
  -7   0   4   -0.31    0.25 
  -6   0   4   38.24    1.70 
  -5   0   4   -0.21    0.18 
  -4   0   4   60.60    2.26 
  -4   0   4   61.85    1.92 
   3   0  -4    0.10    0.05 
  -3   0   4   -0.06    0.10 
  -2   0   4  491.50   15.46 
   1   0  -4   -0.19    0.03 
  -1   0   4   -0.36    0.06 
   0   0   4   61.38    2.07 
   0   0   4   59.82    1.93 
   0   0   4   62.89    1.97 
   1   0   4   -0.52    0.06 
   1   0   4   -0.53    0.07 
   2   0   4  434.11   13.04 
   3   0   4    0.07    0.10 
   4   0   4   88.83    3.03 
   5   0   4   -0.01    0.15 
  -6   0  -4   45.33    2.00 
  -7   1   4   22.89    1.33 
  -6   1   4   -0.06    0.25 
  -5   1   4   -0.04    0.19 
  -4   1   4   22.00    0.77 
  -4   1   4   21.63    1.04 
  -3   1   4  222.10    7.12 
  -3   1   4  216.43    6.56 
  -2   1   4   13.43    0.63 
   0   1   4  128.12    4.09 
   0   1   4  125.26    3.87 
  -1  -1  -4  998.20   30.25 
   1   1   4  941.98   30.60 
   1   1   4 1000.00   29.07 
  -2  -1  -4    2.90    0.24 
   2   1   4    2.30    0.27 
   3   1   4    1.69    0.27 
   4   1   4   33.73    1.40 
  -5  -1  -4   87.00    3.12 
  -5  -1  -4   86.21    3.13 
   5   1   4   84.30    3.03 
  -6  -1  -4    3.58    0.56 
  -7  -1  -4    0.20    0.40 
  -7   2   4    1.12    0.46 
  -6   2   4    6.97    0.72 
  -5   2   4   59.90    2.40 
  -4   2   4   78.94    2.38 
  -4   2   4   68.99    2.74 
  -3   2   4    0.89    0.13 
  -3   2   4    0.37    0.18 
  -2   2   4   54.95    2.02 
  -2   2   4   58.25    1.80 
  -1   2   4  287.02    9.24 
  -1   2   4  294.75    8.72 
   0   2   4   94.41    2.98 
   0   2   4   95.24    3.10 
  -1  -2  -4   20.39    0.80 
   1   2   4   20.06    0.78 
   1   2   4   20.91    0.83 
  -2  -2  -4   74.47    2.48 
   2   2   4   73.24    2.47 
  -3  -2  -4   27.16    1.09 
   3   2   4   24.91    1.10 
  -4  -2  -4   45.23    1.79 
   4   2   4   46.64    1.79 
  -5  -2  -4    2.01    0.40 
  -5  -2  -4    2.21    0.35 
   5   2   4    2.71    0.43 
  -6  -2  -4    9.54    0.82 
   6   2   4    9.82    0.73 
  -7  -2  -4    7.72    0.85 
  -7   3   4    1.46    0.56 
  -6   3   4    8.27    0.84 
  -5   3   4    0.09    0.21 
  -4   3   4  113.42    4.03 
  -3   3   4   44.89    1.51 
  -3   3   4   42.92    1.75 
  -2   3   4  186.13    6.04 
  -2   3   4  181.96    5.62 
  -1   3   4    9.44    0.50 
  -1   3   4    9.52    0.48 
   0   3   4  146.43    4.58 
  -1  -3  -4  154.13    5.14 
   1   3   4  160.49    5.08 
   1   3   4  160.78    4.99 
  -2  -3  -4   57.41    2.01 
   2   3   4   54.92    2.00 
  -3  -3  -4    2.56    0.34 
   3   3   4    2.59    0.35 
  -4  -3  -4   87.22    3.23 
   4   3   4   96.92    3.23 
  -5  -3  -4   22.51    1.16 
   5   3   4   22.33    1.15 
  -6  -3  -4   13.77    0.93 
   6   3   4   13.30    0.91 
  -7  -3  -4   -0.09    0.43 
  -7   4   4    0.11    0.45 
  -6   4   4    0.39    0.33 
  -5   4   4   48.27    2.14 
  -4   4   4   16.34    0.98 
  -3   4   4    2.05    0.35 
  -2   4   4    7.04    0.43 
  -2   4   4    6.35    0.48 
  -1   4   4  174.68    5.48 
  -1   4   4  176.15    5.73 
   0   4   4    0.85    0.17 
   0   4   4    0.37    0.15 
  -1  -4  -4    1.69    0.32 
   1   4   4    1.73    0.17 
   1   4   4    2.05    0.30 
  -2  -4  -4    4.43    0.44 
   2   4   4    3.40    0.39 
  -3  -4  -4  124.30    4.17 
   3   4   4  119.43    4.10 
  -4  -4  -4    1.16    0.31 
   4   4   4    2.07    0.38 
  -5  -4  -4   -0.11    0.24 
   5   4   4    0.19    0.20 
  -6  -4  -4    1.47    0.43 
   6   4   4    1.10    0.38 
  -7  -4  -4   11.33    1.08 
  -7   5   4    0.05    0.50 
  -6   5   4    5.61    0.81 
  -5   5   4    0.25    0.31 
  -4   5   4   30.77    1.51 
  -3   5   4    1.41    0.28 
  -3   5   4    1.27    0.35 
  -2   5   4   77.46    2.85 
  -2   5   4   80.20    2.71 
  -1   5   4    1.37    0.27 
  -1   5   4    1.29    0.24 
   0   5   4   42.25    1.66 
   0   5   4   43.27    1.58 
   1   5   4    1.26    0.29 
   1   5   4    1.70    0.20 
  -2  -5  -4   36.08    1.59 
   2   5   4   37.36    1.56 
  -3  -5  -4    1.45    0.37 
   3   5   4    1.24    0.30 
  -4  -5  -4   17.27    1.01 
   4   5   4   18.55    1.06 
  -5  -5  -4    0.71    0.36 
   5   5   4    0.04    0.24 
  -6  -5  -4    3.91    0.66 
   6   5   4    4.28    0.66 
  -6   6   4    3.90    0.66 
  -5   6   4    9.12    0.92 
  -4   6   4   -0.06    0.24 
  -3   6   4    0.54    0.22 
  -3   6   4    0.17    0.20 
  -2   6   4   28.05    1.21 
  -2   6   4   24.98    1.22 
  -1   6   4   17.45    0.95 
  -1   6   4   20.37    0.94 
   0   6   4   10.47    0.70 
   0   6   4   11.62    0.62 
   1   6   4    8.93    0.64 
  -2  -6  -4   43.73    1.89 
   2   6   4   40.01    1.77 
  -3  -6  -4   32.08    1.54 
   3   6   4   30.73    1.50 
  -4  -6  -4   11.82    0.88 
   4   6   4   10.41    0.91 
  -5  -6  -4    0.46    0.38 
   5   6   4    0.21    0.29 
  -6  -6  -4    0.79    0.54 
   6   6   4    0.66    0.38 
  -6   7   4    0.54    0.34 
  -5   7   4    0.89    0.39 
  -4   7   4    2.41    0.51 
  -3   7   4    8.83    0.71 
  -3   7   4    8.18    0.68 
  -2   7   4    3.47    0.47 
  -2   7   4    4.11    0.51 
  -1   7   4   21.39    1.11 
  -1   7   4   20.84    1.04 
   0   7   4    9.93    0.71 
   1   7   4   30.65    1.47 
   2   7   4    6.12    0.67 
  -3  -7  -4    0.50    0.37 
   3   7   4    0.16    0.19 
  -4  -7  -4    1.89    0.52 
   4   7   4    2.58    0.55 
  -5  -7  -4    4.63    0.79 
   5   7   4    6.17    0.78 
  -5   8   4    0.48    0.38 
  -4   8   4    3.93    0.64 
  -3   8   4    1.32    0.39 
  -3   8   4    1.17    0.32 
  -2   8   4    3.30    0.47 
  -2   8   4    3.15    0.50 
  -1   8   4    0.06    0.19 
   0   8   4    5.18    0.64 
   1   8   4    0.90    0.32 
   2   8   4    8.23    0.83 
  -3  -8  -4    0.54    0.40 
   3   8   4    0.37    0.30 
  -4  -8  -4    2.42    0.65 
   4   8   4    2.41    0.51 
  -5  -8  -4   -0.02    0.54 
   5   8   4    0.36    0.33 
  -4   9   4    0.61    0.39 
  -3   9   4    4.37    0.65 
  -3   9   4    2.72    0.54 
  -2   9   4    0.25    0.28 
  -1   9   4    1.23    0.36 
   0   9   4    1.25    0.41 
   1   9   4    8.34    0.89 
   2   9   4    0.58    0.30 
   3   9   4    1.13    0.38 
  -4  -9  -4    0.19    0.57 
   4   9   4    0.51    0.36 
  -2  10   4   -0.17    0.36 
  -1  10   4    0.71    0.40 
   0  10   4    1.16    0.49 
   1  10   4    0.26    0.42 
   2  10   4    2.62    0.54 
   3  10   4    1.77    0.46 
   3  10  -5    0.25    0.36 
   2  10  -5    3.70    0.69 
   1  10  -5    1.53    0.46 
   0  10  -5    0.45    0.41 
  -1  10  -5    0.66    0.46 
  -2  10  -5    0.73    0.49 
   4   9  -5    2.95    0.63 
  -4  -9   5    1.62    0.80 
   3   9  -5    0.21    0.29 
  -3  -9   5   -0.08    0.49 
   2   9  -5    1.82    0.49 
   1   9  -5    0.92    0.40 
   0   9  -5   -0.17    0.26 
  -1   9  -5    0.13    0.27 
  -2   9  -5   -0.13    0.26 
  -2   9  -5   -0.20    0.26 
  -3   9  -5    0.31    0.37 
  -3   9  -5    0.44    0.36 
  -4   9  -5    6.89    0.85 
  -4   9  -5    7.36    0.98 
  -5  -8   5    2.22    0.79 
   4   8  -5    0.76    0.41 
  -4  -8   5    0.86    0.53 
   3   8  -5    2.02    0.49 
  -3  -8   5    2.01    0.62 
   2   8  -5    0.56    0.34 
  -2  -8   5    0.40    0.38 
   1   8  -5   14.74    1.03 
   0   8  -5    5.12    0.67 
  -1   8  -5    4.67    0.64 
  -1   8  -5    4.06    0.49 
  -2   8  -5    0.16    0.23 
  -2   8  -5    0.35    0.27 
  -3   8  -5    9.52    0.90 
  -3   8  -5   10.98    0.94 
  -4   8  -5    0.27    0.30 
  -4   8  -5   -0.11    0.28 
  -5   8  -5    1.02    0.43 
  -6  -7   5    0.60    0.67 
  -5  -7   5   -0.16    0.46 
   4   7  -5    8.33    0.85 
  -4  -7   5    9.93    1.00 
   3   7  -5    4.27    0.61 
  -3  -7   5    3.87    0.67 
   2   7  -5   13.83    0.93 
  -2  -7   5   12.23    1.08 
   1   7  -5    3.65    0.55 
   0   7  -5    0.31    0.23 
  -1   7  -5   12.09    0.85 
  -2   7  -5    2.16    0.43 
  -3   7  -5    0.35    0.25 
  -4   7  -5   11.33    0.93 
  -4   7  -5   10.16    0.95 
  -5   7  -5    4.33    0.68 
  -5   7  -5    4.49    0.70 
  -6  -6   5    1.22    0.59 
  -5  -6   5    6.52    0.82 
   4   6  -5    4.27    0.58 
  -4  -6   5    4.84    0.69 
   3   6  -5    4.54    0.56 
  -3  -6   5    4.26    0.63 
   2   6  -5   36.59    1.59 
  -2  -6   5   31.43    1.63 
   1   6  -5   11.02    0.78 
  -1  -6   5   13.22    0.92 
   0   6  -5   34.83    1.56 
  -1   6  -5   21.57    1.13 
  -2   6  -5    0.20    0.21 
  -3   6  -5    9.68    0.74 
  -4   6  -5    1.12    0.32 
  -5   6  -5    0.68    0.31 
  -5   6  -5    0.48    0.37 
  -6   6  -5    1.15    0.61 
  -7  -5   5    2.46    0.76 
  -6  -5   5    1.03    0.47 
  -5  -5   5    2.33    0.52 
   4   5  -5   18.83    1.03 
  -4  -5   5   20.95    1.17 
   3   5  -5   44.37    1.78 
  -3  -5   5   42.31    1.87 
   2   5  -5    3.04    0.41 
  -2  -5   5    2.17    0.43 
   1   5  -5   22.41    1.10 
  -1  -5   5   24.38    1.26 
   0   5  -5   13.99    0.82 
  -1   5  -5  123.81    4.17 
  -2   5  -5    0.12    0.15 
  -3   5  -5    7.50    0.66 
  -4   5  -5    3.63    0.50 
  -5   5  -5   25.42    1.50 
  -5   5  -5   28.68    1.41 
  -6   5  -5    0.77    0.49 
  -7  -4   5    1.48    0.59 
  -6  -4   5   12.09    1.03 
  -5  -4   5    1.53    0.41 
   4   4  -5   14.11    0.77 
  -4  -4   5   14.78    0.92 
   3   4  -5    0.94    0.24 
  -3  -4   5    1.06    0.19 
  -3  -4   5    0.60    0.26 
   2   4  -5  142.82    4.56 
  -2  -4   5  139.27    4.57 
  -2  -4   5  140.45    4.77 
   1   4  -5    5.28    0.46 
  -1  -4   5    5.69    0.55 
   0   4  -5   96.79    3.27 
  -1   4  -5    0.95    0.25 
  -2   4  -5  145.94    4.74 
  -3   4  -5   19.98    1.00 
  -4   4  -5   12.58    0.77 
  -5   4  -5    0.46    0.23 
  -6   4  -5   23.75    1.49 
  -7   4  -5    0.09    0.58 
  -7  -3   5   12.35    1.10 
  -6  -3   5    4.56    0.64 
  -5  -3   5    6.59    0.66 
   4   3  -5   34.25    1.30 
  -4  -3   5   34.04    1.50 
  -4  -3   5   32.10    1.30 
  -3  -3   5  141.78    4.84 
  -3  -3   5  146.10    4.70 
   2   3  -5   69.69    2.34 
  -2  -3   5   68.65    2.46 
  -2  -3   5   68.28    2.34 
   1   3  -5   14.09    0.71 
  -1  -3   5   14.29    0.75 
  -1  -3   5   16.54    0.69 
   0   3  -5   53.42    1.90 
  -1   3  -5  295.40    9.03 
  -2   3  -5    0.45    0.16 
  -3   3  -5   11.66    0.66 
  -4   3  -5    6.53    0.55 
  -5   3  -5   45.21    1.82 
  -6   3  -5    0.96    0.40 
  -7   3  -5    2.47    0.67 
  -7  -2   5    0.14    0.39 
  -6  -2   5   13.42    0.95 
  -5  -2   5   35.60    1.47 
  -5  -2   5   35.01    1.61 
   4   2  -5    5.36    0.37 
  -4  -2   5    4.93    0.41 
  -4  -2   5    4.64    0.50 
   3   2  -5   15.27    0.65 
  -3  -2   5   15.00    0.78 
  -3  -2   5   15.21    0.70 
  -2  -2   5  178.05    5.85 
  -2  -2   5  184.66    5.84 
   1   2  -5  153.79    4.90 
  -1  -2   5  159.27    5.10 
  -1  -2   5  161.76    5.12 
   0   2  -5    0.82    0.15 
   0  -2   5    1.13    0.20 
   0  -2   5    1.52    0.21 
  -1   2  -5   37.80    1.34 
  -2   2  -5  170.57    5.31 
  -3   2  -5  155.82    4.93 
  -4   2  -5   15.29    0.80 
  -5   2  -5    3.16    0.42 
  -6   2  -5   11.77    0.92 
  -7   2  -5    7.79    0.93 
  -7  -1   5    4.27    0.71 
  -6  -1   5    3.12    0.47 
  -6  -1   5    2.83    0.53 
  -5  -1   5    0.04    0.20 
  -5  -1   5   -0.02    0.18 
   4   1  -5  131.68    3.85 
  -4  -1   5  113.36    4.23 
  -4  -1   5  127.10    4.21 
   3   1  -5   20.87    0.74 
  -3  -1   5   19.99    0.89 
  -3  -1   5   21.95    0.96 
   2   1  -5   62.57    1.92 
  -2  -1   5   60.39    2.10 
  -2  -1   5   59.76    2.11 
  -1  -1   5    8.99    0.46 
  -1  -1   5    9.54    0.43 
   0   1  -5  922.53   26.96 
   0  -1   5  898.18   28.46 
  -1   1  -5    0.04    0.09 
  -2   1  -5   95.36    3.06 
  -3   1  -5    0.09    0.11 
  -4   1  -5  162.02    5.17 
  -5   1  -5    3.20    0.39 
  -6   1  -5   12.48    0.91 
  -7   1  -5    0.54    0.38 
  -7   0   5    0.19    0.30 
  -6   0   5   -0.18    0.21 
  -5   0   5   91.46    3.31 
  -4   0   5    0.05    0.16 
  -3   0   5   15.69    0.75 
  -2   0   5    0.20    0.12 
   1   0  -5  603.37   17.93 
  -1   0   5  606.83   18.97 
   0   0   5   -0.13    0.07 
   0   0   5    0.01    0.05 
   0   0   5   -0.14    0.05 
   1   0   5   75.98    2.68 
   1   0   5   80.87    2.54 
   2   0   5   -0.02    0.09 
   3   0   5  265.94    8.20 
   4   0   5    0.01    0.16 
   5   0   5    6.80    0.61 
  -6   0  -5    0.27    0.24 
  -6   0  -5   -0.22    0.22 
  -7   0  -5   11.33    0.99 
  -7   1   5    3.50    0.62 
  -6   1   5    2.48    0.46 
  -5   1   5   -0.15    0.19 
  -4   1   5  125.97    4.33 
  -3   1   5   19.99    0.92 
  -2   1   5   58.40    2.07 
  -1   1   5    9.56    0.37 
  -1   1   5    8.78    0.46 
   0   1   5  995.27   29.15 
   0   1   5  973.44   30.73 
  -1  -1  -5    0.08    0.07 
   1   1   5    0.62    0.14 
   1   1   5    0.23    0.11 
  -2  -1  -5   98.84    3.12 
   2   1   5   92.01    3.11 
   3   1   5    0.23    0.14 
   4   1   5  160.20    5.20 
  -5  -1  -5    3.96    0.48 
   5   1   5    3.03    0.43 
  -6  -1  -5   11.41    0.84 
   6   1   5   12.48    0.83 
  -7  -1  -5    0.25    0.38 
  -7   2   5   -0.09    0.33 
  -6   2   5   14.38    0.98 
  -5   2   5   37.58    1.68 
  -4   2   5    4.54    0.48 
  -3   2   5   15.48    0.81 
  -3   2   5   16.13    0.58 
  -2   2   5  179.50    5.85 
  -2   2   5  178.36    5.39 
  -1   2   5  159.19    4.86 
  -1   2   5  159.89    5.18 
   0   2   5    1.12    0.17 
   0   2   5    1.26    0.17 
  -1  -2  -5   37.61    1.32 
   1   2   5   37.74    1.36 
   1   2   5   36.97    1.36 
  -2  -2  -5  174.77    5.44 
   2   2   5  165.29    5.34 
  -3  -2  -5  147.21    4.79 
   3   2   5  146.15    4.74 
  -4  -2  -5   14.08    0.76 
   4   2   5   13.41    0.79 
  -5  -2  -5    2.35    0.41 
   5   2   5    2.74    0.44 
  -6  -2  -5   13.32    0.90 
   6   2   5   13.52    0.90 
  -7  -2  -5    7.93    0.86 
  -7   3   5   12.32    1.11 
  -6   3   5    4.80    0.69 
  -5   3   5    6.09    0.63 
  -4   3   5   33.52    1.51 
  -3   3   5  137.22    4.68 
  -3   3   5  137.29    4.23 
  -2   3   5   67.12    2.16 
  -2   3   5   64.80    2.37 
  -1   3   5   14.97    0.66 
  -1   3   5   15.80    0.72 
   0   3   5   48.43    1.50 
   0   3   5   34.71    1.45 
  -1  -3  -5  290.18    9.35 
   1   3   5  294.64    9.37 
   1   3   5  301.54    9.03 
  -2  -3  -5    0.23    0.15 
   2   3   5    0.33    0.14 
  -3  -3  -5   11.52    0.64 
   3   3   5   12.14    0.70 
  -4  -3  -5    6.97    0.54 
   4   3   5    8.11    0.61 
  -5  -3  -5   44.28    1.85 
   5   3   5   43.77    1.88 
  -6  -3  -5    0.53    0.32 
   6   3   5    0.61    0.32 
  -7  -3  -5    1.67    0.57 
  -7   4   5    1.19    0.58 
  -6   4   5   13.31    1.02 
  -5   4   5    0.33    0.28 
  -4   4   5   13.51    0.87 
  -3   4   5    0.72    0.18 
  -3   4   5    0.60    0.23 
  -2   4   5  146.31    4.86 
  -2   4   5  142.01    4.53 
  -1   4   5    5.95    0.41 
  -1   4   5    5.28    0.39 
   0   4   5   90.05    2.86 
   0   4   5   80.02    2.86 
  -1  -4  -5    1.06    0.26 
   1   4   5    0.55    0.14 
   1   4   5    0.75    0.20 
  -2  -4  -5  147.19    4.89 
   2   4   5  145.31    4.76 
  -3  -4  -5   18.03    0.92 
   3   4   5   17.87    0.96 
  -4  -4  -5   11.27    0.73 
   4   4   5   10.98    0.75 
  -5  -4  -5   -0.22    0.21 
   5   4   5    0.06    0.20 
  -6  -4  -5   23.02    1.28 
   6   4   5   22.33    1.31 
  -7   5   5    3.63    0.83 
  -6   5   5    0.21    0.38 
  -5   5   5    3.27    0.57 
  -4   5   5   19.54    1.12 
  -3   5   5   41.88    1.60 
  -3   5   5   42.98    1.80 
  -2   5   5    2.58    0.37 
  -2   5   5    2.93    0.35 
  -1   5   5   22.68    1.03 
  -1   5   5   24.01    1.05 
   0   5   5   15.21    0.81 
   0   5   5   16.07    0.74 
   1   5   5  120.11    3.95 
   1   5   5  119.81    4.00 
  -2  -5  -5   -0.15    0.24 
   2   5   5    0.09    0.15 
  -3  -5  -5    6.97    0.63 
   3   5   5    5.83    0.61 
  -4  -5  -5    4.24    0.54 
   4   5   5    3.16    0.49 
  -5  -5  -5   24.93    1.31 
   5   5   5   24.13    1.34 
  -6  -5  -5    1.74    0.50 
   6   5   5    0.78    0.36 
  -6   6   5    1.25    0.41 
  -5   6   5    5.51    0.73 
  -4   6   5    3.19    0.53 
  -3   6   5    3.70    0.42 
  -3   6   5    4.01    0.50 
  -2   6   5   36.72    1.56 
  -2   6   5   35.19    1.49 
  -1   6   5    9.91    0.68 
  -1   6   5   13.70    0.72 
   0   6   5   35.62    1.51 
   0   6   5   35.21    1.40 
   1   6   5   21.91    1.12 
  -2  -6  -5    0.37    0.31 
   2   6   5   -0.03    0.17 
  -3  -6  -5    9.40    0.76 
   3   6   5    9.09    0.80 
  -4  -6  -5    0.79    0.39 
   4   6   5    0.71    0.33 
  -5  -6  -5    0.35    0.40 
   5   6   5    0.14    0.29 
   6   6   5    1.30    0.40 
  -6   7   5    0.64    0.37 
  -5   7   5    0.46    0.33 
  -4   7   5    9.05    0.87 
  -3   7   5    3.51    0.52 
  -3   7   5    4.26    0.50 
  -2   7   5   11.50    0.78 
  -2   7   5   13.23    0.81 
  -1   7   5    3.96    0.50 
  -1   7   5    4.06    0.45 
   0   7   5    0.37    0.19 
   1   7   5   12.09    0.84 
   2   7   5    1.98    0.43 
  -3  -7  -5    0.60    0.37 
   3   7   5    0.07    0.22 
  -4  -7  -5   11.84    1.01 
   4   7   5   13.05    1.08 
  -5  -7  -5    3.77    0.74 
   5   7   5    3.23    0.60 
  -5   8   5    1.96    0.50 
  -4   8   5    0.76    0.38 
  -3   8   5    1.50    0.41 
  -3   8   5    2.22    0.44 
  -2   8   5    0.69    0.27 
  -2   8   5    1.01    0.32 
  -1   8   5   14.93    0.95 
   0   8   5    4.54    0.60 
   1   8   5    3.84    0.60 
   2   8   5   -0.07    0.20 
  -3  -8  -5    8.36    0.91 
   3   8   5   10.85    0.98 
  -4  -8  -5    0.86    0.53 
   4   8   5    0.24    0.25 
  -5  -8  -5    0.11    0.63 
   5   8   5    1.25    0.37 
  -4   9   5    1.51    0.45 
  -3   9   5    0.30    0.35 
  -3   9   5    0.29    0.30 
  -2   9   5    1.26    0.40 
  -1   9   5    1.13    0.35 
   0   9   5    0.65    0.32 
   1   9   5   -0.06    0.27 
   2   9   5    0.21    0.26 
   3   9   5    0.29    0.25 
  -4  -9  -5    5.78    0.96 
   4   9   5    6.37    0.88 
  -2  10   5    3.43    0.66 
  -1  10   5    1.46    0.53 
   0  10   5    0.28    0.39 
   1  10   5    0.70    0.45 
   2  10   5    0.97    0.52 
   3  10  -6    3.06    0.64 
   2  10  -6    3.01    0.61 
   1  10  -6    0.14    0.25 
   0  10  -6    0.30    0.41 
  -1  10  -6    1.41    0.53 
  -2  10  -6    0.41    0.49 
   4   9  -6    1.47    0.47 
  -4  -9   6    0.73    0.73 
   3   9  -6    1.34    0.44 
  -3  -9   6    2.00    0.67 
   2   9  -6    0.34    0.35 
   1   9  -6    3.68    0.67 
   0   9  -6    0.20    0.26 
  -1   9  -6    7.48    0.86 
  -2   9  -6    0.36    0.37 
  -2   9  -6    0.17    0.33 
  -3   9  -6    1.03    0.42 
  -3   9  -6    1.67    0.55 
  -4   9  -6    0.92    0.37 
  -4   9  -6   -0.04    0.44 
  -5  -8   6    1.20    0.73 
   4   8  -6    0.18    0.33 
  -4  -8   6    0.50    0.55 
   3   8  -6    1.65    0.46 
  -3  -8   6    3.38    0.74 
   2   8  -6    7.49    0.83 
  -2  -8   6   10.51    1.04 
   1   8  -6    0.88    0.36 
   0   8  -6    2.95    0.56 
  -1   8  -6    1.70    0.42 
  -2   8  -6    6.30    0.75 
  -3   8  -6    0.70    0.34 
  -3   8  -6    0.26    0.32 
  -4   8  -6    0.05    0.34 
  -4   8  -6    0.07    0.29 
  -6  -7   6    1.52    0.74 
  -5  -7   6    2.33    0.67 
   4   7  -6    1.15    0.40 
  -4  -7   6    0.98    0.46 
   3   7  -6    8.66    0.82 
  -3  -7   6    6.46    0.84 
   2   7  -6    2.66    0.49 
  -2  -7   6    2.79    0.60 
   1   7  -6   13.52    0.91 
   0   7  -6    3.25    0.53 
  -1   7  -6   46.07    2.01 
  -2   7  -6    0.66    0.27 
  -3   7  -6    1.85    0.41 
  -4   7  -6    0.77    0.33 
  -4   7  -6    0.85    0.37 
  -5   7  -6    3.76    0.66 
  -5   7  -6    4.56    0.72 
  -6  -6   6    6.19    0.92 
  -5  -6   6   13.20    1.06 
   4   6  -6    0.58    0.26 
  -4  -6   6    0.71    0.40 
   3   6  -6    8.75    0.75 
  -3  -6   6    8.46    0.83 
   2   6  -6   29.24    1.42 
  -2  -6   6   31.44    1.57 
   1   6  -6   31.81    1.47 
  -1  -6   6   30.89    1.58 
   0   6  -6    0.77    0.26 
  -1   6  -6   15.39    0.92 
  -2   6  -6    2.39    0.43 
  -3   6  -6   28.10    1.41 
  -4   6  -6    0.63    0.28 
  -5   6  -6    1.58    0.46 
  -5   6  -6    1.66    0.44 
  -6   6  -6    3.45    0.83 
  -7  -5   6    0.61    0.56 
  -6  -5   6    3.26    0.65 
  -5  -5   6    3.24    0.58 
   4   5  -6   24.62    1.21 
  -4  -5   6   27.29    1.40 
   3   5  -6    5.74    0.55 
  -3  -5   6    4.63    0.59 
   2   5  -6    4.11    0.48 
  -2  -5   6    4.35    0.56 
   1   5  -6    5.82    0.56 
  -1  -5   6    5.73    0.65 
   0   5  -6  121.41    4.10 
  -1   5  -6    0.30    0.21 
  -2   5  -6   10.59    0.71 
  -3   5  -6    0.54    0.24 
  -4   5  -6   24.41    1.25 
  -5   5  -6    1.13    0.35 
  -6   5  -6   -0.21    0.41 
  -7  -4   6    3.29    0.75 
  -6  -4   6    0.27    0.35 
  -5  -4   6   22.03    1.26 
   3   4  -6    7.73    0.54 
  -3  -4   6    8.13    0.47 
  -3  -4   6    9.19    0.65 
   2   4  -6   19.32    0.94 
  -2  -4   6   20.18    0.85 
  -2  -4   6   20.07    1.02 
   1   4  -6   94.28    3.27 
  -1  -4   6   98.58    3.44 
   0   4  -6    9.87    0.62 
  -1   4  -6   48.48    1.86 
  -2   4  -6    2.12    0.34 
  -3   4  -6   96.18    3.33 
  -4   4  -6    1.08    0.29 
  -5   4  -6   10.20    0.75 
  -6   4  -6    0.35    0.42 
  -7  -3   6    2.13    0.61 
  -6  -3   6    0.86    0.37 
  -5  -3   6    5.06    0.60 
   4   3  -6   28.32    1.16 
  -4  -3   6   28.63    1.36 
  -4  -3   6   30.06    1.20 
  -3  -3   6    7.64    0.55 
  -3  -3   6    7.10    0.45 
   2   3  -6    3.22    0.33 
  -2  -3   6    3.44    0.38 
  -2  -3   6    2.68    0.28 
   1   3  -6  113.02    3.69 
  -1  -3   6  113.65    3.78 
  -1  -3   6  113.97    3.84 
   0   3  -6  320.39    9.79 
  -1   3  -6   41.36    1.55 
  -2   3  -6    5.54    0.45 
  -3   3  -6    6.69    0.48 
  -4   3  -6   87.51    3.05 
  -5   3  -6   15.99    0.91 
  -6   3  -6    1.54    0.46 
  -7   3  -6    0.60    0.55 
  -7  -2   6    2.22    0.56 
  -6  -2   6   18.80    1.16 
  -5  -2   6   33.45    1.57 
  -5  -2   6   34.70    1.44 
   4   2  -6   16.82    0.71 
  -4  -2   6   15.97    0.81 
  -4  -2   6   16.74    0.92 
   3   2  -6   24.78    0.93 
  -3  -2   6   24.02    1.01 
  -3  -2   6   25.39    1.10 
   2   2  -6  195.65    6.03 
  -2  -2   6  195.37    6.33 
  -2  -2   6  199.59    6.35 
   1   2  -6  144.24    4.59 
  -1  -2   6  148.78    4.81 
  -1  -2   6  148.49    4.77 
   0   2  -6   23.86    0.96 
   0  -2   6   25.99    1.05 
   0  -2   6   25.63    1.03 
  -1   2  -6   14.70    0.66 
  -2   2  -6  117.14    3.76 
  -3   2  -6   53.19    1.93 
  -4   2  -6    0.25    0.20 
  -5   2  -6    2.96    0.43 
  -6   2  -6   18.32    1.16 
  -7   2  -6    5.21    0.82 
  -7  -1   6   17.80    1.24 
  -6  -1   6    1.48    0.41 
  -6  -1   6    1.29    0.33 
  -5  -1   6    6.24    0.54 
  -5  -1   6    5.42    0.59 
  -4  -1   6   25.86    1.22 
  -4  -1   6   27.72    1.18 
   3   1  -6  188.87    5.61 
  -3  -1   6  184.63    6.06 
  -3  -1   6  184.61    6.06 
   2   1  -6   15.63    0.57 
  -2  -1   6   14.41    0.68 
  -2  -1   6   14.59    0.68 
  -1  -1   6    2.26    0.20 
  -1  -1   6    1.69    0.21 
   0   1  -6  156.93    4.89 
   0  -1   6  161.43    5.24 
   0  -1   6  162.89    5.10 
  -1   1  -6  111.91    3.52 
   1  -1   6  112.64    3.81 
  -2   1  -6    2.75    0.28 
  -3   1  -6   72.80    2.49 
  -4   1  -6   40.71    1.60 
  -5   1  -6   56.26    2.12 
  -6   1  -6    1.91    0.44 
  -6   1  -6    2.25    0.41 
  -7   1  -6    9.43    0.95 
  -7   0   6   -0.26    0.25 
  -6   0   6   28.76    1.40 
  -5   0   6   -0.30    0.18 
  -4   0   6    2.54    0.35 
  -3   0   6    0.28    0.15 
  -2   0   6  869.13   27.22 
   1   0  -6    0.24    0.06 
  -1   0   6    0.09    0.11 
   0   0   6  594.51   17.48 
   0   0   6  585.63   18.47 
   0   0   6  582.32   18.31 
   1   0   6   -0.06    0.09 
   1   0   6    0.05    0.09 
   2   0   6  534.27   16.05 
   3   0   6    0.03    0.11 
   4   0   6   13.09    0.76 
   5   0   6    0.20    0.22 
  -6   0  -6   53.19    2.28 
  -6   0  -6   55.17    2.15 
  -7   0  -6    0.70    0.43 
  -7   1   6   15.63    1.08 
  -6   1   6    0.86    0.33 
  -5   1   6    5.70    0.57 
  -4   1   6   27.95    1.28 
  -3   1   6  186.64    6.14 
  -2   1   6   14.84    0.71 
  -1   1   6    1.86    0.23 
  -1   1   6    2.13    0.16 
   0   1   6  165.76    5.33 
   0   1   6  162.35    5.02 
  -1  -1  -6  115.69    3.66 
   1   1   6  118.29    3.88 
   1   1   6  114.97    3.68 
  -2  -1  -6    2.53    0.22 
   2   1   6    2.71    0.31 
  -3  -1  -6   75.98    2.62 
   3   1   6   77.60    2.67 
  -4  -1  -6   40.49    1.59 
   4   1   6   39.48    1.63 
  -5  -1  -6   54.37    2.17 
   5   1   6   57.56    2.20 
  -6  -1  -6    2.37    0.48 
   6   1   6    2.88    0.48 
  -7  -1  -6    8.64    0.88 
  -7   2   6    1.53    0.48 
  -6   2   6   18.04    1.12 
  -5   2   6   33.90    1.57 
  -4   2   6   15.52    0.87 
  -3   2   6   25.15    0.82 
  -3   2   6   24.06    1.12 
  -2   2   6  193.54    6.41 
  -2   2   6  199.12    5.91 
  -1   2   6  149.26    4.86 
  -1   2   6  147.56    4.54 
   0   2   6   27.52    1.05 
   0   2   6   25.60    1.00 
  -1  -2  -6   15.18    0.63 
   1   2   6   15.18    0.70 
  -2  -2  -6  111.22    3.61 
   2   2   6  110.55    3.63 
  -3  -2  -6   50.81    1.84 
   3   2   6   51.39    1.92 
  -4  -2  -6    0.34    0.22 
   4   2   6    0.28    0.19 
  -5  -2  -6    3.81    0.47 
   5   2   6    2.67    0.46 
  -6  -2  -6   17.49    1.04 
   6   2   6   17.27    1.06 
  -7   3   6    1.26    0.51 
  -6   3   6    0.82    0.38 
  -5   3   6    4.81    0.58 
  -4   3   6   29.60    1.39 
  -3   3   6    7.58    0.56 
  -3   3   6    7.23    0.38 
  -2   3   6    3.21    0.25 
  -2   3   6    2.85    0.34 
  -1   3   6  118.39    3.68 
  -1   3   6  114.57    3.90 
   0   3   6  337.06   10.72 
   0   3   6  337.49   10.22 
  -1  -3  -6   40.62    1.54 
   1   3   6   42.03    1.52 
   1   3   6   41.22    1.55 
  -2  -3  -6    5.27    0.38 
   2   3   6    4.93    0.36 
   2   3   6    4.97    0.45 
  -3  -3  -6    6.45    0.47 
   3   3   6    6.01    0.53 
  -4  -3  -6   80.65    2.92 
   4   3   6   83.80    2.98 
  -5  -3  -6   13.02    0.82 
   5   3   6   13.94    0.90 
  -6  -3  -6    1.63    0.42 
   6   3   6    1.72    0.45 
  -7   4   6    2.93    0.71 
  -6   4   6    0.35    0.34 
  -5   4   6   22.75    1.29 
  -4   4   6   35.82    1.64 
  -3   4   6    7.80    0.59 
  -3   4   6    8.20    0.46 
  -2   4   6   19.30    0.94 
  -2   4   6   18.96    0.82 
  -1   4   6   94.29    3.20 
  -1   4   6   91.05    3.04 
   1   4   6   51.01    1.87 
   1   4   6   48.75    1.78 
  -2  -4  -6    1.86    0.34 
   2   4   6    2.08    0.35 
   2   4   6    1.86    0.22 
  -3  -4  -6   89.16    3.18 
   3   4   6   92.44    3.21 
  -4  -4  -6    0.82    0.28 
   4   4   6    0.65    0.25 
  -5  -4  -6    9.51    0.71 
   5   4   6    9.77    0.76 
  -6  -4  -6    0.30    0.33 
   6   4   6    0.65    0.32 
  -7   5   6    0.42    0.59 
  -6   5   6    2.20    0.56 
  -5   5   6    2.92    0.55 
  -4   5   6   25.42    1.34 
  -3   5   6    4.84    0.53 
  -3   5   6    4.95    0.43 
  -2   5   6    4.36    0.41 
  -2   5   6    4.31    0.46 
  -1   5   6    6.76    0.48 
  -1   5   6    6.32    0.47 
   0   5   6  123.05    4.17 
   0   5   6  130.08    4.26 
   1   5   6    0.20    0.18 
   1   5   6    0.26    0.15 
  -2  -5  -6   11.41    0.76 
   2   5   6   11.14    0.73 
  -3  -5  -6    0.32    0.28 
   3   5   6    0.15    0.21 
  -4  -5  -6   24.65    1.24 
   4   5   6   23.74    1.27 
  -5  -5  -6    1.29    0.40 
   5   5   6    0.95    0.34 
   6   5   6    0.25    0.31 
  -6   6   6    6.75    0.85 
  -5   6   6   11.92    1.02 
  -4   6   6    0.43    0.31 
  -3   6   6    7.43    0.66 
  -3   6   6    7.76    0.57 
  -2   6   6   28.59    1.28 
  -2   6   6   30.57    1.38 
  -1   6   6   29.28    1.31 
  -1   6   6   30.55    1.31 
   0   6   6    1.01    0.27 
   0   6   6    1.05    0.25 
   1   6   6   17.86    0.99 
  -2  -6  -6    1.46    0.40 
   2   6   6    1.42    0.34 
  -3  -6  -6   30.13    1.48 
   3   6   6   29.77    1.50 
  -4  -6  -6    0.10    0.31 
   4   6   6    0.24    0.28 
  -5  -6  -6    1.03    0.44 
   5   6   6    0.82    0.35 
   6   6   6    3.36    0.61 
  -6   7   6    2.24    0.53 
  -5   7   6    3.12    0.58 
  -4   7   6    0.49    0.36 
  -3   7   6    7.84    0.60 
  -3   7   6    7.26    0.71 
  -2   7   6    2.92    0.44 
  -2   7   6    3.74    0.48 
  -1   7   6   15.58    0.89 
  -1   7   6   14.28    0.83 
   0   7   6    3.18    0.48 
   1   7   6   41.38    1.81 
   2   7   6    0.61    0.30 
  -3  -7  -6    2.38    0.55 
   3   7   6    1.91    0.45 
  -4  -7  -6    1.29    0.43 
   4   7   6    0.32    0.33 
   5   7   6    3.99    0.66 
  -5   8   6    0.89    0.39 
  -4   8   6   -0.15    0.28 
  -3   8   6    2.15    0.41 
  -3   8   6    1.67    0.46 
  -2   8   6    7.12    0.68 
  -2   8   6    8.72    0.75 
  -1   8   6    0.32    0.24 
   0   8   6    2.81    0.49 
   1   8   6    0.98    0.34 
   2   8   6    4.64    0.67 
   3   8   6   -0.05    0.22 
  -4  -8  -6    0.31    0.49 
   4   8   6    0.54    0.31 
  -4   9   6    0.65    0.37 
  -3   9   6    1.26    0.43 
  -2   9   6   -0.04    0.21 
  -1   9   6    4.32    0.63 
   0   9   6    0.59    0.31 
   1   9   6    4.52    0.69 
   2   9   6   -0.09    0.28 
   3   9   6    0.95    0.35 
   4   9   6    0.04    0.23 
  -2  10   6    2.72    0.63 
  -1  10   6    0.03    0.35 
   0  10   6    0.19    0.37 
   1  10   6    1.64    0.54 
   2  10   6    0.27    0.49 
   3  10  -7    0.43    0.31 
   2  10  -7    0.55    0.30 
   1  10  -7    0.78    0.35 
   0  10  -7    0.63    0.30 
  -1  10  -7    0.72    0.49 
  -2  10  -7    0.07    0.47 
   4   9  -7    2.67    0.59 
  -4  -9   7    2.44    0.90 
   3   9  -7    0.58    0.36 
  -3  -9   7    1.17    0.43 
   2   9  -7   -0.08    0.26 
   1   9  -7    0.94    0.38 
   0   9  -7    3.57    0.65 
  -1   9  -7   -0.22    0.26 
  -2   9  -7    0.06    0.33 
  -2   9  -7    0.65    0.35 
  -3   9  -7    0.57    0.35 
  -3   9  -7    0.74    0.45 
  -5  -8   7    0.00    0.69 
   4   8  -7    0.73    0.44 
  -4  -8   7    1.33    0.59 
   3   8  -7    7.17    0.86 
  -3  -8   7    6.68    0.94 
   2   8  -7    1.02    0.39 
  -2  -8   7    0.46    0.44 
   1   8  -7    3.72    0.61 
   0   8  -7    3.28    0.57 
  -1   8  -7   18.96    1.19 
  -2   8  -7    0.32    0.27 
  -3   8  -7    7.11    0.82 
  -4   8  -7    0.95    0.39 
  -4   8  -7    0.66    0.44 
  -6  -7   7   -0.28    0.59 
  -5  -7   7    0.38    0.50 
   4   7  -7    9.66    0.89 
  -4  -7   7    8.42    0.98 
   3   7  -7    7.16    0.76 
  -3  -7   7    6.32    0.83 
   2   7  -7    1.89    0.42 
  -2  -7   7    0.82    0.42 
   1   7  -7    0.00    0.19 
   0   7  -7   12.99    0.92 
  -1   7  -7    0.11    0.22 
  -2   7  -7    1.98    0.44 
  -3   7  -7    3.20    0.54 
  -4   7  -7    5.90    0.75 
  -5   7  -7    2.45    0.53 
  -5   7  -7    1.15    0.49 
  -6  -6   7    6.20    0.93 
  -5  -6   7    0.58    0.43 
   4   6  -7    1.11    0.34 
  -4  -6   7    0.95    0.42 
   3   6  -7    2.11    0.42 
  -3  -6   7    1.87    0.47 
   2   6  -7   24.64    1.27 
  -2  -6   7   25.42    1.41 
   1   6  -7    0.01    0.18 
  -1  -6   7   -0.03    0.29 
   0   6  -7    3.14    0.48 
  -1   6  -7   20.26    1.11 
  -2   6  -7   26.85    1.36 
  -3   6  -7    3.87    0.56 
  -4   6  -7    0.44    0.26 
  -5   6  -7    2.13    0.48 
  -5   6  -7    1.40    0.45 
  -6   6  -7    4.00    0.89 
  -7  -5   7    0.74    0.63 
  -6  -5   7    1.02    0.51 
  -5  -5   7   12.95    0.99 
   4   5  -7    6.78    0.61 
  -4  -5   7    7.40    0.75 
   3   5  -7   37.05    1.59 
  -3  -5   7   37.14    1.69 
   2   5  -7    7.86    0.60 
  -2  -5   7    6.73    0.68 
   1   5  -7   36.79    1.57 
  -1  -5   7   35.58    1.67 
   0   5  -7   17.86    0.97 
  -1   5  -7   26.55    1.27 
  -2   5  -7    0.18    0.18 
  -3   5  -7   40.64    1.75 
  -4   5  -7    5.44    0.61 
  -5   5  -7   16.52    1.04 
  -6   5  -7    0.58    0.53 
  -7  -4   7    0.56    0.54 
  -6  -4   7   20.47    1.30 
  -5  -4   7    0.35    0.30 
   4   4  -7    1.99    0.30 
  -4  -4   7    2.19    0.44 
   3   4  -7   13.47    0.75 
  -3  -4   7   13.59    0.67 
  -3  -4   7   12.58    0.81 
   2   4  -7  109.16    3.63 
  -2  -4   7  109.01    3.63 
  -2  -4   7  105.39    3.77 
   1   4  -7   28.11    1.21 
  -1  -4   7   26.55    1.27 
  -1  -4   7   26.45    1.13 
   0   4  -7    0.49    0.21 
  -1   4  -7    0.15    0.16 
  -2   4  -7  112.79    3.80 
  -3   4  -7    2.37    0.38 
  -4   4  -7    0.56    0.24 
  -5   4  -7    0.45    0.23 
  -6   4  -7   13.33    1.08 
  -7  -3   7    2.69    0.66 
  -6  -3   7    1.84    0.49 
  -5  -3   7   11.67    0.83 
   4   3  -7    3.03    0.31 
  -4  -3   7    1.76    0.37 
  -4  -3   7    2.68    0.34 
   3   3  -7   68.67    2.33 
  -3  -3   7   66.13    2.39 
  -3  -3   7   68.80    2.53 
   2   3  -7   14.50    0.73 
  -2  -3   7   15.26    0.72 
  -2  -3   7   16.14    0.81 
   1   3  -7   41.11    1.56 
  -1  -3   7   41.70    1.57 
  -1  -3   7   41.17    1.62 
   0   3  -7   39.14    1.48 
   0  -3   7   39.18    1.55 
  -1   3  -7   83.64    2.82 
  -2   3  -7    9.27    0.57 
  -3   3  -7   24.12    1.10 
  -4   3  -7   13.14    0.77 
  -5   3  -7   12.07    0.79 
  -6   3  -7    0.66    0.37 
  -7   3  -7    3.39    0.77 
  -7  -2   7    1.55    0.56 
  -6  -2   7   14.53    1.01 
  -5  -2   7   35.10    1.62 
  -5  -2   7   35.71    1.52 
   4   2  -7    4.22    0.30 
  -4  -2   7    4.11    0.48 
  -4  -2   7    3.76    0.40 
   3   2  -7   42.14    1.43 
  -3  -2   7   39.32    1.55 
  -3  -2   7   41.62    1.62 
   2   2  -7  105.07    3.39 
  -2  -2   7  107.61    3.58 
  -2  -2   7  106.46    3.56 
   1   2  -7  206.68    6.31 
  -1  -2   7  201.98    6.64 
  -1  -2   7  206.11    6.55 
   0   2  -7   37.12    1.35 
   0  -2   7   37.70    1.42 
   0  -2   7   38.38    1.49 
  -1   2  -7   29.10    1.12 
  -2   2  -7  264.97    8.14 
  -3   2  -7   96.21    3.23 
  -4   2  -7    2.62    0.39 
  -5   2  -7   11.53    0.76 
  -6   2  -7   14.25    0.93 
  -7   2  -7    7.50    0.96 
  -7  -1   7    1.45    0.53 
  -6  -1   7    0.40    0.31 
  -6  -1   7    0.55    0.27 
  -5  -1   7    6.75    0.57 
  -5  -1   7    5.90    0.62 
  -4  -1   7   93.78    3.29 
  -4  -1   7   90.67    3.23 
   3   1  -7   17.03    0.60 
  -3  -1   7   16.73    0.80 
  -3  -1   7   15.57    0.80 
   2   1  -7    0.28    0.08 
  -2  -1   7    0.74    0.17 
  -2  -1   7    0.13    0.13 
  -1  -1   7    9.36    0.45 
  -1  -1   7   10.46    0.54 
   0   1  -7  665.66   19.56 
   0  -1   7  649.23   20.39 
   0  -1   7  659.45   20.71 
  -1   1  -7   20.87    0.84 
   1  -1   7   21.19    0.97 
  -2   1  -7    6.17    0.41 
  -3   1  -7    7.92    0.51 
  -4   1  -7  100.08    3.40 
  -5   1  -7    1.31    0.30 
  -6   1  -7    1.72    0.37 
  -7   1  -7    3.78    0.70 
  -7   0   7    6.28    0.80 
  -7   0   7    4.58    0.65 
  -6   0   7    0.01    0.22 
  -5   0   7   61.76    2.40 
  -4   0   7    0.08    0.18 
  -3   0   7   70.56    2.52 
   2   0  -7    0.09    0.05 
  -2   0   7    0.06    0.14 
   1   0  -7  113.77    3.47 
  -1   0   7  114.08    3.80 
   0   0   7   -0.08    0.06 
   0   0   7   -0.09    0.09 
   0   0   7   -0.07    0.09 
   1   0   7  284.54    8.66 
   1   0   7  284.94    9.18 
   2   0   7    0.11    0.12 
   3   0   7   91.96    3.14 
   4   0   7    0.00    0.14 
   5   0   7   28.61    1.38 
  -6   0  -7    0.15    0.24 
  -7   1   7    1.25    0.44 
  -6   1   7    0.68    0.31 
  -5   1   7    5.52    0.56 
  -4   1   7   92.50    3.32 
  -3   1   7   15.42    0.80 
  -2   1   7    0.10    0.12 
  -2   1   7    0.36    0.07 
  -1   1   7    9.64    0.42 
  -1   1   7    9.59    0.52 
   0   1   7  660.58   20.79 
   0   1   7  662.41   19.69 
  -1  -1  -7   23.51    0.80 
   1   1   7   23.48    0.96 
   1   1   7   23.86    1.02 
  -2  -1  -7    5.50    0.31 
   2   1   7    5.39    0.41 
  -3  -1  -7    9.73    0.51 
   3   1   7    7.90    0.56 
  -4  -1  -7   93.48    3.24 
   4   1   7   93.86    3.28 
  -5  -1  -7    2.05    0.39 
   5   1   7    1.83    0.38 
  -6  -1  -7    1.30    0.37 
   6   1   7    0.97    0.36 
  -7   2   7    1.62    0.49 
  -6   2   7   13.65    0.97 
  -5   2   7   39.20    1.76 
  -4   2   7    3.62    0.46 
  -3   2   7   39.10    1.59 
  -2   2   7  101.94    3.58 
  -2   2   7  107.54    3.23 
  -1   2   7  216.28    6.44 
  -1   2   7  207.40    6.86 
   0   2   7   40.50    1.49 
   0   2   7   38.36    1.39 
  -1  -2  -7   28.44    1.05 
   1   2   7   29.93    1.18 
   1   2   7   29.02    1.15 
  -2  -2  -7  246.23    7.89 
   2   2   7  256.25    7.80 
  -3  -2  -7   86.51    2.93 
   3   2   7   87.00    3.01 
  -4  -2  -7    2.50    0.34 
   4   2   7    2.51    0.41 
  -5  -2  -7   11.56    0.74 
   5   2   7   11.49    0.81 
  -6  -2  -7   12.18    0.85 
   6   2   7   12.50    0.90 
  -7   3   7    3.92    0.74 
  -6   3   7    2.25    0.51 
  -5   3   7   11.04    0.80 
  -4   3   7    2.37    0.41 
  -3   3   7   66.09    2.09 
  -3   3   7   63.35    2.45 
  -2   3   7   14.98    0.77 
  -2   3   7   14.77    0.63 
  -1   3   7   41.79    1.51 
  -1   3   7   44.02    1.64 
   0   3   7   45.32    1.57 
   0   3   7   40.90    1.60 
  -1  -3  -7   83.17    2.83 
   1   3   7   81.92    2.88 
   1   3   7   86.80    2.86 
  -2  -3  -7    9.38    0.54 
   2   3   7    9.72    0.60 
   2   3   7    9.20    0.54 
  -3  -3  -7   23.70    1.03 
   3   3   7   23.15    1.12 
  -4  -3  -7   12.50    0.75 
   4   3   7   12.82    0.82 
  -5  -3  -7   12.81    0.80 
   5   3   7   12.06    0.86 
   6   3   7    0.52    0.32 
  -7   4   7   -0.15    0.48 
  -6   4   7   22.66    1.40 
  -5   4   7   -0.43    0.19 
  -4   4   7    2.33    0.42 
  -3   4   7   13.93    0.85 
  -3   4   7   14.09    0.65 
  -2   4   7  111.14    3.54 
  -2   4   7  109.29    3.83 
  -1   4   7   25.72    1.07 
  -1   4   7   25.92    1.12 
   0   4   7    0.44    0.17 
   0   4   7    0.47    0.18 
   1   4   7    0.25    0.13 
   1   4   7    0.02    0.13 
  -2  -4  -7  111.67    3.68 
   2   4   7   93.43    3.60 
   2   4   7  114.78    3.61 
  -3  -4  -7    2.71    0.38 
   3   4   7    2.04    0.38 
  -4  -4  -7    0.50    0.26 
   4   4   7    0.53    0.24 
  -5  -4  -7    0.18    0.27 
   5   4   7   -0.04    0.23 
   6   4   7   12.82    1.05 
  -7   5   7    1.01    0.64 
  -6   5   7    0.34    0.41 
  -5   5   7   12.57    0.93 
  -4   5   7    6.81    0.68 
  -3   5   7   36.18    1.64 
  -3   5   7   37.44    1.42 
  -2   5   7    7.96    0.51 
  -2   5   7    8.06    0.58 
  -1   5   7   36.85    1.42 
  -1   5   7   33.15    1.43 
   0   5   7   14.90    0.78 
   0   5   7   17.49    0.87 
   1   5   7   29.21    1.18 
   1   5   7   27.86    1.28 
  -2  -5  -7    0.16    0.27 
   2   5   7    0.11    0.16 
  -3  -5  -7   38.92    1.71 
   3   5   7   41.09    1.77 
  -4  -5  -7    4.82    0.58 
   4   5   7    4.71    0.61 
  -5  -5  -7   16.59    1.01 
   5   5   7   14.43    1.04 
   6   5   7    0.57    0.35 
  -6   6   7    5.51    0.78 
  -5   6   7    1.19    0.45 
  -4   6   7    0.86    0.34 
  -3   6   7    2.50    0.36 
  -3   6   7    1.99    0.41 
  -2   6   7   24.94    1.14 
  -2   6   7   24.07    1.20 
  -1   6   7    0.16    0.18 
  -1   6   7    0.44    0.19 
   0   6   7    2.97    0.43 
   0   6   7    3.87    0.40 
   1   6   7   17.34    0.98 
   2   6   7   25.31    1.29 
  -3  -6  -7    5.01    0.62 
   3   6   7    4.55    0.62 
  -4  -6  -7    0.23    0.34 
   4   6   7   -0.08    0.21 
   5   6   7    1.15    0.39 
   6   6   7    5.57    0.77 
  -6   7   7    0.18    0.28 
  -5   7   7    0.98    0.39 
  -4   7   7    8.82    0.86 
  -3   7   7    7.47    0.63 
  -3   7   7    5.97    0.67 
  -2   7   7    1.42    0.33 
  -2   7   7    1.38    0.34 
  -1   7   7    0.11    0.18 
  -1   7   7   -0.09    0.16 
   0   7   7   14.03    0.89 
   1   7   7    0.06    0.17 
   2   7   7    2.46    0.47 
  -3  -7  -7    4.60    0.67 
   3   7   7    4.01    0.64 
  -4  -7  -7    4.26    0.69 
   4   7   7    4.93    0.71 
   5   7   7    1.85    0.44 
  -5   8   7    0.57    0.36 
  -4   8   7    0.77    0.40 
  -3   8   7    6.00    0.70 
  -2   8   7    0.47    0.24 
  -2   8   7    0.74    0.31 
  -1   8   7    3.44    0.53 
   0   8   7    3.63    0.57 
   1   8   7   14.81    1.01 
   2   8   7    0.46    0.32 
   3   8   7    7.85    0.88 
   4   8   7    0.20    0.30 
  -4   9   7    2.63    0.54 
  -3   9   7    0.01    0.31 
  -2   9   7    0.48    0.30 
  -1   9   7    1.45    0.41 
   0   9   7    4.38    0.67 
   1   9   7    0.13    0.30 
   2   9   7    0.09    0.31 
   3   9   7    0.45    0.30 
  -2  10   7    0.10    0.39 
  -1  10   7    0.53    0.41 
   0  10   7    0.45    0.39 
   1  10   7    0.30    0.42 
   2  10   7    0.19    0.48 
   2  10  -8    0.96    0.41 
   1  10  -8    0.49    0.29 
   0  10  -8    0.25    0.25 
  -1  10  -8    0.92    0.50 
  -2  10  -8    0.93    0.53 
   4   9  -8    0.67    0.40 
  -4  -9   8    0.80    0.47 
   3   9  -8    1.48    0.48 
  -3  -9   8    2.08    0.57 
   2   9  -8    1.16    0.40 
   1   9  -8    4.15    0.69 
   0   9  -8    0.69    0.36 
  -1   9  -8    3.99    0.68 
  -2   9  -8    0.24    0.35 
  -3   9  -8    3.10    0.56 
  -3   9  -8    1.67    0.56 
  -5  -8   8    1.11    0.78 
   4   8  -8   -0.11    0.33 
  -4  -8   8   -0.29    0.32 
   3   8  -8    0.32    0.36 
  -3  -8   8    0.08    0.38 
   2   8  -8   11.28    1.02 
  -2  -8   8   11.50    1.14 
   1   8  -8    0.13    0.28 
   0   8  -8    1.84    0.45 
  -1   8  -8    1.66    0.43 
  -2   8  -8    2.66    0.55 
  -3   8  -8    0.08    0.30 
  -4   8  -8   -0.08    0.35 
  -4   8  -8    0.39    0.33 
  -5  -7   8    4.13    0.82 
   4   7  -8    1.11    0.40 
  -4  -7   8    0.89    0.45 
   3   7  -8    0.40    0.28 
  -3  -7   8   -0.06    0.37 
   2   7  -8    1.34    0.38 
  -2  -7   8    2.29    0.57 
   1   7  -8   16.56    1.05 
   0   7  -8    6.54    0.72 
  -1   7  -8    0.87    0.34 
  -2   7  -8    3.33    0.55 
  -3   7  -8    8.28    0.83 
  -4   7  -8    2.60    0.55 
  -5   7  -8    1.46    0.40 
  -5   7  -8    1.14    0.50 
  -6  -6   8    0.91    0.62 
  -5  -6   8    1.37    0.46 
   4   6  -8    5.37    0.61 
  -4  -6   8    5.28    0.74 
   3   6  -8    4.04    0.55 
  -3  -6   8    4.77    0.68 
   2   6  -8   20.37    1.12 
  -2  -6   8   19.43    1.20 
   1   6  -8   11.30    0.81 
  -1  -6   8   10.06    0.90 
   0   6  -8    1.53    0.36 
  -1   6  -8   14.56    0.92 
  -2   6  -8    3.66    0.54 
  -3   6  -8    8.64    0.79 
  -4   6  -8    2.15    0.47 
  -5   6  -8    6.77    0.82 
  -6  -5   8    0.67    0.48 
  -5  -5   8    2.83    0.57 
   4   5  -8   19.80    1.03 
  -4  -5   8   18.84    1.14 
   3   5  -8    0.14    0.18 
  -3  -5   8    0.27    0.28 
   2   5  -8    0.43    0.21 
  -2  -5   8    0.48    0.31 
  -2  -5   8    0.09    0.16 
   1   5  -8    0.63    0.23 
  -1  -5   8    0.79    0.33 
   0   5  -8   67.04    2.51 
  -1   5  -8    0.32    0.20 
  -2   5  -8    0.51    0.24 
  -3   5  -8   18.29    1.03 
  -4   5  -8   23.38    1.26 
  -5   5  -8    2.41    0.48 
  -6   5  -8    0.14    0.48 
  -7  -4   8    2.89    0.74 
  -6  -4   8    0.74    0.42 
  -5  -4   8    6.04    0.72 
   4   4  -8    6.00    0.51 
  -4  -4   8    6.43    0.65 
   3   4  -8  122.58    4.18 
  -3  -4   8  128.73    4.44 
  -3  -4   8  129.88    4.28 
   2   4  -8    0.72    0.23 
  -2  -4   8    0.90    0.22 
  -2  -4   8    0.85    0.29 
   1   4  -8  110.14    3.64 
  -1  -4   8  103.10    3.68 
  -1  -4   8  109.91    3.81 
   0   4  -8    1.63    0.31 
  -1   4  -8   68.90    2.49 
  -2   4  -8    5.43    0.52 
  -3   4  -8    9.65    0.67 
  -4   4  -8    0.68    0.26 
  -5   4  -8   16.48    1.01 
  -7  -3   8    1.55    0.55 
  -6  -3   8    2.20    0.51 
  -5  -3   8   -0.03    0.24 
   4   3  -8   72.94    2.53 
  -4  -3   8   76.28    2.84 
  -4  -3   8   76.22    2.71 
   3   3  -8    7.42    0.48 
  -3  -3   8    7.05    0.57 
  -3  -3   8    7.47    0.50 
   2   3  -8   14.95    0.75 
  -2  -3   8   14.85    0.79 
  -2  -3   8   15.20    0.75 
   1   3  -8   28.73    1.14 
  -1  -3   8   25.15    1.15 
  -1  -3   8   24.97    1.12 
   0   3  -8  160.27    5.00 
   0  -3   8  154.00    5.27 
  -1   3  -8   37.16    1.44 
  -2   3  -8   19.34    0.92 
  -3   3  -8   19.53    0.97 
  -4   3  -8   55.16    2.14 
  -5   3  -8    6.61    0.64 
  -6   3  -8    0.96    0.38 
  -7  -2   8    0.84    0.45 
  -6  -2   8   12.94    0.93 
  -5  -2   8    0.08    0.23 
  -5  -2   8    0.51    0.27 
  -4  -2   8    0.88    0.28 
  -4  -2   8    0.75    0.23 
   3   2  -8   74.21    2.37 
  -3  -2   8   70.18    2.57 
  -3  -2   8   72.93    2.61 
   2   2  -8   83.96    2.86 
  -2  -2   8   90.92    3.06 
  -2  -2   8   90.18    3.02 
   1   2  -8  141.67    4.44 
  -1  -2   8  141.36    4.60 
  -1  -2   8  141.07    4.71 
   0   2  -8    0.78    0.16 
   0  -2   8    0.58    0.19 
   0  -2   8    0.11    0.10 
  -1   2  -8   19.75    0.85 
  -2   2  -8  285.49    8.78 
  -3   2  -8   23.52    1.07 
  -4   2  -8    0.78    0.25 
  -5   2  -8   15.14    0.91 
  -6   2  -8   21.83    1.20 
  -7   2  -8    1.75    0.63 
  -7  -1   8    9.99    0.95 
  -6  -1   8    1.57    0.36 
  -6  -1   8    1.22    0.38 
  -5  -1   8   12.48    0.84 
  -5  -1   8   12.92    0.78 
  -4  -1   8    8.60    0.63 
  -4  -1   8    7.92    0.58 
   3   1  -8  118.11    3.48 
  -3  -1   8  106.94    3.87 
  -3  -1   8  115.82    3.87 
   2   1  -8    4.76    0.29 
  -2  -1   8    4.39    0.33 
  -2  -1   8    4.75    0.38 
   1   1  -8   75.63    2.48 
  -1  -1   8   81.46    2.73 
   0   1  -8   17.55    0.70 
   0  -1   8   17.10    0.71 
   0  -1   8   17.02    0.82 
  -1   1  -8    9.25    0.49 
   1  -1   8    9.79    0.60 
  -2   1  -8    2.65    0.31 
  -3   1  -8  117.90    3.88 
  -4   1  -8   11.83    0.72 
  -5   1  -8   25.31    1.22 
  -6   1  -8    0.55    0.31 
  -7   1  -8    3.92    0.73 
  -7   0   8    0.31    0.34 
  -7   0   8    0.00    0.29 
  -6   0   8   23.60    1.25 
  -5   0   8   -0.11    0.19 
  -4   0   8   10.07    0.65 
  -3   0   8    0.08    0.16 
   2   0  -8  213.36    6.32 
  -2   0   8  207.28    6.85 
   1   0  -8    0.00    0.05 
  -1   0   8    0.05    0.11 
  -1   0   8    0.08    0.07 
   0   0   8  146.68    4.84 
   0   0   8  143.37    4.52 
   0   0   8  146.45    4.57 
   1   0   8    0.06    0.10 
   1   0   8   -0.07    0.10 
   2   0   8  408.71   12.42 
   3   0   8   -0.10    0.10 
   4   0   8    2.03    0.38 
   5   0   8   -0.01    0.18 
  -6   0  -8   37.24    1.68 
  -7   1   8   10.31    0.94 
  -6   1   8    1.82    0.41 
  -5   1   8   14.15    0.87 
  -4   1   8    7.97    0.61 
  -3   1   8  107.29    3.72 
  -2   1   8    5.17    0.41 
  -2   1   8    4.91    0.24 
  -1   1   8   83.58    2.95 
  -1   1   8   87.54    2.71 
   0   1   8   16.96    0.80 
   0   1   8   17.72    0.75 
   1   1   8   10.71    0.58 
   1   1   8   10.92    0.62 
  -2  -1  -8    2.80    0.22 
   2   1   8    2.58    0.34 
  -3  -1  -8  108.47    3.61 
   3   1   8  110.47    3.71 
  -4  -1  -8   11.27    0.65 
   4   1   8    9.90    0.69 
  -5  -1  -8   24.21    1.17 
   5   1   8   24.35    1.25 
   6   1   8    0.61    0.34 
  -7   2   8    0.81    0.43 
  -6   2   8   14.21    0.98 
  -5   2   8    0.01    0.20 
  -4   2   8    1.18    0.30 
  -3   2   8   68.39    2.54 
  -2   2   8   86.37    3.02 
  -2   2   8   85.68    2.68 
  -1   2   8  140.62    4.63 
  -1   2   8  136.95    4.29 
   0   2   8    0.51    0.14 
   0   2   8    0.27    0.13 
   1   2   8   18.58    0.86 
   1   2   8   20.22    0.91 
  -2  -2  -8  260.73    8.29 
   2   2   8  268.76    8.59 
   2   2   8  262.76    8.20 
  -3  -2  -8   21.09    0.88 
   3   2   8   19.16    1.00 
  -4  -2  -8    0.54    0.23 
   4   2   8    0.43    0.21 
  -5  -2  -8   14.28    0.83 
   5   2   8   15.57    0.96 
   6   2   8   20.78    1.22 
  -7   3   8    1.26    0.51 
  -6   3   8    2.53    0.52 
  -5   3   8   -0.12    0.19 
  -4   3   8   75.78    2.88 
  -3   3   8    4.95    0.50 
  -3   3   8    6.92    0.35 
  -2   3   8   13.24    0.75 
  -2   3   8   15.07    0.63 
  -1   3   8   24.45    0.98 
  -1   3   8   25.62    1.10 
   0   3   8  169.65    5.63 
   0   3   8  172.28    5.38 
  -2  -3  -8   19.73    0.83 
   2   3   8   16.31    0.84 
   2   3   8   18.00    0.91 
  -3  -3  -8   17.32    0.83 
   3   3   8   17.62    0.95 
  -4  -3  -8   45.43    1.80 
   4   3   8   47.49    1.94 
  -5  -3  -8    6.09    0.60 
   5   3   8    5.90    0.67 
   6   3   8    1.36    0.44 
  -7   4   8    3.59    0.75 
  -6   4   8    0.53    0.40 
  -5   4   8    6.19    0.70 
  -4   4   8    5.41    0.60 
  -3   4   8  127.58    4.02 
  -2   4   8    1.41    0.23 
  -2   4   8    0.97    0.26 
  -1   4   8  107.51    3.59 
  -1   4   8  113.57    3.83 
   0   4   8    1.58    0.26 
   0   4   8    1.12    0.24 
   1   4   8   69.38    2.52 
   1   4   8   72.58    2.55 
  -2  -4  -8    6.58    0.52 
   2   4   8    5.57    0.43 
   2   4   8    5.06    0.53 
  -3  -4  -8   10.30    0.66 
   3   4   8    9.55    0.70 
  -4  -4  -8    0.62    0.28 
   4   4   8    0.66    0.28 
   5   4   8   16.04    1.06 
   6   4   8    0.48    0.34 
  -6   5   8    0.71    0.47 
  -5   5   8    3.48    0.62 
  -4   5   8   21.62    1.23 
  -3   5   8    0.18    0.22 
  -3   5   8    0.34    0.17 
  -2   5   8    0.30    0.20 
  -2   5   8    0.24    0.16 
  -1   5   8    0.23    0.18 
  -1   5   8    0.22    0.15 
   1   5   8    0.36    0.18 
   1   5   8    0.22    0.16 
  -2  -5  -8    0.19    0.28 
   2   5   8    0.18    0.17 
  -3  -5  -8   16.45    0.95 
   3   5   8   17.09    1.01 
  -4  -5  -8   21.20    1.14 
   4   5   8   19.99    1.18 
   5   5   8    2.18    0.52 
   6   5   8    0.90    0.32 
  -6   6   8    1.50    0.47 
  -5   6   8    1.30    0.46 
  -4   6   8    5.33    0.67 
  -3   6   8    3.94    0.43 
  -3   6   8    4.32    0.54 
  -2   6   8   19.00    0.96 
  -2   6   8   19.95    1.05 
  -1   6   8    9.82    0.65 
  -1   6   8    9.08    0.62 
   0   6   8    2.04    0.37 
   0   6   8    1.80    0.32 
   1   6   8   11.69    0.77 
   2   6   8    3.40    0.53 
  -3  -6  -8    8.86    0.79 
   3   6   8    9.42    0.85 
   4   6   8    1.88    0.45 
   5   6   8    5.94    0.77 
  -5   7   8    5.34    0.76 
  -4   7   8    1.19    0.43 
  -3   7   8    0.19    0.26 
  -2   7   8    1.64    0.35 
  -2   7   8    2.00    0.40 
  -1   7   8   14.07    0.86 
  -1   7   8   12.78    0.81 
   0   7   8    5.57    0.61 
   1   7   8    0.75    0.27 
   2   7   8    3.31    0.55 
  -3  -7  -8    9.36    0.84 
   3   7   8    8.58    0.88 
   4   7   8    1.73    0.43 
   5   7   8    1.53    0.42 
  -5   8   8    0.69    0.35 
  -4   8   8    0.16    0.30 
  -3   8   8   -0.02    0.29 
  -2   8   8    9.58    0.73 
  -2   8   8   10.05    0.77 
  -1   8   8   -0.05    0.18 
   0   8   8    1.89    0.42 
   1   8   8    2.03    0.45 
   2   8   8    1.89    0.47 
   3   8   8    0.43    0.30 
   4   8   8    0.36    0.28 
  -4   9   8    0.83    0.36 
  -3   9   8    1.36    0.46 
  -2   9   8    0.53    0.30 
  -1   9   8    3.33    0.58 
   0   9   8    0.40    0.31 
   1   9   8    4.24    0.68 
   2   9   8    0.08    0.34 
   3   9   8    1.93    0.50 
  -2  10   8    1.37    0.53 
  -1  10   8    0.17    0.36 
   0  10   8    0.36    0.39 
   1  10   8    1.23    0.54 
   2  10   8    0.67    0.55 
   2  10  -9    0.22    0.28 
   1  10  -9    0.00    0.23 
   0  10  -9    0.84    0.33 
  -1  10  -9    0.89    0.56 
   4   9  -9    1.29    0.47 
  -4  -9   9    1.69    0.51 
   3   9  -9    1.46    0.43 
  -3  -9   9    1.57    0.47 
   2   9  -9   -0.02    0.31 
   1   9  -9    0.70    0.36 
   0   9  -9    3.05    0.61 
  -1   9  -9    0.04    0.33 
  -2   9  -9    0.86    0.45 
  -3   9  -9    0.84    0.54 
  -5  -8   9    0.42    0.39 
   4   8  -9    1.15    0.45 
  -4  -8   9    0.88    0.44 
   3   8  -9    6.61    0.84 
  -3  -8   9    5.64    0.90 
   2   8  -9    0.20    0.27 
  -2  -8   9    0.02    0.38 
   1   8  -9    0.04    0.28 
   0   8  -9    0.64    0.32 
  -1   8  -9    3.46    0.60 
  -2   8  -9    0.19    0.28 
  -3   8  -9   -0.01    0.32 
  -4   8  -9    0.48    0.45 
  -5  -7   9    0.76    0.41 
   4   7  -9    7.29    0.79 
  -4  -7   9    7.24    0.92 
   3   7  -9    1.39    0.41 
  -3  -7   9    1.46    0.53 
   2   7  -9    6.09    0.72 
  -2  -7   9    5.63    0.81 
   1   7  -9    4.82    0.65 
   0   7  -9   21.49    1.24 
  -1   7  -9    5.92    0.69 
  -2   7  -9    3.64    0.57 
  -3   7  -9    1.67    0.42 
  -4   7  -9    3.64    0.67 
  -5   7  -9    1.38    0.56 
  -6  -6   9    2.79    0.58 
  -5  -6   9   -0.05    0.33 
   4   6  -9    0.43    0.26 
  -4  -6   9   -0.23    0.34 
   3   6  -9    7.52    0.71 
  -3  -6   9    7.18    0.80 
   2   6  -9   18.34    1.07 
  -2  -6   9   18.58    1.17 
   1   6  -9    0.63    0.26 
  -1  -6   9    0.55    0.35 
   0   6  -9    0.83    0.28 
  -1   6  -9   11.35    0.81 
  -2   6  -9   36.41    1.71 
  -3   6  -9    1.93    0.43 
  -4   6  -9   -0.03    0.26 
  -5   6  -9    4.38    0.72 
  -6  -5   9    2.56    0.55 
  -5  -5   9    4.51    0.70 
   4   5  -9    2.71    0.42 
  -4  -5   9    2.35    0.50 
   3   5  -9    4.05    0.51 
  -3  -5   9    5.34    0.64 
   2   5  -9   18.70    1.05 
  -2  -5   9   24.01    1.25 
  -2  -5   9   21.52    1.01 
   1   5  -9   44.45    1.79 
  -1  -5   9   39.71    1.87 
   0   5  -9    8.98    0.67 
  -1   5  -9    8.43    0.65 
  -2   5  -9    4.69    0.55 
  -3   5  -9   19.21    1.09 
  -4   5  -9    0.28    0.20 
  -5   5  -9    1.44    0.42 
  -7  -4   9    0.63    0.48 
  -6  -4   9   11.96    1.06 
  -5  -4   9    0.41    0.34 
   4   4  -9    9.43    0.61 
  -4  -4   9   10.50    0.78 
   3   4  -9    5.04    0.48 
  -3  -4   9    4.93    0.45 
  -3  -4   9    3.17    0.48 
   2   4  -9   61.73    2.29 
  -2  -4   9   61.64    2.39 
  -2  -4   9   62.96    2.30 
   1   4  -9   19.87    1.01 
  -1  -4   9   22.05    1.11 
  -1  -4   9   20.95    1.00 
   0   4  -9   60.79    2.27 
  -1   4  -9    2.33    0.36 
  -2   4  -9   75.09    2.72 
  -3   4  -9   -0.06    0.13 
  -4   4  -9    5.49    0.60 
  -5   4  -9    2.88    0.52 
  -6   4  -9    9.38    0.91 
  -7  -3   9    1.50    0.45 
  -6  -3   9    0.03    0.31 
  -5  -3   9   20.89    1.20 
  -4  -3   9   20.61    1.02 
  -4  -3   9   21.86    1.13 
   3   3  -9    4.86    0.41 
  -3  -3   9    4.58    0.49 
  -3  -3   9    5.43    0.46 
   2   3  -9   16.71    0.80 
  -2  -3   9   14.32    0.77 
  -2  -3   9   15.82    0.82 
   1   3  -9  201.48    6.38 
  -1  -3   9  203.98    6.64 
  -1  -3   9  203.80    6.70 
   0   3  -9    3.09    0.35 
   0  -3   9    2.82    0.38 
  -1   3  -9   40.05    1.55 
  -2   3  -9    0.21    0.16 
  -3   3  -9   33.96    1.46 
  -4   3  -9   18.60    1.02 
  -5   3  -9    1.84    0.42 
  -6   3  -9    0.93    0.35 
  -7  -2   9    2.67    0.54 
  -6  -2   9   10.23    0.90 
  -5  -2   9    0.91    0.30 
  -5  -2   9    1.06    0.34 
  -4  -2   9    0.24    0.19 
  -4  -2   9    0.46    0.23 
   3   2  -9   32.17    1.18 
  -3  -2   9   31.89    1.34 
  -3  -2   9   31.91    1.35 
   2   2  -9   12.10    0.62 
  -2  -2   9   14.00    0.69 
  -2  -2   9   12.55    0.69 
   1   2  -9   42.82    1.54 
  -1  -2   9   41.61    1.66 
  -1  -2   9   43.44    1.58 
   0   2  -9   37.71    1.41 
   0  -2   9   39.74    1.59 
  -1   2  -9   87.36    2.90 
  -2   2  -9   51.45    1.90 
  -3   2  -9    2.01    0.34 
  -4   2  -9   18.84    1.00 
  -5   2  -9   29.47    1.41 
  -6   2  -9   14.98    0.99 
  -7   2  -9    0.98    0.56 
  -7  -1   9    0.45    0.31 
  -6  -1   9    3.79    0.53 
  -6  -1   9    2.99    0.55 
  -5  -1   9    5.28    0.59 
  -5  -1   9    4.02    0.49 
  -4  -1   9   75.49    2.77 
  -4  -1   9   74.53    2.77 
   3   1  -9    3.01    0.20 
  -3  -1   9    2.87    0.37 
  -3  -1   9    2.82    0.35 
   2   1  -9   37.99    1.29 
  -2  -1   9   35.70    1.37 
  -2  -1   9   35.95    1.46 
   1   1  -9   63.93    2.11 
  -1  -1   9   65.60    2.35 
   0   1  -9  265.68    7.89 
   0  -1   9  254.84    8.16 
   0  -1   9  258.86    8.44 
  -1   1  -9   91.43    2.96 
   1  -1   9   89.70    3.24 
  -2   1  -9    2.50    0.33 
  -3   1  -9    4.17    0.43 
  -4   1  -9   70.45    2.58 
  -5   1  -9    1.91    0.38 
  -6   1  -9    4.98    0.63 
  -7   1  -9    0.78    0.51 
  -7   0   9   12.69    0.95 
  -7   0   9   12.93    1.00 
  -6   0   9    0.20    0.22 
  -5   0   9   24.88    1.23 
  -4   0   9    0.01    0.18 
  -3   0   9  132.83    4.53 
   2   0  -9    0.06    0.07 
  -2   0   9    0.04    0.13 
  -1   0   9   98.36    3.19 
  -1   0   9   99.86    3.41 
   0   0   9    0.14    0.07 
   0   0   9   -0.16    0.08 
   0   0   9    0.05    0.11 
   1   0   9  310.59    9.48 
   1   0   9  309.61   10.05 
   2   0   9   -0.07    0.10 
   3   0   9   16.53    0.89 
   4   0   9   -0.04    0.17 
   5   0   9   58.83    2.38 
  -6   0  -9   -0.10    0.23 
  -7   1   9    0.04    0.32 
  -6   1   9    2.83    0.50 
  -5   1   9    5.00    0.57 
  -4   1   9   71.50    2.69 
  -3   1   9    2.46    0.35 
  -2   1   9   35.07    1.18 
  -2   1   9   36.97    1.47 
  -1   1   9   66.07    2.13 
  -1   1   9   63.80    2.35 
   0   1   9  255.12    8.47 
   0   1   9  268.80    8.01 
   1   1   9   93.29    3.26 
   1   1   9   91.05    3.06 
  -2  -1  -9    2.86    0.22 
   2   1   9    2.61    0.38 
   2   1   9    2.48    0.35 
  -3  -1  -9    4.44    0.33 
   3   1   9    3.62    0.46 
  -4  -1  -9   62.41    2.23 
   4   1   9   59.45    2.34 
   5   1   9    1.52    0.38 
   6   1   9    5.36    0.71 
  -7   2   9    1.70    0.52 
  -6   2   9   10.70    0.86 
  -5   2   9    0.77    0.30 
  -4   2   9    0.79    0.26 
  -3   2   9   31.16    1.37 
  -2   2   9   12.51    0.73 
  -2   2   9   12.76    0.53 
  -1   2   9   42.70    1.49 
  -1   2   9   42.64    1.67 
   0   2   9   37.22    1.41 
   0   2   9   39.50    1.53 
   1   2   9   84.22    2.86 
   1   2   9   85.05    3.01 
  -2  -2  -9   48.20    1.69 
   2   2   9   47.84    1.86 
   2   2   9   52.50    1.96 
  -3  -2  -9    2.22    0.27 
   3   2   9    1.93    0.36 
  -4  -2  -9   19.31    0.89 
   4   2   9   16.11    0.98 
   5   2   9   24.61    1.31 
   6   2   9   12.62    0.94 
  -7   3   9    1.94    0.58 
  -6   3   9    0.38    0.31 
  -5   3   9   18.65    1.11 
  -4   3   9   19.89    1.09 
  -3   3   9    5.07    0.31 
  -3   3   9    4.84    0.51 
  -2   3   9   15.36    0.82 
  -2   3   9   14.77    0.65 
  -1   3   9  202.24    6.65 
  -1   3   9  201.34    6.24 
   0   3   9    2.99    0.34 
   0   3   9    2.57    0.31 
   1   3   9   42.01    1.68 
   1   3   9   44.12    1.66 
  -2  -3  -9    0.32    0.19 
   2   3   9    0.03    0.13 
   2   3   9    0.24    0.16 
  -3  -3  -9   28.96    1.21 
   3   3   9   31.22    1.39 
  -4  -3  -9   15.55    0.82 
   4   3   9   13.83    0.91 
   5   3   9    1.60    0.42 
   6   3   9    0.47    0.33 
  -7   4   9    0.05    0.46 
  -6   4   9    9.52    0.93 
  -5   4   9    0.63    0.30 
  -4   4   9    8.90    0.71 
  -3   4   9    4.71    0.36 
  -3   4   9    4.04    0.49 
  -2   4   9   58.01    2.00 
  -2   4   9   57.45    2.23 
  -1   4   9   21.59    1.06 
  -1   4   9   22.67    0.98 
   0   4   9   59.37    2.23 
   0   4   9   60.08    2.16 
   1   4   9    1.76    0.29 
   1   4   9    1.82    0.33 
  -2  -4  -9   74.47    2.64 
   2   4   9   74.62    2.70 
   2   4   9   71.49    2.65 
  -3  -4  -9   -0.01    0.21 
   3   4   9    0.11    0.16 
   4   4   9    5.64    0.66 
   5   4   9    2.86    0.55 
   6   4   9    9.32    0.93 
  -6   5   9    2.15    0.56 
  -5   5   9    4.36    0.64 
  -4   5   9    2.01    0.45 
  -3   5   9    5.18    0.57 
  -2   5   9   21.39    0.95 
  -2   5   9   20.56    1.06 
  -1   5   9   42.64    1.69 
  -1   5   9   44.84    1.79 
   0   5   9    8.87    0.61 
   0   5   9    9.24    0.60 
   1   5   9    8.29    0.55 
   1   5   9    7.84    0.61 
  -2  -5  -9    5.95    0.56 
   2   5   9    5.40    0.59 
  -3  -5  -9   17.20    0.98 
   3   5   9   17.93    1.06 
   4   5   9    0.19    0.25 
   5   5   9    0.97    0.37 
   6   5   9    1.05    0.36 
  -6   6   9    3.22    0.62 
  -5   6   9   -0.02    0.29 
  -4   6   9    0.31    0.30 
  -3   6   9    6.61    0.66 
  -2   6   9   17.90    0.97 
  -2   6   9   14.48    0.84 
  -1   6   9    1.09    0.27 
  -1   6   9    0.50    0.24 
   0   6   9    0.86    0.25 
   0   6   9    0.60    0.23 
   1   6   9   10.63    0.74 
   2   6   9   39.30    1.80 
   3   6   9    1.94    0.45 
   4   6   9    0.38    0.28 
   5   6   9    3.11    0.60 
  -5   7   9    0.53    0.33 
  -4   7   9    5.42    0.71 
  -3   7   9    1.76    0.42 
  -2   7   9    6.93    0.62 
  -2   7   9    7.60    0.68 
  -1   7   9    4.24    0.51 
  -1   7   9    3.63    0.49 
   0   7   9   21.47    1.16 
   1   7   9    7.01    0.72 
   2   7   9    3.33    0.56 
   3   7   9    1.45    0.43 
   4   7   9    3.31    0.61 
   5   7   9    1.27    0.39 
  -5   8   9    0.59    0.33 
  -4   8   9    0.59    0.36 
  -3   8   9    4.90    0.66 
  -2   8   9    0.31    0.27 
  -2   8   9    0.34    0.22 
  -1   8   9    0.02    0.18 
   0   8   9    0.33    0.24 
   1   8   9    4.64    0.64 
   2   8   9    0.36    0.29 
   3   8   9    0.37    0.29 
   4   8   9    0.47    0.25 
  -4   9   9    1.36    0.45 
  -3   9   9    0.34    0.35 
  -2   9   9    0.57    0.33 
  -1   9   9    0.46    0.31 
   0   9   9    1.97    0.49 
   1   9   9   -0.18    0.28 
   2   9   9    0.88    0.46 
   3   9   9    0.58    0.28 
  -2  10   9   -0.12    0.36 
  -1  10   9   -0.05    0.36 
   0  10   9    0.40    0.44 
   1  10   9    0.49    0.48 
   2  10 -10    0.77    0.34 
   1  10 -10    0.50    0.30 
   0  10 -10    0.12    0.22 
  -1  10 -10    0.17    0.44 
   3   9 -10   -0.29    0.26 
  -3  -9  10    0.51    0.39 
   2   9 -10    1.35    0.47 
   1   9 -10    3.16    0.60 
   0   9 -10    0.37    0.28 
  -1   9 -10   -0.13    0.34 
  -2   9 -10    1.10    0.50 
  -3   9 -10    1.05    0.62 
  -5  -8  10    0.72    0.39 
   4   8 -10    1.57    0.47 
  -4  -8  10    1.66    0.56 
   3   8 -10   -0.19    0.30 
  -3  -8  10   -0.22    0.41 
   2   8 -10    4.30    0.69 
   1   8 -10    2.23    0.50 
   0   8 -10    1.63    0.48 
  -1   8 -10    0.03    0.25 
  -2   8 -10    4.73    0.72 
  -3   8 -10    1.50    0.52 
  -4   8 -10    0.64    0.50 
  -5  -7  10    5.25    0.82 
   4   7 -10    4.51    0.65 
  -4  -7  10    3.72    0.74 
   3   7 -10    0.28    0.28 
  -3  -7  10    0.78    0.47 
   2   7 -10    0.48    0.30 
  -2  -7  10    0.35    0.38 
   1   7 -10    6.10    0.72 
   0   7 -10   18.09    1.14 
  -1   7 -10    2.54    0.49 
  -2   7 -10    0.06    0.24 
  -3   7 -10    6.30    0.79 
  -4   7 -10    2.04    0.57 
  -5   7 -10    0.15    0.46 
  -6  -6  10    0.50    0.39 
  -5  -6  10    0.14    0.36 
   4   6 -10    8.19    0.75 
  -4  -6  10    8.77    0.90 
   3   6 -10    3.95    0.56 
  -3  -6  10    5.55    0.72 
   2   6 -10    8.57    0.78 
  -2  -6  10   10.69    0.94 
   1   6 -10    0.80    0.28 
   0   6 -10    9.88    0.76 
  -1   6 -10   24.70    1.31 
  -2   6 -10   10.93    0.83 
  -3   6 -10    0.70    0.32 
  -4   6 -10    0.94    0.39 
  -5   6 -10    6.96    0.88 
  -6  -5  10    4.87    0.76 
  -5  -5  10    4.45    0.69 
  -4  -5  10   21.42    1.25 
   3   5 -10    0.85    0.27 
  -3  -5  10    0.97    0.36 
   2   5 -10    9.14    0.68 
  -2  -5  10    6.95    0.72 
  -2  -5  10    8.76    0.60 
   1   5 -10    0.66    0.27 
  -1  -5  10    0.94    0.38 
   0   5 -10   45.52    1.90 
  -1   5 -10    4.54    0.54 
  -2   5 -10    5.61    0.60 
  -3   5 -10    0.28    0.20 
  -4   5 -10   13.70    0.96 
  -5   5 -10    0.30    0.32 
  -6   5 -10    0.69    0.51 
  -7  -4  10    3.63    0.67 
  -6  -4  10    1.81    0.51 
  -5  -4  10    1.01    0.39 
  -4  -4  10    2.24    0.46 
   3   4 -10   18.72    0.98 
  -3  -4  10   21.21    1.01 
  -3  -4  10   20.77    1.10 
   2   4 -10    3.42    0.42 
  -2  -4  10    2.58    0.43 
  -2  -4  10    2.65    0.37 
   1   4 -10    0.03    0.12 
  -1  -4  10    0.25    0.18 
  -1  -4  10    0.06    0.25 
   0   4 -10    0.77    0.24 
  -1   4 -10   81.65    2.90 
  -2   4 -10    3.82    0.47 
  -3   4 -10    5.81    0.59 
  -4   4 -10    0.82    0.30 
  -5   4 -10   17.72    1.10 
  -6   4 -10    0.60    0.42 
  -7  -3  10    2.01    0.50 
  -6  -3  10    3.69    0.62 
  -5  -3  10    0.09    0.27 
  -4  -3  10   36.77    1.59 
  -4  -3  10   39.23    1.69 
   3   3 -10    4.35    0.40 
  -3  -3  10    3.92    0.46 
  -3  -3  10    4.03    0.42 
   2   3 -10    2.59    0.34 
  -2  -3  10    2.01    0.32 
  -2  -3  10    2.73    0.37 
   1   3 -10   34.60    1.37 
  -1  -3  10   32.84    1.44 
  -1  -3  10   33.23    1.41 
   0   3 -10    8.41    0.56 
   0  -3  10   11.31    0.69 
  -1   3 -10   14.04    0.75 
  -2   3 -10   59.75    2.20 
  -3   3 -10   18.42    0.98 
  -4   3 -10   45.82    1.92 
  -5   3 -10    0.26    0.23 
  -6   3 -10    4.08    0.63 
  -7  -2  10    6.52    0.80 
  -6  -2  10    2.90    0.55 
  -5  -2  10    1.11    0.30 
  -5  -2  10    0.76    0.32 
  -4  -2  10    8.60    0.62 
  -4  -2  10    8.48    0.64 
   3   2 -10   69.83    2.27 
  -3  -2  10   65.44    2.47 
  -3  -2  10   68.23    2.50 
   2   2 -10   58.87    2.03 
  -2  -2  10   56.98    2.17 
  -2  -2  10   59.33    2.12 
   1   2 -10    7.31    0.45 
  -1  -2  10    8.10    0.48 
  -1  -2  10    5.93    0.49 
   0   2 -10   50.95    1.80 
   0  -2  10   50.88    2.01 
  -1   2 -10   83.73    2.80 
   1  -2  10   82.35    3.09 
  -2   2 -10   66.73    2.38 
  -3   2 -10    1.18    0.27 
  -4   2 -10    4.04    0.52 
  -5   2 -10    9.96    0.83 
  -6   2 -10    6.17    0.72 
  -7  -1  10    0.73    0.39 
  -6  -1  10    1.33    0.39 
  -6  -1  10    1.66    0.41 
  -5  -1  10   32.21    1.47 
  -5  -1  10   30.40    1.49 
  -4  -1  10    4.28    0.48 
  -4  -1  10    3.31    0.46 
   3   1 -10   10.15    0.44 
  -3  -1  10    9.08    0.63 
  -3  -1  10   10.16    0.61 
   2   1 -10   11.22    0.52 
  -2  -1  10   11.11    0.66 
  -2  -1  10   10.67    0.57 
   1   1 -10  234.50    7.14 
  -1  -1  10  236.57    7.67 
  -1  -1  10  233.29    7.41 
   0   1 -10    2.92    0.28 
   0  -1  10    2.15    0.33 
  -1   1 -10   83.88    2.76 
   1  -1  10   81.58    3.03 
  -2   1 -10   91.18    3.08 
  -3   1 -10  107.27    3.63 
  -4   1 -10    6.96    0.62 
  -5   1 -10    2.74    0.44 
  -6   1 -10    1.22    0.40 
  -7   0  10    0.19    0.29 
  -7   0  10   -0.04    0.34 
  -6   0  10    4.94    0.60 
  -5   0  10    0.26    0.23 
  -4   0  10   45.75    1.89 
  -3   0  10    0.32    0.21 
   2   0 -10   75.94    2.42 
  -2   0  10   76.09    2.78 
  -2   0  10   79.74    2.63 
   1   0 -10    0.08    0.07 
  -1   0  10   -0.06    0.07 
  -1   0  10    0.25    0.16 
   0   0  10   94.75    3.34 
   0   0  10   91.35    3.01 
   0   0  10   99.64    3.12 
   1   0  10   -0.15    0.09 
   1   0  10    0.07    0.13 
   2   0  10   98.49    3.35 
   3   0  10   -0.08    0.13 
   4   0  10   26.01    1.30 
   5   0  10    0.41    0.27 
  -6   0 -10   14.60    0.97 
  -7   1  10    0.71    0.40 
  -6   1  10    1.49    0.38 
  -5   1  10   28.70    1.40 
  -4   1  10    3.00    0.43 
  -3   1  10    8.55    0.61 
  -2   1  10   10.62    0.47 
  -2   1  10   11.35    0.67 
  -1   1  10  240.38    7.31 
  -1   1  10  240.19    7.84 
   0   1  10    2.69    0.30 
   0   1  10    2.23    0.32 
   1   1  10   82.82    3.01 
   1   1  10   82.89    2.82 
  -2  -1 -10   84.60    2.70 
   2   1  10   81.67    3.09 
   2   1  10   84.16    2.92 
  -3  -1 -10   92.80    3.06 
   3   1  10   91.92    3.25 
   4   1  10    5.98    0.61 
   5   1  10    2.88    0.51 
   6   1  10    1.71    0.47 
  -7   2  10    6.57    0.86 
  -6   2  10    3.24    0.56 
  -5   2  10    1.01    0.31 
  -4   2  10    9.04    0.67 
  -3   2  10   54.05    2.13 
  -2   2  10   57.25    1.90 
  -2   2  10   59.87    2.25 
  -1   2  10    7.14    0.42 
  -1   2  10    7.31    0.52 
   0   2  10   52.35    1.93 
   0   2  10   58.03    2.10 
   1   2  10   87.23    3.12 
   1   2  10   86.70    2.96 
  -2  -2 -10   57.77    1.94 
   2   2  10   57.83    2.15 
   2   2  10   55.82    2.22 
  -3  -2 -10    1.20    0.23 
   3   2  10    1.42    0.31 
   4   2  10    2.01    0.42 
   5   2  10    9.40    0.83 
   6   2  10    4.88    0.69 
  -7   3  10    1.14    0.55 
  -6   3  10    5.42    0.72 
  -5   3  10    0.11    0.24 
  -4   3  10   37.30    1.69 
  -3   3  10    3.75    0.46 
  -2   3  10    1.70    0.22 
  -2   3  10    1.81    0.32 
  -1   3  10   30.55    1.18 
  -1   3  10   29.75    1.31 
   0   3  10    8.66    0.57 
   0   3  10    7.49    0.50 
   1   3  10   12.88    0.73 
   1   3  10   13.33    0.73 
  -2  -3 -10   55.48    1.97 
   2   3  10   55.87    2.13 
  -3  -3 -10   16.90    0.79 
   3   3  10   14.03    0.88 
   4   3  10   38.34    1.75 
   5   3  10    0.15    0.26 
   6   3  10    2.91    0.55 
  -7   4  10    2.89    0.75 
  -6   4  10    1.34    0.49 
  -5   4  10    0.60    0.31 
  -4   4  10    1.66    0.38 
  -3   4  10   19.78    1.07 
  -2   4  10    2.57    0.30 
  -2   4  10    2.53    0.40 
  -1   4  10    0.05    0.16 
  -1   4  10    0.20    0.14 
   0   4  10    0.92    0.23 
   0   4  10    0.22    0.17 
  -2  -4 -10    4.14    0.42 
   2   4  10    3.29    0.41 
   2   4  10    3.61    0.47 
   3   4  10    5.98    0.63 
   4   4  10    0.39    0.28 
   5   4  10   15.64    1.09 
   6   4  10    0.48    0.29 
  -6   5  10    4.71    0.78 
  -5   5  10    5.86    0.74 
  -4   5  10   22.87    1.28 
  -3   5  10    0.53    0.26 
  -2   5  10    8.32    0.55 
  -2   5  10    8.26    0.64 
  -1   5  10    1.12    0.27 
  -1   5  10    1.59    0.33 
   0   5  10   43.78    1.80 
   0   5  10   44.58    1.77 
   1   5  10    6.23    0.60 
   1   5  10    5.24    0.48 
   2   5  10    7.76    0.69 
   3   5  10    0.42    0.27 
   4   5  10   11.74    0.90 
   5   5  10    0.19    0.29 
   6   5  10    1.56    0.43 
  -6   6  10    0.47    0.30 
  -5   6  10    0.28    0.33 
  -4   6  10    8.97    0.83 
  -3   6  10    3.95    0.54 
  -2   6  10    8.62    0.68 
  -2   6  10    8.28    0.60 
  -1   6  10    0.56    0.26 
  -1   6  10    0.60    0.22 
   1   6  10   27.00    1.35 
   2   6  10   10.44    0.80 
   3   6  10    0.53    0.29 
   4   6  10    1.12    0.38 
   5   6  10    5.22    0.73 
  -5   7  10    4.62    0.72 
  -4   7  10    3.60    0.62 
  -3   7  10    0.51    0.31 
  -2   7  10    0.68    0.30 
  -2   7  10    0.60    0.24 
  -1   7  10    6.64    0.64 
  -1   7  10    6.71    0.65 
   0   7  10   14.74    0.92 
   1   7  10    2.07    0.44 
   2   7  10   -0.06    0.23 
   3   7  10    5.95    0.76 
   4   7  10    1.24    0.38 
   5   7  10   -0.05    0.27 
  -4   8  10    1.19    0.42 
  -3   8  10   -0.11    0.28 
  -2   8  10    4.01    0.54 
  -2   8  10    4.84    0.63 
  -1   8  10    2.78    0.49 
   0   8  10    1.34    0.34 
   1   8  10    0.17    0.24 
   2   8  10    3.36    0.61 
   3   8  10    1.20    0.39 
   4   8  10    1.08    0.39 
  -3   9  10   -0.12    0.31 
  -2   9  10    1.60    0.44 
  -1   9  10    2.19    0.49 
   0   9  10    0.31    0.29 
   1   9  10   -0.16    0.31 
   2   9  10    0.72    0.48 
   3   9  10    0.31    0.24 
  -1  10  10    0.03    0.40 
   0  10  10    0.31    0.43 
   1  10  10    0.27    0.46 
   1  10 -11    0.32    0.29 
   0  10 -11    0.18    0.26 
   3   9 -11    1.72    0.49 
  -3  -9  11    1.71    0.47 
   2   9 -11    2.26    0.53 
   1   9 -11    0.41    0.34 
   0   9 -11    1.13    0.37 
  -1   9 -11    2.08    0.60 
  -2   9 -11    2.23    0.63 
  -4  -8  11    1.11    0.45 
   3   8 -11    3.94    0.69 
  -3  -8  11    3.68    0.78 
   2   8 -11    1.54    0.47 
   1   8 -11    0.85    0.39 
   0   8 -11    1.25    0.41 
  -1   8 -11    6.40    0.80 
  -2   8 -11    0.22    0.36 
  -3   8 -11   -0.15    0.35 
  -4   8 -11   -0.18    0.41 
  -5  -7  11    1.22    0.49 
  -4  -7  11    0.33    0.41 
   3   7 -11    1.50    0.45 
  -3  -7  11    0.80    0.49 
   2   7 -11    3.77    0.62 
  -2  -7  11    6.03    0.85 
   1   7 -11    2.48    0.50 
   0   7 -11    2.47    0.49 
  -1   7 -11   -0.02    0.22 
  -2   7 -11    1.59    0.44 
  -3   7 -11    4.23    0.69 
  -4   7 -11    1.15    0.49 
  -6  -6  11    0.69    0.39 
  -5  -6  11    0.09    0.37 
  -4  -6  11    4.40    0.72 
   3   6 -11    6.42    0.67 
  -3  -6  11    7.01    0.82 
   2   6 -11   34.47    1.58 
  -2  -6  11   30.33    1.64 
   1   6 -11    3.66    0.54 
   0   6 -11    0.62    0.28 
  -1   6 -11    7.85    0.77 
  -2   6 -11    2.12    0.45 
  -3   6 -11    2.43    0.50 
  -4   6 -11    2.21    0.51 
  -5   6 -11    1.73    0.57 
  -6  -5  11    0.75    0.36 
  -5  -5  11    6.83    0.81 
  -4  -5  11    1.11    0.40 
   3   5 -11   -0.12    0.14 
  -3  -5  11   -0.02    0.24 
   2   5 -11   27.29    1.31 
  -2  -5  11   26.63    1.39 
  -2  -5  11   25.96    1.24 
   1   5 -11   29.95    1.42 
  -1  -5  11   31.43    1.56 
   0   5 -11    2.13    0.41 
  -1   5 -11    0.57    0.26 
  -2   5 -11    4.88    0.59 
  -3   5 -11   30.52    1.51 
  -4   5 -11    0.82    0.34 
  -5   5 -11    0.12    0.31 
  -7  -4  11   -0.67    0.27 
  -6  -4  11    2.07    0.52 
  -5  -4  11    0.65    0.34 
  -4  -4  11   16.72    1.03 
   3   4 -11    8.60    0.62 
  -3  -4  11    9.10    0.71 
  -3  -4  11    9.82    0.66 
   2   4 -11   29.17    1.26 
  -2  -4  11   25.53    1.23 
  -2  -4  11   24.81    1.27 
   1   4 -11    0.38    0.21 
  -1  -4  11    0.24    0.20 
  -1  -4  11    0.48    0.28 
   0   4 -11   14.06    0.81 
  -1   4 -11    0.57    0.23 
  -2   4 -11   19.42    1.03 
  -3   4 -11    0.10    0.20 
  -4   4 -11   21.28    1.19 
  -5   4 -11    1.25    0.40 
  -6   4 -11    5.87    0.81 
  -7  -3  11    0.87    0.39 
  -6  -3  11    2.19    0.51 
  -5  -3  11   19.95    1.18 
  -4  -3  11   48.00    1.97 
  -4  -3  11   49.27    2.03 
   3   3 -11    2.66    0.33 
  -3  -3  11    2.57    0.38 
  -3  -3  11    2.44    0.40 
   2   3 -11    4.02    0.41 
  -2  -3  11    3.44    0.41 
  -2  -3  11    3.77    0.43 
   1   3 -11  128.90    4.15 
  -1  -3  11  128.93    4.32 
  -1  -3  11  121.84    4.39 
   0   3 -11   40.91    1.62 
   0  -3  11   42.74    1.79 
  -1   3 -11    6.82    0.50 
  -2   3 -11    8.88    0.61 
  -3   3 -11   46.30    1.90 
  -4   3 -11    7.34    0.71 
  -5   3 -11    0.42    0.28 
  -6   3 -11    0.36    0.38 
  -7  -2  11    4.28    0.66 
  -6  -2  11    1.57    0.45 
  -5  -2  11    2.75    0.49 
  -5  -2  11    3.10    0.46 
  -4  -2  11    9.14    0.66 
  -4  -2  11    8.88    0.65 
   3   2 -11   26.15    1.07 
  -3  -2  11   27.73    1.23 
  -3  -2  11   28.54    1.27 
   2   2 -11    7.59    0.48 
  -2  -2  11    8.01    0.56 
  -2  -2  11    8.19    0.52 
   1   2 -11    0.11    0.11 
  -1  -2  11   -0.01    0.15 
  -1  -2  11    0.18    0.16 
   0   2 -11   52.20    1.89 
   0  -2  11   54.55    2.14 
  -1   2 -11   99.66    3.34 
   1  -2  11  101.43    3.69 
  -2   2 -11    1.58    0.30 
  -3   2 -11    1.10    0.29 
  -4   2 -11   23.82    1.21 
  -5   2 -11   27.37    1.41 
  -6   2 -11    4.21    0.66 
  -7  -1  11    0.03    0.28 
  -6  -1  11    2.93    0.54 
  -6  -1  11    3.92    0.54 
  -5  -1  11    4.79    0.58 
  -5  -1  11    4.09    0.52 
  -4  -1  11   13.39    0.80 
  -4  -1  11   14.25    0.84 
   3   1 -11    0.51    0.13 
  -3  -1  11    0.64    0.21 
  -3  -1  11    0.71    0.24 
   2   1 -11   77.33    2.47 
  -2  -1  11   78.08    2.60 
  -2  -1  11   70.62    2.74 
   1   1 -11   65.18    2.16 
  -1  -1  11   63.26    2.42 
  -1  -1  11   66.61    2.22 
   0   1 -11   63.87    2.17 
   0  -1  11   64.36    2.44 
  -1   1 -11   -0.02    0.11 
   1  -1  11    0.20    0.16 
  -2   1 -11   87.71    3.01 
  -3   1 -11    5.62    0.53 
  -4   1 -11   39.47    1.69 
  -5   1 -11   -0.16    0.17 
  -6   1 -11    9.67    0.88 
  -7   0  11   12.43    0.96 
  -7   0  11   10.40    0.98 
  -6   0  11   -0.01    0.28 
  -6   0  11    0.20    0.26 
  -5   0  11    0.32    0.23 
  -4   0  11    0.04    0.19 
  -3   0  11   39.67    1.67 
   2   0 -11    0.17    0.08 
  -2   0  11   -0.21    0.13 
  -2   0  11   -0.15    0.10 
   1   0 -11   42.41    1.48 
  -1   0  11   45.65    1.49 
  -1   0  11   40.26    1.70 
   0   0  11    0.06    0.11 
   0   0  11    0.12    0.14 
   1   0  11   45.62    1.97 
   1   0  11   52.56    1.86 
   2   0  11   -0.04    0.13 
   2   0  11   -0.11    0.14 
   3   0  11    2.16    0.38 
   4   0  11    0.29    0.22 
   5   0  11   30.60    1.55 
  -6   0 -11    0.02    0.28 
  -7   1  11    0.21    0.40 
  -6   1  11    3.11    0.53 
  -5   1  11    4.66    0.58 
  -4   1  11   13.86    0.87 
  -3   1  11    0.57    0.26 
  -2   1  11   79.94    2.81 
  -2   1  11   72.84    2.42 
  -1   1  11   62.94    2.16 
  -1   1  11   66.69    2.42 
   0   1  11   64.23    2.24 
   0   1  11   65.36    2.43 
   1   1  11    0.13    0.15 
   1   1  11    0.08    0.15 
  -2  -1 -11   75.34    2.44 
   2   1  11   77.88    2.72 
   2   1  11   74.08    2.88 
   3   1  11    5.45    0.56 
   4   1  11   32.07    1.50 
   5   1  11   -0.13    0.23 
   6   1  11    7.95    0.87 
  -7   2  11    5.41    0.80 
  -6   2  11    0.79    0.35 
  -5   2  11    2.88    0.48 
  -4   2  11    8.88    0.69 
  -3   2  11   28.00    1.33 
  -2   2  11    8.29    0.60 
  -2   2  11    8.45    0.44 
  -1   2  11    0.00    0.14 
  -1   2  11    0.15    0.12 
   0   2  11   51.54    2.01 
   0   2  11   52.36    1.87 
   1   2  11   94.96    3.38 
   1   2  11   92.76    3.19 
   2   2  11    1.98    0.36 
   2   2  11    1.98    0.35 
   3   2  11    0.70    0.25 
   4   2  11   21.08    1.17 
   5   2  11   22.08    1.27 
   6   2  11    2.84    0.56 
  -7   3  11   -0.29    0.42 
  -6   3  11    1.52    0.47 
  -5   3  11   18.69    1.14 
  -4   3  11   43.70    1.91 
  -3   3  11    1.96    0.38 
  -2   3  11    3.07    0.42 
  -2   3  11    3.56    0.31 
  -1   3  11  121.53    3.97 
  -1   3  11  126.18    4.31 
   0   3  11   37.23    1.58 
   0   3  11   38.22    1.48 
   1   3  11    8.11    0.55 
   1   3  11    6.24    0.52 
   2   3  11    8.37    0.62 
   2   3  11    8.28    0.62 
   3   3  11   44.42    1.88 
   4   3  11    6.29    0.70 
   5   3  11    0.30    0.28 
   6   3  11    0.56    0.35 
  -7   4  11    0.44    0.55 
  -6   4  11    2.24    0.54 
  -5   4  11    0.58    0.32 
  -4   4  11   15.61    0.99 
  -3   4  11    8.08    0.66 
  -2   4  11   28.45    1.34 
  -2   4  11   27.01    1.13 
  -1   4  11    0.36    0.18 
  -1   4  11    0.70    0.25 
   0   4  11   17.26    0.88 
   0   4  11   16.41    0.90 
   1   4  11    0.62    0.22 
   1   4  11    0.61    0.22 
   2   4  11   17.55    0.95 
   2   4  11   17.88    0.99 
   3   4  11    0.26    0.22 
   4   4  11   22.91    1.30 
   5   4  11    1.34    0.42 
   6   4  11    7.42    0.86 
  -6   5  11    0.61    0.48 
  -5   5  11    6.79    0.79 
  -4   5  11    1.24    0.37 
  -3   5  11    0.13    0.20 
  -2   5  11   26.70    1.14 
  -2   5  11   25.52    1.31 
  -1   5  11   29.73    1.30 
  -1   5  11   30.60    1.41 
   0   5  11    2.27    0.38 
   0   5  11    2.46    0.38 
   1   5  11    0.27    0.19 
   1   5  11    0.52    0.22 
   2   5  11    4.88    0.58 
   3   5  11   24.46    1.33 
   4   5  11    0.54    0.31 
   5   5  11    0.83    0.37 
  -6   6  11    0.99    0.37 
  -5   6  11    0.19    0.31 
  -4   6  11    3.29    0.57 
  -3   6  11    5.73    0.64 
  -2   6  11   29.65    1.50 
  -2   6  11   32.51    1.37 
  -1   6  11    3.95    0.47 
  -1   6  11    3.97    0.51 
   0   6  11    0.68    0.26 
   0   6  11    0.64    0.24 
   1   6  11    7.95    0.73 
   2   6  11    1.63    0.40 
   3   6  11    2.55    0.49 
   4   6  11    2.56    0.53 
   5   6  11    1.47    0.41 
  -5   7  11    0.75    0.33 
  -4   7  11    0.63    0.38 
  -3   7  11    1.40    0.42 
  -2   7  11    4.95    0.61 
  -2   7  11    3.44    0.48 
  -1   7  11    1.88    0.38 
  -1   7  11    1.90    0.42 
   0   7  11    3.71    0.53 
   1   7  11    0.06    0.21 
   2   7  11    0.73    0.32 
   3   7  11    4.17    0.64 
   4   7  11    1.20    0.38 
  -4   8  11    0.21    0.29 
  -3   8  11    2.83    0.56 
  -2   8  11    1.83    0.45 
  -2   8  11    0.95    0.33 
  -1   8  11    0.91    0.32 
   0   8  11    0.99    0.34 
   1   8  11    6.36    0.76 
   2   8  11    0.33    0.34 
   3   8  11    0.18    0.20 
   4   8  11    0.13    0.28 
  -1   9  11   -0.03    0.28 
   0   9  11    1.82    0.50 
   1   9  11    2.67    0.61 
   2   9  11    2.01    0.62 
  -1  10  11   -0.14    0.41 
   0  10  11   -0.15    0.43 
   3   9 -12    0.28    0.31 
  -3  -9  12    0.45    0.34 
   2   9 -12    0.61    0.35 
   1   9 -12    2.21    0.51 
   0   9 -12    0.20    0.24 
  -1   9 -12    0.84    0.34 
  -2   9 -12    0.08    0.48 
  -4  -8  12    1.92    0.51 
   3   8 -12   -0.09    0.30 
  -3  -8  12    0.69    0.49 
   2   8 -12    0.74    0.42 
   1   8 -12    1.72    0.46 
   0   8 -12    3.90    0.66 
  -1   8 -12   -0.05    0.22 
  -2   8 -12    2.06    0.53 
  -3   8 -12   -0.07    0.40 
  -5  -7  12    1.24    0.44 
  -4  -7  12    1.62    0.55 
   3   7 -12    0.75    0.35 
  -3  -7  12    0.58    0.44 
   2   7 -12    0.57    0.34 
  -2  -7  12    0.86    0.45 
   1   7 -12    4.78    0.67 
   0   7 -12    6.01    0.75 
  -1   7 -12    3.67    0.60 
  -2   7 -12    0.23    0.29 
  -3   7 -12    4.19    0.73 
  -4   7 -12    0.02    0.41 
  -6  -6  12    0.93    0.37 
  -5  -6  12    1.03    0.44 
  -4  -6  12    4.35    0.71 
   3   6 -12    4.51    0.59 
  -3  -6  12    4.24    0.69 
   2   6 -12    1.08    0.36 
  -2  -6  12    1.32    0.45 
   1   6 -12    0.59    0.27 
   0   6 -12    7.65    0.75 
  -1   6 -12   13.12    0.94 
  -2   6 -12    1.25    0.40 
  -3   6 -12   -0.05    0.25 
  -4   6 -12    4.66    0.72 
  -5   6 -12    4.57    0.82 
  -6  -5  12    3.64    0.65 
  -5  -5  12    2.07    0.52 
  -4  -5  12    3.28    0.59 
   3   5 -12    0.11    0.19 
  -3  -5  12    0.20    0.27 
   2   5 -12   35.91    1.59 
  -2  -5  12   33.76    1.65 
  -2  -5  12   35.69    1.57 
   1   5 -12    0.09    0.17 
  -1  -5  12   -0.07    0.19 
  -1  -5  12    0.12    0.30 
   0   5 -12   40.39    1.77 
  -1   5 -12    7.92    0.71 
  -2   5 -12    7.48    0.71 
  -3   5 -12    0.59    0.29 
  -4   5 -12    4.97    0.71 
  -5   5 -12    0.35    0.40 
  -6  -4  12    1.24    0.43 
  -5  -4  12    0.32    0.32 
  -4  -4  12    1.39    0.40 
   3   4 -12   11.11    0.73 
  -3  -4  12   14.36    0.83 
  -3  -4  12   13.52    0.85 
   2   4 -12   16.96    0.93 
  -2  -4  12   18.25    0.98 
  -2  -4  12   16.90    0.99 
   1   4 -12    7.44    0.58 
  -1  -4  12    8.57    0.71 
  -1  -4  12    7.46    0.61 
   0   4 -12    2.37    0.38 
   0  -4  12    2.08    0.40 
  -1   4 -12   45.93    1.87 
  -2   4 -12    4.10    0.51 
  -3   4 -12    0.90    0.28 
  -4   4 -12    1.21    0.38 
  -5   4 -12   11.06    0.98 
  -6   4 -12   -0.30    0.42 
  -7  -3  12    0.32    0.29 
  -6  -3  12    3.53    0.61 
  -5  -3  12    0.74    0.33 
  -4  -3  12    0.42    0.27 
  -4  -3  12    0.32    0.26 
   3   3 -12    8.49    0.57 
  -3  -3  12    9.35    0.65 
  -3  -3  12    9.31    0.67 
   2   3 -12   55.82    2.05 
  -2  -3  12   54.29    2.10 
  -2  -3  12   54.84    2.17 
   1   3 -12   34.53    1.40 
  -1  -3  12   32.15    1.51 
  -1  -3  12   35.88    1.47 
   0   3 -12    6.74    0.49 
   0  -3  12    6.59    0.62 
  -1   3 -12    0.19    0.15 
  -2   3 -12   46.73    1.87 
  -3   3 -12   13.34    0.84 
  -4   3 -12    2.63    0.47 
  -5   3 -12    0.22    0.28 
  -6   3 -12    6.72    0.83 
  -7  -2  12    3.74    0.61 
  -6  -2  12    2.16    0.50 
  -5  -2  12    0.95    0.30 
  -5  -2  12    0.80    0.32 
  -4  -2  12    6.73    0.61 
  -4  -2  12    6.81    0.60 
   3   2 -12   40.72    1.59 
  -3  -2  12   46.40    1.85 
  -3  -2  12   47.27    1.79 
   2   2 -12   22.75    1.11 
  -2  -2  12   31.99    1.34 
  -2  -2  12   32.72    1.24 
   1   2 -12    2.42    0.30 
  -1  -2  12    2.47    0.39 
   0   2 -12   28.91    1.19 
   0  -2  12   29.22    1.38 
  -1   2 -12   76.88    2.70 
   1  -2  12   79.01    3.02 
  -2   2 -12    9.78    0.64 
  -3   2 -12    1.93    0.37 
  -4   2 -12   12.16    0.84 
  -5   2 -12    3.05    0.54 
  -6   2 -12    3.06    0.62 
  -7  -1  12    0.58    0.35 
  -6  -1  12    0.44    0.30 
  -6  -1  12    0.36    0.29 
  -5  -1  12   37.04    1.65 
  -5  -1  12   33.79    1.62 
  -4  -1  12    1.57    0.35 
  -4  -1  12    0.86    0.29 
  -3  -1  12    0.75    0.22 
  -3  -1  12    0.63    0.25 
   2   1 -12   10.55    0.54 
  -2  -1  12   10.97    0.59 
  -2  -1  12   10.38    0.68 
   1   1 -12   58.56    2.00 
  -1  -1  12   58.13    2.03 
  -1  -1  12   59.75    2.28 
   0   1 -12    0.33    0.14 
   0  -1  12    0.69    0.23 
  -1   1 -12    1.41    0.25 
   1  -1  12    0.74    0.27 
  -2   1 -12   17.19    0.88 
  -3   1 -12   71.92    2.64 
  -4   1 -12    2.22    0.41 
  -5   1 -12    2.24    0.46 
  -6   1 -12    2.26    0.54 
  -7   0  12    0.50    0.33 
  -7   0  12   -0.08    0.37 
  -6   0  12    0.67    0.34 
  -6   0  12    0.51    0.32 
  -5   0  12    0.41    0.24 
  -5   0  12    0.00    0.22 
  -4   0  12   28.29    1.37 
  -3   0  12    0.14    0.17 
  -3   0  12    0.11    0.20 
   2   0 -12   47.01    1.57 
  -2   0  12   46.85    1.90 
   1   0 -12    0.08    0.10 
  -1   0  12    0.06    0.16 
  -1   0  12    0.25    0.11 
   0   0  12  101.81    3.66 
   0   0  12  103.13    3.40 
   1   0  12    0.18    0.18 
   1   0  12    0.09    0.16 
   2   0  12   40.28    1.81 
   2   0  12   39.23    1.64 
   3   0  12   -0.08    0.14 
   4   0  12   36.38    1.70 
  -5   0 -12    0.20    0.21 
  -6   0 -12    3.97    0.63 
  -7   1  12    0.21    0.42 
  -6   1  12   -0.42    0.24 
  -5   1  12   34.88    1.68 
  -4   1  12    1.56    0.37 
  -3   1  12    0.23    0.21 
  -2   1  12   10.73    0.71 
  -2   1  12   10.75    0.52 
  -1   1  12   57.15    1.94 
  -1   1  12   54.91    2.18 
   0   1  12    0.62    0.19 
   0   1  12    1.23    0.28 
   1   1  12    0.83    0.26 
   1   1  12    0.56    0.21 
   2   1  12   22.19    1.16 
   2   1  12   19.06    1.02 
   3   1  12   62.12    2.40 
   4   1  12    2.44    0.45 
   5   1  12    2.41    0.51 
   6   1  12    2.44    0.55 
  -7   2  12    3.40    0.71 
  -6   2  12    2.72    0.54 
  -5   2  12    0.53    0.29 
  -4   2  12    6.53    0.66 
  -3   2  12   46.18    1.96 
  -2   2  12   33.97    1.23 
  -2   2  12   32.72    1.49 
  -1   2  12    2.92    0.32 
  -1   2  12    2.43    0.37 
   0   2  12   28.54    1.18 
   0   2  12   27.09    1.27 
   1   2  12   75.44    2.83 
   1   2  12   74.78    2.67 
   2   2  12    9.58    0.69 
   2   2  12    7.96    0.61 
   3   2  12    1.60    0.33 
   4   2  12   10.53    0.81 
   5   2  12    2.77    0.53 
   6   2  12    2.12    0.52 
  -7   3  12   -0.14    0.46 
  -6   3  12    2.86    0.59 
  -5   3  12    0.79    0.32 
  -4   3  12    0.50    0.28 
  -3   3  12    9.23    0.72 
  -2   3  12   52.25    1.87 
  -2   3  12   56.67    2.21 
  -1   3  12   31.89    1.44 
  -1   3  12   31.31    1.26 
   0   3  12    6.94    0.50 
   0   3  12    7.21    0.56 
   1   3  12    0.40    0.19 
   1   3  12    0.16    0.16 
   2   3  12   43.36    1.91 
   2   3  12   47.27    1.88 
   3   3  12   12.37    0.85 
   4   3  12    1.96    0.45 
   5   3  12    0.15    0.29 
   6   3  12    6.86    0.81 
  -6   4  12    1.14    0.48 
  -5   4  12    0.35    0.28 
  -4   4  12    0.72    0.32 
  -3   4  12   14.77    0.94 
  -2   4  12   15.78    0.95 
  -2   4  12   16.57    0.78 
  -1   4  12    7.17    0.51 
  -1   4  12    7.21    0.62 
   0   4  12    2.44    0.39 
   0   4  12    2.56    0.38 
   1   4  12   47.24    1.93 
   1   4  12   45.73    1.87 
   2   4  12    4.56    0.54 
   2   4  12    5.12    0.54 
   3   4  12    0.75    0.28 
   4   4  12    1.31    0.40 
   5   4  12    9.44    0.94 
   6   4  12    0.27    0.29 
  -6   5  12    2.21    0.62 
  -5   5  12    2.04    0.49 
  -4   5  12    3.78    0.59 
  -3   5  12   -0.04    0.22 
  -2   5  12   35.67    1.63 
  -2   5  12   32.90    1.40 
  -1   5  12    0.10    0.17 
  -1   5  12    0.01    0.19 
   0   5  12   38.20    1.70 
   0   5  12   40.57    1.67 
   1   5  12    4.77    0.51 
   1   5  12    7.38    0.66 
   2   5  12    7.29    0.71 
   3   5  12    0.07    0.20 
   4   5  12    4.73    0.69 
   5   5  12    0.71    0.33 
  -6   6  12    1.12    0.39 
  -5   6  12    1.38    0.42 
  -4   6  12    4.42    0.65 
  -3   6  12    5.07    0.64 
  -2   6  12    1.10    0.27 
  -2   6  12    0.82    0.33 
  -1   6  12    0.70    0.28 
  -1   6  12    0.57    0.22 
   0   6  12    7.53    0.67 
   0   6  12    8.72    0.73 
   1   6  12   10.22    0.77 
   2   6  12   -0.06    0.17 
   3   6  12    0.12    0.25 
   4   6  12    3.78    0.63 
   5   6  12    4.10    0.69 
  -5   7  12    0.95    0.37 
  -4   7  12    1.04    0.40 
  -3   7  12    0.67    0.37 
  -2   7  12    1.38    0.33 
  -2   7  12    1.19    0.39 
  -1   7  12    5.33    0.59 
  -1   7  12    4.79    0.60 
   0   7  12    4.50    0.59 
   1   7  12    4.15    0.61 
   2   7  12    0.40    0.28 
   3   7  12    3.63    0.63 
   4   7  12    0.53    0.31 
  -4   8  12    1.89    0.46 
  -3   8  12    0.33    0.33 
  -2   8  12    0.65    0.36 
  -2   8  12    0.66    0.32 
  -1   8  12    1.24    0.35 
   0   8  12    3.53    0.59 
   1   8  12    0.39    0.33 
   2   8  12    2.00    0.53 
   3   8  12    0.06    0.39 
  -1   9  12    2.23    0.53 
   0   9  12    0.60    0.36 
   1   9  12    0.17    0.40 
   2   9  12    0.14    0.44 
   3   9 -13    1.11    0.41 
  -3  -9  13    0.65    0.38 
   2   9 -13    0.94    0.38 
   1   9 -13    0.48    0.30 
   0   9 -13    0.88    0.31 
  -1   9 -13    1.05    0.37 
  -2   9 -13   -0.07    0.45 
  -4  -8  13    0.38    0.39 
   3   8 -13    4.29    0.71 
  -3  -8  13    3.53    0.74 
   2   8 -13    1.96    0.51 
   1   8 -13    0.92    0.38 
   0   8 -13   -0.09    0.28 
  -1   8 -13    5.42    0.76 
  -2   8 -13    1.76    0.58 
  -3   8 -13    1.01    0.56 
  -5  -7  13    2.11    0.52 
  -4  -7  13    0.18    0.41 
   3   7 -13    0.16    0.32 
  -3  -7  13    0.22    0.39 
   2   7 -13   10.56    0.95 
  -2  -7  13    9.75    1.03 
   1   7 -13   -0.08    0.24 
   0   7 -13    0.46    0.32 
  -1   7 -13    1.38    0.42 
  -2   7 -13    4.51    0.72 
  -3   7 -13    2.85    0.66 
  -4   7 -13    0.18    0.42 
  -5  -6  13    3.01    0.60 
  -4  -6  13    2.03    0.56 
   3   6 -13    1.52    0.40 
  -3  -6  13    1.96    0.54 
   2   6 -13    1.46    0.37 
  -2  -6  13    2.49    0.57 
   1   6 -13    3.25    0.54 
   0   6 -13    9.70    0.86 
  -1   6 -13    1.90    0.45 
  -2   6 -13    5.68    0.72 
  -3   6 -13    2.47    0.54 
  -4   6 -13    2.26    0.60 
  -5   6 -13    0.27    0.51 
  -6  -5  13    1.26    0.44 
  -5  -5  13    4.39    0.70 
  -4  -5  13    2.20    0.53 
   3   5 -13    0.36    0.24 
  -3  -5  13    0.90    0.39 
   2   5 -13    4.77    0.57 
  -2  -5  13    5.71    0.60 
  -2  -5  13    4.98    0.65 
   1   5 -13    7.02    0.67 
  -1  -5  13    7.75    0.70 
  -1  -5  13    6.79    0.72 
   0   5 -13    1.40    0.37 
  -1   5 -13   15.91    0.97 
  -2   5 -13    0.25    0.22 
  -3   5 -13   26.36    1.42 
  -4   5 -13   -0.08    0.28 
  -5   5 -13    0.07    0.42 
  -6  -4  13    1.34    0.43 
  -5  -4  13    0.69    0.39 
  -4  -4  13    8.12    0.77 
   3   4 -13    1.41    0.32 
  -3  -4  13    0.81    0.31 
  -3  -4  13    1.26    0.33 
   2   4 -13    8.51    0.62 
  -2  -4  13    9.02    0.69 
  -2  -4  13    8.64    0.70 
   1   4 -13    0.10    0.18 
  -1  -4  13    0.37    0.23 
  -1  -4  13    0.51    0.31 
   0   4 -13   37.96    1.63 
   0  -4  13   38.79    1.78 
  -1   4 -13    1.75    0.35 
  -2   4 -13    3.42    0.48 
  -3   4 -13    0.08    0.22 
  -4   4 -13   10.27    0.91 
  -5   4 -13    0.74    0.41 
  -7  -3  13    0.72    0.33 
  -6  -3  13    0.61    0.36 
  -5  -3  13    9.76    0.86 
  -4  -3  13    1.10    0.35 
  -4  -3  13    0.65    0.26 
   3   3 -13    2.66    0.36 
  -3  -3  13    3.09    0.45 
  -3  -3  13    3.00    0.45 
   2   3 -13    0.44    0.20 
  -2  -3  13    1.41    0.33 
  -2  -3  13    0.55    0.26 
   1   3 -13   40.34    1.65 
  -1  -3  13   42.37    1.73 
  -1  -3  13   44.53    1.86 
   0   3 -13    5.84    0.51 
   0  -3  13    4.94    0.58 
  -1   3 -13   10.77    0.68 
  -2   3 -13   10.39    0.71 
  -3   3 -13   25.52    1.30 
  -4   3 -13    5.85    0.69 
  -5   3 -13    0.83    0.39 
  -6   3 -13    1.13    0.52 
  -7  -2  13    3.13    0.57 
  -6  -2  13    0.45    0.34 
  -5  -2  13    0.47    0.29 
  -5  -2  13   -0.02    0.21 
  -4  -2  13   11.52    0.78 
  -4  -2  13   12.18    0.80 
   3   2 -13   18.36    0.85 
  -3  -2  13   20.19    0.97 
  -3  -2  13   17.21    1.00 
   2   2 -13    0.28    0.12 
  -2  -2  13    1.29    0.28 
  -2  -2  13    0.52    0.26 
   1   2 -13    0.13    0.13 
  -1  -2  13   -0.11    0.18 
  -1  -2  13    0.15    0.18 
   0   2 -13   36.85    1.46 
   0  -2  13   37.58    1.69 
  -1   2 -13   20.90    0.99 
   1  -2  13   19.84    1.16 
  -2   2 -13    1.73    0.33 
  -3   2 -13    0.24    0.21 
  -4   2 -13   11.97    0.84 
  -5   2 -13   11.07    0.95 
  -6   2 -13    0.32    0.41 
  -7  -1  13    1.28    0.39 
  -6  -1  13    4.17    0.60 
  -6  -1  13    4.12    0.60 
  -5  -1  13    3.52    0.52 
  -5  -1  13    4.51    0.57 
  -4  -1  13    0.34    0.26 
  -4  -1  13    0.41    0.24 
  -3  -1  13    2.90    0.43 
  -3  -1  13    4.21    0.42 
   2   1 -13   58.16    1.92 
  -2  -1  13   55.09    2.00 
  -2  -1  13   53.46    2.19 
   1   1 -13    6.89    0.43 
  -1  -1  13    7.30    0.43 
  -1  -1  13    6.36    0.59 
   0   1 -13    9.03    0.55 
   0  -1  13   10.44    0.72 
  -1   1 -13   -0.06    0.11 
   1  -1  13    0.03    0.17 
  -2   1 -13  101.09    3.46 
  -3   1 -13    2.48    0.42 
  -4   1 -13    3.31    0.49 
  -5   1 -13    0.46    0.27 
  -6   1 -13    8.70    0.91 
  -7   0  13    5.69    0.74 
  -7   0  13    7.13    0.86 
  -6   0  13   -0.27    0.26 
  -6   0  13   -0.15    0.25 
  -5   0  13    0.08    0.25 
  -5   0  13    0.18    0.23 
  -4   0  13    0.21    0.22 
  -4   0  13   -0.07    0.21 
  -3   0  13   66.43    2.55 
  -3   0  13   63.77    2.35 
   2   0 -13    0.12    0.10 
  -2   0  13   -0.11    0.16 
  -2   0  13    0.02    0.10 
   1   0 -13   24.66    0.97 
  -1   0  13   23.88    1.19 
  -1   0  13   25.11    0.93 
   0   0  13    0.42    0.21 
   0   0  13    0.15    0.16 
   1   0  13  106.23    3.85 
   1   0  13  102.00    3.53 
   2   0  13   -0.08    0.16 
   2   0  13   -0.08    0.17 
   3   0  13    9.11    0.71 
   4   0  13   -0.18    0.21 
  -5   0 -13   20.38    1.17 
  -6   0 -13   -0.26    0.30 
  -7   1  13    0.63    0.50 
  -6   1  13    5.11    0.70 
  -5   1  13    3.87    0.58 
  -4   1  13    0.33    0.26 
  -3   1  13    3.81    0.51 
  -2   1  13   53.95    2.18 
  -1   1  13    6.07    0.44 
  -1   1  13    7.36    0.36 
  -1   1  13    6.69    0.55 
   0   1  13   10.48    0.70 
   0   1  13    9.21    0.58 
   1   1  13    0.03    0.16 
   1   1  13    0.01    0.17 
   2   1  13   94.83    3.59 
   2   1  13   95.17    3.34 
   3   1  13    2.07    0.40 
   4   1  13    2.87    0.50 
   5   1  13    0.88    0.37 
   6   1  13    9.08    0.94 
  -7   2  13    1.83    0.61 
  -6   2  13    0.31    0.35 
  -5   2  13   -0.02    0.25 
  -4   2  13   12.16    0.85 
  -3   2  13   19.09    1.08 
  -2   2  13    0.63    0.27 
  -2   2  13    1.07    0.20 
  -1   2  13    0.01    0.14 
  -1   2  13    0.26    0.19 
   0   2  13   39.29    1.53 
   0   2  13   37.74    1.66 
   1   2  13   15.84    0.87 
   1   2  13   17.53    0.97 
   2   2  13    1.52    0.32 
   2   2  13    2.57    0.44 
   3   2  13   -0.16    0.13 
   4   2  13   11.01    0.83 
   5   2  13   10.01    0.91 
   6   2  13    0.61    0.32 
  -7   3  13    0.62    0.58 
  -6   3  13    0.48    0.38 
  -5   3  13    8.77    0.84 
  -4   3  13    0.83    0.31 
  -3   3  13    2.81    0.48 
  -2   3  13    0.48    0.27 
  -2   3  13    0.40    0.17 
  -1   3  13   41.82    1.57 
  -1   3  13   39.79    1.76 
   0   3  13    6.29    0.52 
   0   3  13    5.58    0.54 
   1   3  13   10.83    0.74 
   1   3  13   10.57    0.70 
   2   3  13   10.02    0.73 
   2   3  13   10.72    0.77 
   3   3  13   20.79    1.17 
   4   3  13    4.35    0.62 
   5   3  13    1.30    0.40 
   6   3  13    1.63    0.40 
  -6   4  13    1.82    0.55 
  -5   4  13    0.24    0.31 
  -4   4  13    8.22    0.80 
  -3   4  13    0.78    0.32 
  -2   4  13    8.50    0.73 
  -2   4  13    8.13    0.53 
  -1   4  13   -0.12    0.17 
  -1   4  13    0.08    0.15 
   0   4  13   36.56    1.65 
   0   4  13   37.25    1.54 
   1   4  13    1.40    0.32 
   1   4  13    1.79    0.35 
   2   4  13    4.22    0.56 
   3   4  13    0.40    0.27 
   4   4  13   10.93    0.98 
   5   4  13    0.87    0.34 
  -6   5  13    0.56    0.47 
  -5   5  13    3.68    0.60 
  -4   5  13    2.17    0.48 
  -3   5  13    0.22    0.25 
  -2   5  13    4.55    0.47 
  -2   5  13    6.34    0.65 
  -1   5  13    6.71    0.58 
  -1   5  13    6.04    0.63 
   0   5  13    2.02    0.40 
   0   5  13    1.48    0.32 
   2   5  13    0.17    0.19 
   3   5  13   21.00    1.25 
   4   5  13    0.33    0.30 
   5   5  13    0.55    0.29 
  -5   6  13    3.94    0.66 
  -4   6  13    2.34    0.52 
  -3   6  13    2.23    0.48 
  -2   6  13    2.62    0.49 
  -2   6  13    2.22    0.38 
  -1   6  13    3.20    0.47 
  -1   6  13    3.31    0.52 
   0   6  13    8.58    0.71 
   0   6  13    9.15    0.70 
   1   6  13    2.31    0.43 
   2   6  13    5.13    0.67 
   3   6  13    3.11    0.59 
   4   6  13    1.85    0.46 
   5   6  13    0.50    0.27 
  -5   7  13    0.92    0.38 
  -4   7  13    0.41    0.32 
  -3   7  13   -0.10    0.28 
  -2   7  13    7.54    0.79 
  -2   7  13    9.31    0.70 
  -1   7  13    0.04    0.24 
  -1   7  13    0.23    0.20 
   0   7  13   -0.10    0.19 
   1   7  13    0.92    0.35 
   2   7  13    3.89    0.63 
   3   7  13    2.40    0.57 
   4   7  13    0.56    0.28 
  -4   8  13    0.44    0.33 
  -3   8  13    3.07    0.60 
  -2   8  13    2.10    0.53 
  -1   8  13    1.54    0.41 
   0   8  13   -0.11    0.26 
   1   8  13    4.71    0.72 
   2   8  13    0.85    0.43 
   3   8  13    1.19    0.57 
  -1   9  13    0.07    0.33 
   0   9  13    0.47    0.41 
   1   9  13    0.76    0.50 
   2   9  13    0.06    0.44 
   2   9 -14    0.99    0.39 
   1   9 -14    1.86    0.44 
   0   9 -14    0.56    0.33 
  -1   9 -14    0.48    0.32 
  -4  -8  14    0.92    0.43 
   3   8 -14    1.22    0.41 
  -3  -8  14    1.01    0.50 
   2   8 -14    0.13    0.34 
   1   8 -14    0.36    0.29 
   0   8 -14    5.39    0.76 
  -1   8 -14    2.27    0.51 
  -2   8 -14    0.34    0.43 
  -3   8 -14    0.46    0.51 
  -5  -7  14    0.37    0.36 
  -4  -7  14    0.56    0.42 
   3   7 -14    4.26    0.66 
  -3  -7  14    4.02    0.75 
   2   7 -14    1.58    0.45 
  -2  -7  14    0.84    0.47 
   1   7 -14    2.17    0.51 
   0   7 -14    2.42    0.51 
  -1   7 -14    3.44    0.60 
  -2   7 -14    0.71    0.39 
  -3   7 -14    1.99    0.63 
  -4   7 -14    0.49    0.56 
  -5  -6  14    1.01    0.42 
  -4  -6  14    1.95    0.55 
   3   6 -14    2.14    0.45 
  -3  -6  14    1.05    0.50 
   2   6 -14    3.08    0.52 
  -2  -6  14    2.43    0.58 
   1   6 -14    0.21    0.25 
   0   6 -14    6.71    0.75 
  -1   6 -14    1.55    0.43 
  -2   6 -14    0.88    0.35 
  -3   6 -14    0.63    0.36 
  -4   6 -14    0.71    0.47 
  -6  -5  14    1.55    0.46 
  -5  -5  14   -0.14    0.32 
  -4  -5  14   -0.16    0.30 
   3   5 -14    4.14    0.54 
  -3  -5  14    4.19    0.63 
   2   5 -14   13.21    0.85 
  -2  -5  14   11.93    0.90 
  -2  -5  14   10.93    0.82 
   1   5 -14    1.09    0.33 
  -1  -5  14    0.73    0.30 
  -1  -5  14    0.26    0.30 
   0   5 -14    0.00    0.22 
  -1   5 -14    5.09    0.62 
  -2   5 -14   13.78    0.95 
  -3   5 -14    4.86    0.69 
  -4   5 -14    0.02    0.32 
  -5   5 -14   -0.09    0.42 
  -6  -4  14    0.75    0.37 
  -5  -4  14    3.57    0.64 
  -4  -4  14    0.12    0.28 
  -3  -4  14   42.50    1.84 
  -3  -4  14   40.39    1.80 
   2   4 -14    9.99    0.71 
  -2  -4  14   10.92    0.80 
  -2  -4  14   12.56    0.82 
   1   4 -14    3.44    0.48 
  -1  -4  14    3.61    0.52 
  -1  -4  14    4.56    0.57 
   0   4 -14    1.03    0.29 
   0  -4  14    0.30    0.24 
  -1   4 -14   18.37    1.03 
  -2   4 -14    2.18    0.41 
  -3   4 -14   12.19    0.88 
  -4   4 -14    1.24    0.41 
  -5   4 -14    6.06    0.83 
  -6  -3  14    4.65    0.69 
  -5  -3  14    0.58    0.35 
  -4  -3  14    1.32    0.38 
  -4  -3  14    1.90    0.37 
   3   3 -14    0.91    0.25 
  -3  -3  14    0.76    0.27 
  -3  -3  14   -0.08    0.23 
   2   3 -14   26.35    1.16 
  -2  -3  14   23.09    1.22 
  -2  -3  14   23.93    1.16 
   1   3 -14    7.36    0.55 
  -1  -3  14    7.31    0.68 
  -1  -3  14    7.77    0.63 
   0   3 -14   -0.04    0.13 
   0  -3  14   -0.03    0.19 
  -1   3 -14    0.16    0.17 
  -2   3 -14   33.45    1.52 
  -3   3 -14    3.39    0.53 
  -4   3 -14   -0.07    0.21 
  -5   3 -14    1.13    0.46 
  -7  -2  14    0.68    0.36 
  -6  -2  14    0.17    0.30 
  -5  -2  14    6.68    0.68 
  -5  -2  14    5.18    0.62 
  -4  -2  14   15.16    0.93 
  -4  -2  14   17.06    1.00 
  -3  -2  14   10.77    0.73 
  -3  -2  14    8.39    0.62 
  -2  -2  14    3.70    0.40 
  -2  -2  14    3.36    0.47 
   1   2 -14    3.20    0.36 
  -1  -2  14    3.63    0.49 
  -1  -2  14    3.90    0.41 
   0   2 -14   28.27    1.20 
   0  -2  14   26.42    1.37 
  -1   2 -14    6.11    0.54 
   1  -2  14    6.70    0.71 
  -2   2 -14   11.05    0.73 
  -3   2 -14    7.02    0.67 
  -4   2 -14   20.06    1.17 
  -5   2 -14    7.43    0.83 
  -6   2 -14    0.67    0.49 
  -7  -1  14    0.45    0.35 
  -6  -1  14    1.36    0.43 
  -6  -1  14    1.43    0.44 
  -5  -1  14    7.26    0.70 
  -5  -1  14    8.06    0.76 
  -4  -1  14    0.28    0.22 
  -4  -1  14    0.13    0.21 
  -3  -1  14    6.22    0.61 
  -3  -1  14    6.04    0.51 
   2   1 -14    0.17    0.13 
  -2  -1  14    0.28    0.21 
  -2  -1  14   -0.03    0.08 
   1   1 -14   41.94    1.55 
  -1  -1  14   42.84    1.83 
  -1  -1  14   42.08    1.55 
   0   1 -14    0.45    0.17 
   0  -1  14    0.32    0.24 
  -1   1 -14   18.18    0.90 
   1  -1  14   18.33    1.11 
  -2   1 -14    0.22    0.16 
  -3   1 -14   17.37    0.98 
  -4   1 -14    0.28    0.23 
  -5   1 -14    3.25    0.54 
  -6   1 -14    1.20    0.52 
  -7   0  14    0.05    0.43 
  -7   0  14    0.31    0.30 
  -6   0  14    0.19    0.29 
  -6   0  14   -0.13    0.29 
  -5   0  14    0.00    0.25 
  -5   0  14   -0.02    0.23 
  -4   0  14   16.87    0.93 
  -4   0  14   17.09    1.04 
  -3   0  14    0.01    0.15 
  -3   0  14    0.08    0.21 
   2   0 -14    0.88    0.17 
  -2   0  14    0.86    0.20 
  -2   0  14    0.60    0.24 
   1   0 -14    0.05    0.10 
  -1   0  14    0.02    0.12 
  -1   0  14   -0.02    0.17 
   0   0  14   98.68    3.70 
   0   0  14  103.43    3.42 
   1   0  14   -0.16    0.11 
   1   0  14   -0.14    0.15 
   2   0  14    6.60    0.72 
   2   0  14    6.36    0.62 
   3   0  14    0.02    0.20 
   4   0  14   25.11    1.36 
  -5   0 -14   -0.32    0.22 
  -6   0 -14    0.12    0.37 
  -7   1  14    0.04    0.47 
  -7   1  14    0.38    0.36 
  -6   1  14    1.88    0.50 
  -5   1  14    7.45    0.77 
  -4   1  14    0.37    0.23 
  -3   1  14    7.49    0.69 
   2  -1 -14    0.13    0.11 
  -2   1  14   -0.07    0.18 
  -1   1  14   41.34    1.39 
  -1   1  14   41.40    1.54 
  -1   1  14   37.31    1.71 
   0   1  14    0.40    0.18 
   0   1  14    0.63    0.25 
   1   1  14   20.24    0.98 
   1   1  14   17.20    1.05 
   2   1  14    0.27    0.22 
   2   1  14    0.38    0.19 
   3   1  14   14.65    0.93 
   4   1  14    0.06    0.24 
   5   1  14    4.82    0.70 
   6   1  14    1.66    0.41 
  -7   2  14    0.44    0.49 
  -6   2  14   -0.16    0.32 
  -5   2  14    7.01    0.77 
  -4   2  14   18.08    1.11 
  -3   2  14   10.69    0.80 
  -2   2  14    3.12    0.47 
  -2   2  14    3.60    0.33 
  -1   2  14    4.23    0.41 
  -1   2  14    3.35    0.48 
   0   2  14   25.13    1.24 
   0   2  14   23.19    1.09 
   1   2  14    5.57    0.59 
   1   2  14    5.50    0.54 
   2   2  14    9.68    0.76 
   2   2  14   10.16    0.72 
   3   2  14    7.81    0.74 
   4   2  14   14.86    1.00 
   5   2  14    7.26    0.83 
   6   2  14    1.62    0.43 
  -6   3  14    4.71    0.76 
  -5   3  14    0.85    0.36 
  -4   3  14    0.97    0.36 
  -3   3  14    0.70    0.32 
  -2   3  14   21.64    1.18 
  -2   3  14   22.00    0.95 
  -1   3  14    7.62    0.52 
  -1   3  14    7.24    0.66 
   0   3  14   -0.03    0.16 
   0   3  14    0.02    0.15 
   1   3  14    0.06    0.18 
   1   3  14    0.05    0.14 
   2   3  14   27.56    1.46 
   2   3  14   30.69    1.43 
   3   3  14    1.81    0.43 
   4   3  14   -0.22    0.21 
   5   3  14    1.37    0.38 
  -6   4  14    0.54    0.47 
  -5   4  14    3.98    0.67 
  -4   4  14    0.59    0.35 
  -3   4  14   39.24    1.85 
  -2   4  14   10.37    0.78 
  -2   4  14   11.53    0.65 
  -1   4  14    3.01    0.39 
  -1   4  14    2.83    0.47 
   0   4  14    0.90    0.28 
   0   4  14    0.85    0.26 
   1   4  14   15.92    0.94 
   1   4  14   16.27    0.98 
   2   4  14    3.31    0.51 
   2   4  14    3.16    0.50 
   3   4  14    9.33    0.86 
   4   4  14    1.10    0.38 
   5   4  14    6.98    0.86 
  -6   5  14    0.85    0.55 
  -5   5  14    0.23    0.32 
  -4   5  14    0.46    0.34 
  -3   5  14    3.54    0.58 
  -2   5  14   12.00    0.72 
  -2   5  14   12.63    0.90 
  -1   5  14    0.52    0.22 
  -1   5  14    1.03    0.33 
   0   5  14    0.41    0.26 
   0   5  14    0.86    0.29 
   1   5  14    4.06    0.52 
   1   5  14    3.89    0.53 
   2   5  14   11.03    0.83 
   3   5  14    4.71    0.67 
   4   5  14    0.29    0.29 
   5   5  14    0.13    0.26 
  -5   6  14    1.30    0.42 
  -4   6  14    1.90    0.50 
  -3   6  14    2.94    0.57 
  -2   6  14    2.67    0.51 
  -2   6  14    2.71    0.43 
  -1   6  14    0.21    0.20 
  -1   6  14    0.31    0.28 
   0   6  14    6.85    0.67 
   0   6  14    8.30    0.75 
   1   6  14    1.78    0.38 
   2   6  14    0.33    0.26 
   3   6  14    0.60    0.35 
   4   6  14    1.08    0.36 
  -5   7  14    0.02    0.30 
  -4   7  14    0.10    0.31 
  -3   7  14    3.48    0.62 
  -2   7  14    1.66    0.47 
  -1   7  14    1.45    0.43 
  -1   7  14    2.13    0.43 
   0   7  14    2.46    0.48 
   1   7  14    2.75    0.53 
   2   7  14   -0.07    0.27 
   3   7  14    1.08    0.48 
   4   7  14    0.42    0.26 
  -4   8  14    1.45    0.42 
  -3   8  14    0.92    0.40 
  -1   8  14    0.29    0.31 
   0   8  14    5.88    0.76 
   1   8  14    1.48    0.47 
   2   8  14    0.04    0.35 
   3   8  14   -0.38    0.40 
  -1   9  14    1.24    0.47 
   0   9  14   -0.22    0.39 
   1   9  14    0.42    0.49 
   2   9 -15    1.00    0.39 
   1   9 -15    0.23    0.30 
   0   9 -15   -0.16    0.21 
  -1   9 -15    0.31    0.26 
   3   8 -15    0.33    0.36 
  -3  -8  15    0.71    0.44 
   2   8 -15    1.34    0.45 
   1   8 -15    1.42    0.43 
   0   8 -15   -0.07    0.23 
  -1   8 -15    0.49    0.29 
  -2   8 -15    0.21    0.50 
  -4  -7  15    0.68    0.38 
   3   7 -15    0.10    0.32 
  -3  -7  15    0.59    0.42 
   2   7 -15    3.79    0.65 
  -2  -7  15    3.83    0.70 
   1   7 -15    2.59    0.54 
   0   7 -15    1.24    0.42 
  -1   7 -15    0.27    0.29 
  -2   7 -15    3.26    0.65 
  -3   7 -15    0.15    0.44 
  -5  -6  15    1.58    0.50 
  -4  -6  15    2.20    0.59 
   3   6 -15    0.07    0.26 
  -3  -6  15   -0.04    0.34 
   2   6 -15    0.38    0.28 
  -2  -6  15    0.15    0.38 
   1   6 -15    1.65    0.42 
   0   6 -15   15.71    1.07 
  -1   6 -15   -0.04    0.23 
  -2   6 -15    2.26    0.54 
  -3   6 -15    0.47    0.37 
  -4   6 -15    3.73    0.73 
  -6  -5  15    0.79    0.38 
  -5  -5  15    1.78    0.50 
  -4  -5  15    2.12    0.53 
   3   5 -15    1.52    0.36 
  -3  -5  15    0.92    0.38 
   2   5 -15    2.38    0.43 
  -2  -5  15    2.61    0.47 
  -2  -5  15    1.81    0.47 
   1   5 -15    5.89    0.65 
  -1  -5  15    6.60    0.71 
   0   5 -15    1.95    0.43 
  -1   5 -15    2.82    0.50 
  -2   5 -15    0.11    0.25 
  -3   5 -15    1.40    0.45 
  -4   5 -15    3.50    0.68 
  -5   5 -15    2.21    0.72 
  -6  -4  15    0.06    0.32 
  -5  -4  15    1.09    0.45 
  -4  -4  15    6.35    0.71 
  -3  -4  15    2.08    0.40 
  -3  -4  15    2.43    0.46 
   2   4 -15    6.09    0.60 
  -2  -4  15    5.82    0.64 
  -2  -4  15    6.79    0.68 
   1   4 -15   -0.10    0.18 
  -1  -4  15    0.17    0.26 
  -1  -4  15    0.36    0.27 
   0   4 -15   39.66    1.72 
   0  -4  15   40.66    1.92 
  -1   4 -15    4.09    0.54 
  -2   4 -15    0.01    0.22 
  -3   4 -15    0.18    0.29 
  -4   4 -15    8.33    0.88 
  -5   4 -15    0.51    0.48 
  -6  -3  15    0.72    0.36 
  -5  -3  15    0.69    0.39 
  -4  -3  15    0.73    0.28 
  -4  -3  15    0.57    0.29 
  -3  -3  15   15.44    0.96 
  -3  -3  15   16.02    0.93 
   2   3 -15    0.14    0.17 
  -2  -3  15    0.01    0.23 
  -2  -3  15    0.35    0.23 
   1   3 -15   12.96    0.78 
  -1  -3  15   15.71    0.96 
   0   3 -15    0.36    0.18 
   0  -3  15    0.22    0.23 
  -1   3 -15   10.27    0.70 
  -2   3 -15   11.71    0.81 
  -3   3 -15    5.50    0.66 
  -4   3 -15    0.70    0.35 
  -5   3 -15    4.56    0.75 
  -7  -2  15    0.01    0.28 
  -6  -2  15   -0.04    0.28 
  -5  -2  15    1.54    0.38 
  -5  -2  15    0.79    0.34 
  -4  -2  15    1.62    0.38 
  -4  -2  15    1.51    0.38 
  -3  -2  15    3.58    0.49 
  -3  -2  15    3.75    0.45 
  -2  -2  15    0.72    0.24 
  -2  -2  15    0.53    0.23 
   1   2 -15   22.54    1.02 
  -1  -2  15   22.80    1.04 
  -1  -2  15   20.91    1.17 
   0   2 -15    9.72    0.63 
   0  -2  15   10.50    0.80 
  -1   2 -15   28.77    1.27 
   1  -2  15   26.53    1.47 
  -2   2 -15    2.12    0.40 
  -3   2 -15    7.05    0.69 
  -4   2 -15   10.17    0.90 
  -5   2 -15    1.93    0.54 
  -7  -1  15    0.94    0.33 
  -6  -1  15    3.06    0.58 
  -6  -1  15    3.12    0.56 
  -5  -1  15   -0.39    0.21 
  -5  -1  15    0.06    0.24 
  -4  -1  15    0.07    0.20 
  -4  -1  15   -0.06    0.20 
  -3  -1  15    9.62    0.72 
  -3  -1  15    8.58    0.58 
   2   1 -15   23.76    0.98 
  -2  -1  15   22.92    1.21 
  -2  -1  15   23.27    1.02 
   1   1 -15   14.51    0.73 
  -1  -1  15   13.99    0.89 
  -1  -1  15   15.31    0.72 
   0   1 -15    1.19    0.25 
   0  -1  15    1.31    0.33 
  -1   1 -15    2.46    0.36 
   1  -1  15    2.17    0.45 
  -2   1 -15   19.67    1.02 
  -3   1 -15    4.83    0.56 
  -4   1 -15    0.01    0.20 
  -5   1 -15    0.31    0.33 
  -6   1 -15    5.38    0.83 
  -7   0  15    3.55    0.74 
  -7   0  15    3.72    0.60 
  -6   0  15   -0.01    0.27 
  -6   0  15    0.49    0.37 
  -5   0  15    1.04    0.36 
  -5   0  15    1.36    0.39 
  -4   0  15   -0.02    0.22 
  -4   0  15   -0.01    0.20 
  -3   0  15   15.59    0.81 
  -3   0  15   16.34    0.99 
   2   0 -15    0.01    0.11 
  -2   0  15    0.09    0.15 
  -2   0  15    0.01    0.18 
   1   0 -15   41.44    1.53 
  -1   0  15   41.02    1.46 
  -1   0  15   42.39    1.83 
   0   0 -15    0.12    0.14 
   0   0  15    0.09    0.20 
   1   0  15   52.69    2.06 
   1   0  15   52.21    2.28 
   2   0  15   -0.06    0.20 
   2   0  15    0.06    0.18 
   3   0  15   11.11    0.83 
   4   0  15    0.22    0.26 
  -5   0 -15    9.91    0.90 
  -6   0 -15   -0.01    0.42 
  -7   1  15    0.82    0.35 
  -7   1  15    0.19    0.51 
  -6   1  15    2.33    0.58 
  -5   1  15    0.16    0.28 
  -4   1  15    0.37    0.25 
  -3   1  15    9.73    0.75 
   2  -1 -15   22.92    0.92 
  -2   1  15   24.13    0.98 
  -2   1  15   22.97    1.22 
  -1   1  15   16.01    0.79 
  -1   1  15   13.85    0.89 
   0   1  15    1.46    0.30 
   0   1  15    0.53    0.25 
   1   1  15    2.93    0.50 
   1   1  15    3.33    0.44 
   2   1  15   19.27    1.20 
   2   1  15   20.71    1.09 
   3   1  15    3.21    0.52 
   4   1  15    0.10    0.25 
   5   1  15    1.34    0.46 
  -6  -1 -15    5.37    0.79 
  -6   2  15    0.61    0.43 
  -5   2  15    0.57    0.35 
  -4   2  15    1.68    0.42 
  -3   2  15    3.67    0.55 
  -2   2  15    0.42    0.25 
  -2   2  15    0.49    0.18 
  -1   2  15   22.88    1.02 
  -1   2  15   21.86    1.20 
   0   2  15    9.40    0.64 
   0   2  15   10.21    0.75 
   1   2  15   26.74    1.40 
   1   2  15   28.16    1.30 
   2   2  15    1.48    0.35 
   2   2  15    1.74    0.42 
   3   2  15    6.50    0.69 
   4   2  15    8.00    0.82 
   5   2  15    1.78    0.45 
  -6   3  15    0.17    0.44 
  -5   3  15    0.70    0.37 
  -4   3  15    0.55    0.31 
  -3   3  15   14.82    0.98 
  -2   3  15   -0.17    0.19 
  -2   3  15    0.29    0.18 
  -1   3  15   14.22    0.79 
  -1   3  15   15.83    0.97 
   0   3  15    0.29    0.19 
   0   3  15    0.37    0.24 
   1   3  15    9.50    0.75 
   1   3  15    9.68    0.70 
   2   3  15   10.43    0.76 
   2   3  15   10.22    0.82 
   3   3  15    3.26    0.55 
   4   3  15    0.62    0.31 
   5   3  15    4.03    0.64 
  -6   4  15    0.04    0.46 
  -5   4  15    0.93    0.41 
  -4   4  15    7.06    0.79 
  -3   4  15    1.66    0.44 
  -2   4  15    5.73    0.49 
  -2   4  15    6.19    0.68 
  -1   4  15    0.08    0.21 
  -1   4  15    0.30    0.20 
   0   4  15   36.42    1.69 
   0   4  15   35.89    1.56 
   1   4  15    4.91    0.59 
   1   4  15    5.26    0.59 
   2   4  15    0.19    0.26 
   2   4  15   -0.01    0.19 
   3   4  15    0.50    0.28 
   4   4  15    6.91    0.82 
   5   4  15    0.93    0.35 
  -6   5  15    0.69    0.58 
  -5   5  15    2.35    0.52 
  -4   5  15    1.71    0.48 
  -3   5  15    1.17    0.39 
  -2   5  15    2.63    0.49 
  -1   5  15    5.94    0.66 
  -1   5  15    5.56    0.54 
   0   5  15    1.79    0.35 
   0   5  15    1.16    0.35 
   1   5  15    3.42    0.52 
   1   5  15    3.59    0.52 
   2   5  15    0.11    0.24 
   3   5  15    0.96    0.39 
   4   5  15    2.66    0.53 
   5   5  15    2.73    0.55 
  -5   6  15    2.24    0.50 
  -4   6  15    2.49    0.54 
  -3   6  15    0.26    0.35 
  -2   6  15    0.00    0.30 
  -1   6  15    0.79    0.26 
  -1   6  15    2.24    0.47 
   0   6  15   14.93    0.99 
   0   6  15   13.40    0.90 
   1   6  15    0.30    0.22 
   2   6  15    2.35    0.49 
   3   6  15    0.45    0.37 
   4   6  15    3.18    0.58 
  -4   7  15    0.46    0.36 
  -3   7  15    0.12    0.30 
  -2   7  15    3.72    0.64 
  -1   7  15    2.41    0.46 
  -1   7  15    2.65    0.53 
   0   7  15    0.87    0.32 
   1   7  15    0.03    0.25 
   2   7  15    3.71    0.67 
   3   7  15    0.74    0.46 
  -3   8  15    0.25    0.33 
  -1   8  15    1.19    0.41 
   0   8  15   -0.05    0.29 
   1   8  15    0.09    0.36 
   2   8  15    0.06    0.42 
  -1   9  15   -0.10    0.42 
   0   9  15    0.37    0.45 
   1   9  15   -0.06    0.42 
  -3  -8  16    0.35    0.40 
   2   8 -16    0.92    0.39 
   1   8 -16    0.35    0.32 
   0   8 -16    2.62    0.56 
  -1   8 -16    0.54    0.31 
  -2   8 -16    0.09    0.48 
  -4  -7  16    1.35    0.51 
  -3  -7  16    2.64    0.66 
   2   7 -16    3.10    0.62 
   1   7 -16    0.52    0.35 
   0   7 -16    1.90    0.46 
  -1   7 -16    2.02    0.49 
  -2   7 -16    1.29    0.46 
  -3   7 -16   -0.47    0.40 
  -5  -6  16    0.50    0.40 
  -4  -6  16    0.76    0.45 
  -3  -6  16    2.08    0.58 
   2   6 -16    1.54    0.44 
  -2  -6  16    1.83    0.54 
   1   6 -16    1.86    0.44 
   0   6 -16    4.90    0.69 
  -1   6 -16    1.00    0.38 
  -2   6 -16    0.34    0.31 
  -3   6 -16    3.82    0.72 
  -4   6 -16    0.27    0.50 
  -5  -5  16    0.22    0.36 
  -4  -5  16    0.86    0.45 
  -3  -5  16    1.76    0.50 
   2   5 -16   12.84    0.85 
  -2  -5  16   10.69    0.84 
  -2  -5  16    9.95    0.91 
   1   5 -16    0.26    0.24 
  -1  -5  16   -0.16    0.22 
   0   5 -16    0.65    0.31 
  -1   5 -16    2.71    0.51 
  -2   5 -16   11.93    0.92 
  -3   5 -16    0.29    0.32 
  -4   5 -16   -0.08    0.43 
  -6  -4  16    0.48    0.35 
  -5  -4  16    2.72    0.58 
  -4  -4  16    1.01    0.40 
  -3  -4  16    0.26    0.24 
  -3  -4  16    0.40    0.31 
   2   4 -16    0.13    0.19 
  -2  -4  16    0.05    0.21 
  -2  -4  16   -0.09    0.26 
   1   4 -16   12.38    0.83 
  -1  -4  16   12.93    0.86 
  -1  -4  16   12.20    0.92 
   0   4 -16    1.37    0.32 
   0  -4  16    0.60    0.32 
  -1   4 -16    2.60    0.46 
  -2   4 -16    0.29    0.24 
  -3   4 -16    5.39    0.70 
  -4   4 -16    2.86    0.62 
  -5   4 -16    1.20    0.60 
  -6  -3  16    2.09    0.54 
  -5  -3  16    2.55    0.56 
  -4  -3  16    0.09    0.23 
  -4  -3  16    0.08    0.27 
  -3  -3  16    2.47    0.46 
  -3  -3  16    2.52    0.44 
   2   3 -16    0.83    0.27 
  -2  -3  16    0.72    0.30 
  -2  -3  16    0.60    0.26 
   1   3 -16   10.60    0.69 
  -1  -3  16    9.61    0.84 
  -1  -3  16    9.19    0.70 
   0   3 -16    8.44    0.62 
   0  -3  16    8.49    0.81 
  -1   3 -16    0.16    0.18 
  -2   3 -16   14.50    0.93 
  -3   3 -16    1.37    0.38 
  -4   3 -16    0.31    0.31 
  -5   3 -16    1.35    0.54 
  -6  -2  16    0.34    0.32 
  -5  -2  16    4.87    0.65 
  -5  -2  16    4.36    0.62 
  -4  -2  16    9.48    0.71 
  -4  -2  16    8.38    0.79 
  -3  -2  16    1.93    0.36 
  -3  -2  16    1.86    0.40 
   2   2 -16    0.25    0.14 
  -2  -2  16    0.00    0.11 
  -2  -2  16    0.80    0.30 
   1   2 -16   24.60    1.13 
  -1  -2  16   27.41    1.37 
  -1  -2  16   26.06    1.17 
   0   2 -16   13.21    0.77 
   0  -2  16   13.74    0.95 
  -1   2 -16    9.74    0.68 
   1  -2  16   12.03    0.92 
  -2   2 -16    1.53    0.35 
  -3   2 -16    8.43    0.78 
  -4   2 -16   13.88    1.01 
  -5   2 -16    0.88    0.48 
  -6  -1  16    0.49    0.39 
  -6  -1  16    0.77    0.36 
  -5  -1  16    3.95    0.60 
  -5  -1  16    3.03    0.52 
  -4  -1  16   -0.02    0.23 
  -4  -1  16    0.31    0.22 
  -3  -1  16    6.30    0.53 
  -3  -1  16    6.12    0.67 
   2   1 -16    0.82    0.20 
  -2  -1  16    0.49    0.20 
  -2  -1  16    0.50    0.24 
   1   1 -16   12.57    0.67 
  -1  -1  16   11.60    0.83 
   0   1 -16    9.88    0.60 
   0  -1  16    8.35    0.78 
  -1   1 -16   20.21    1.01 
   1  -1  16   20.64    1.25 
  -2   1 -16   12.62    0.79 
  -3   1 -16   10.13    0.75 
  -4   1 -16    0.48    0.30 
  -5   1 -16    4.58    0.73 
  -7   0  16    0.18    0.28 
  -6   0  16    1.22    0.40 
  -6   0  16    1.07    0.46 
  -5   0  16    0.25    0.27 
  -5   0  16    0.00    0.25 
  -4   0  16   25.16    1.19 
  -4   0  16   22.69    1.31 
  -3   0  16   -0.06    0.20 
  -3   0  16   -0.27    0.13 
   2   0 -16    0.86    0.20 
  -2   0  16    0.22    0.24 
  -2   0  16    0.73    0.21 
   1   0 -16    0.03    0.12 
  -1   0  16   -0.09    0.16 
   0   0 -16    2.98    0.36 
   0   0  16    2.95    0.49 
   1   0  16    0.00    0.19 
   1   0  16    0.24    0.21 
   2   0  16    6.29    0.76 
   2   0  16    6.43    0.66 
   3   0  16   -0.27    0.20 
  -4   0 -16   14.76    0.99 
  -5   0 -16   -0.14    0.29 
  -6   1  16   -0.17    0.27 
  -6   1  16    0.44    0.42 
  -5   1  16    3.84    0.64 
  -4   1  16    0.55    0.29 
  -3   1  16    5.07    0.64 
  -3   1  16    5.21    0.46 
   2  -1 -16    0.69    0.17 
  -2   1  16    0.58    0.27 
  -2   1  16    0.52    0.18 
  -1   1  16   13.89    0.75 
  -1   1  16   12.19    0.85 
   0   1  16    7.31    0.71 
   0   1  16    7.16    0.55 
   1   1  16   17.70    0.96 
   1   1  16   17.00    1.09 
   2   1  16   11.25    0.78 
   2   1  16   11.37    0.91 
   3   1  16    6.92    0.73 
   4   1  16    0.24    0.29 
   5   1  16    4.69    0.70 
  -6   2  16    0.31    0.41 
  -5   2  16    4.72    0.70 
  -4   2  16   10.43    0.92 
  -3   2  16    1.82    0.42 
  -2   2  16    0.59    0.20 
  -2   2  16    0.34    0.26 
  -1   2  16   26.94    1.16 
  -1   2  16   24.59    1.32 
   0   2  16   11.68    0.73 
   0   2  16   11.91    0.85 
   1   2  16    9.72    0.69 
   1   2  16    9.82    0.79 
   2   2  16    1.31    0.36 
   2   2  16    1.46    0.37 
   3   2  16    7.60    0.76 
   4   2  16   10.51    0.93 
   5   2  16    1.04    0.36 
  -6   3  16    1.61    0.59 
  -5   3  16    2.43    0.58 
  -4   3  16   -0.12    0.25 
  -3   3  16    2.99    0.54 
  -2   3  16    0.65    0.30 
  -1   3  16    9.17    0.62 
  -1   3  16    9.14    0.80 
   0   3  16    9.56    0.75 
   0   3  16    8.97    0.65 
   1   3  16    0.13    0.21 
   1   3  16    0.21    0.20 
   2   3  16   13.23    0.97 
   2   3  16   13.79    0.91 
   3   3  16    0.57    0.29 
   4   3  16    0.12    0.25 
   5   3  16    1.31    0.39 
  -6   4  16   -0.23    0.49 
  -5   4  16    2.90    0.62 
  -4   4  16    1.35    0.44 
  -3   4  16    0.42    0.32 
  -2   4  16   -0.17    0.23 
  -1   4  16   10.17    0.68 
  -1   4  16   12.20    0.88 
   0   4  16    0.98    0.32 
   0   4  16    0.35    0.23 
   1   4  16    2.42    0.46 
   1   4  16    3.01    0.48 
   2   4  16   -0.10    0.17 
   2   4  16    0.32    0.29 
   3   4  16    4.54    0.66 
   4   4  16    1.71    0.44 
   5   4  16    1.80    0.44 
  -5   5  16    0.04    0.33 
  -4   5  16    0.27    0.31 
  -3   5  16    1.43    0.43 
  -2   5  16    8.46    0.83 
  -1   5  16    0.40    0.20 
  -1   5  16    0.06    0.25 
   0   5  16    0.18    0.24 
   0   5  16    0.15    0.17 
   1   5  16    1.84    0.40 
   1   5  16    1.59    0.40 
   2   5  16   12.82    0.95 
   3   5  16    0.22    0.30 
   4   5  16    0.37    0.31 
  -5   6  16    0.34    0.32 
  -4   6  16    1.02    0.38 
  -3   6  16    2.03    0.54 
  -2   6  16    1.06    0.42 
  -1   6  16    1.80    0.46 
  -1   6  16    1.47    0.34 
   0   6  16    4.86    0.63 
   0   6  16    4.29    0.57 
   1   6  16    0.59    0.29 
   2   6  16    0.74    0.36 
   3   6  16    5.64    0.82 
   4   6  16    0.64    0.28 
  -4   7  16    0.83    0.36 
  -3   7  16    3.21    0.63 
  -2   7  16    2.65    0.57 
  -1   7  16    0.63    0.39 
  -1   7  16    0.44    0.24 
   0   7  16    1.56    0.41 
   1   7  16    1.97    0.49 
   2   7  16    1.31    0.48 
   3   7  16    0.23    0.47 
  -3   8  16    0.71    0.39 
  -1   8  16    0.25    0.30 
   0   8  16    2.05    0.52 
   1   8  16    0.53    0.44 
   2   8  16   -0.24    0.41 
   2   8 -17    1.44    0.39 
   1   8 -17    1.34    0.42 
   0   8 -17    0.62    0.30 
  -1   8 -17    0.11    0.26 
  -4  -7  17    3.82    0.73 
  -3  -7  17    0.75    0.49 
   2   7 -17    0.67    0.36 
   1   7 -17    0.46    0.32 
   0   7 -17    1.14    0.41 
  -1   7 -17    2.39    0.53 
  -2   7 -17    0.79    0.29 
  -3   7 -17    0.63    0.56 
  -5  -6  17    0.60    0.35 
  -4  -6  17    2.37    0.63 
  -3  -6  17    0.22    0.42 
   2   6 -17   -0.22    0.24 
  -2  -6  17   -0.16    0.37 
   1   6 -17    2.03    0.47 
   0   6 -17    4.62    0.67 
  -1   6 -17    1.65    0.44 
  -2   6 -17    0.60    0.33 
  -3   6 -17    2.37    0.61 
  -5  -5  17    1.26    0.47 
  -4  -5  17    0.99    0.47 
  -3  -5  17    1.91    0.55 
   2   5 -17    0.68    0.31 
  -2  -5  17    0.47    0.28 
  -2  -5  17    0.39    0.35 
   1   5 -17    1.61    0.40 
  -1  -5  17    2.04    0.47 
   0   5 -17    1.68    0.43 
  -1   5 -17    2.92    0.54 
  -2   5 -17    0.45    0.32 
  -3   5 -17    0.50    0.41 
  -4   5 -17    1.09    0.56 
  -6  -4  17    1.29    0.41 
  -5  -4  17    1.28    0.47 
  -4  -4  17    1.81    0.48 
  -3  -4  17    1.15    0.39 
  -3  -4  17    0.73    0.30 
   2   4 -17    3.58    0.50 
  -2  -4  17    3.11    0.51 
  -2  -4  17    3.03    0.53 
   1   4 -17    0.18    0.22 
  -1  -4  17    0.07    0.20 
   0   4 -17    4.71    0.57 
   0  -4  17    5.38    0.72 
  -1   4 -17    1.61    0.39 
  -2   4 -17    3.38    0.55 
  -3   4 -17    0.45    0.34 
  -4   4 -17    6.62    0.86 
  -6  -3  17    0.73    0.39 
  -5  -3  17    0.01    0.31 
  -4  -3  17    0.04    0.28 
  -4  -3  17    0.18    0.24 
  -3  -3  17   20.71    1.11 
  -3  -3  17   20.70    1.20 
  -2  -3  17   21.90    1.25 
  -2  -3  17   22.48    1.14 
   1   3 -17    6.34    0.59 
  -1  -3  17    6.73    0.73 
   0   3 -17    1.31    0.32 
   0  -3  17    1.62    0.41 
  -1   3 -17    7.43    0.68 
  -2   3 -17    5.33    0.65 
  -3   3 -17    1.44    0.42 
  -4   3 -17    0.30    0.35 
  -5   3 -17    2.61    0.70 
  -6  -2  17    0.15    0.33 
  -5  -2  17    0.28    0.31 
  -5  -2  17   -0.03    0.27 
  -4  -2  17    1.00    0.34 
  -4  -2  17    0.92    0.34 
  -3  -2  17    0.74    0.29 
  -3  -2  17    0.48    0.25 
   2   2 -17    0.34    0.19 
  -2  -2  17    0.27    0.21 
  -2  -2  17    0.52    0.26 
   1   2 -17   11.62    0.71 
  -1  -2  17   14.26    0.94 
   0   2 -17    0.52    0.21 
   0  -2  17    1.57    0.39 
  -1   2 -17    7.08    0.64 
   1  -2  17    6.72    0.81 
  -2   2 -17    6.64    0.67 
  -3   2 -17    9.90    0.86 
  -4   2 -17    2.73    0.58 
  -5   2 -17    0.78    0.51 
  -6  -1  17   -0.01    0.36 
  -6  -1  17    0.15    0.33 
  -5  -1  17   -0.06    0.28 
  -5  -1  17    0.60    0.32 
  -4  -1  17    4.14    0.61 
  -4  -1  17    3.00    0.46 
  -3  -1  17    4.50    0.46 
  -3  -1  17    5.33    0.62 
   2   1 -17   22.60    0.99 
  -2  -1  17   21.82    1.23 
   1   1 -17    2.05    0.31 
  -1  -1  17    1.58    0.39 
   0   1 -17    0.26    0.18 
   0  -1  17    0.11    0.22 
  -1   1 -17    2.83    0.41 
   1  -1  17    3.92    0.63 
  -2   1 -17    7.36    0.66 
  -3   1 -17    0.11    0.21 
  -4   1 -17    1.35    0.43 
  -5   1 -17    0.27    0.42 
  -6   0  17   -0.05    0.38 
  -6   0  17    0.03    0.28 
  -5   0  17    7.64    0.70 
  -5   0  17    6.11    0.77 
  -4   0  17   -0.12    0.23 
  -4   0  17    0.04    0.20 
  -3   0  17    0.24    0.22 
  -3   0  17    0.14    0.14 
   2   0 -17   -0.01    0.12 
  -2   0  17   -0.26    0.15 
   1   0 -17   12.70    0.68 
  -1   0  17   11.98    0.86 
   0   0 -17    0.07    0.13 
   0   0  17   -0.30    0.15 
  -1   0 -17    4.40    0.49 
   1   0  17    5.56    0.70 
   1   0  17    4.41    0.53 
   2   0  17   -0.16    0.25 
   2   0  17    0.17    0.20 
  -3   0 -17   10.96    0.80 
   3   0  17   10.26    0.90 
  -4   0 -17   -0.07    0.26 
  -5   0 -17    0.56    0.42 
  -6   1  17    0.33    0.34 
  -6   1  17    0.35    0.43 
  -5   1  17    0.29    0.34 
  -5   1  17   -0.10    0.25 
  -4   1  17    3.69    0.60 
  -4   1  17    3.05    0.44 
  -3   1  17    4.63    0.62 
   2  -1 -17   21.87    0.90 
  -2   1  17   19.38    1.18 
  -1   1  17    1.94    0.42 
  -1   1  17    2.64    0.39 
   0   1  17    0.17    0.24 
   0   1  17    0.45    0.19 
   1   1  17    3.88    0.51 
   1   1  17    4.33    0.63 
   2   1  17    7.37    0.71 
   2   1  17    6.21    0.77 
   3   1  17    0.00    0.19 
   4   1  17    1.69    0.46 
   5   1  17    0.83    0.33 
  -6   2  17    0.73    0.48 
  -5   2  17    0.32    0.36 
  -4   2  17    0.76    0.36 
  -3   2  17    0.44    0.28 
  -2   2  17    0.29    0.28 
  -1   2  17   10.94    0.83 
  -1   2  17   12.15    0.71 
   0   2  17    0.81    0.26 
   0   2  17    0.72    0.29 
   1   2  17    5.48    0.59 
   1   2  17    6.11    0.71 
   2   2  17    5.12    0.70 
   2   2  17    5.15    0.61 
   3   2  17    8.17    0.80 
   4   2  17    1.16    0.38 
   5   2  17    0.76    0.31 
  -6   3  17    0.42    0.48 
  -5   3  17    0.32    0.39 
  -4   3  17   -0.07    0.28 
  -3   3  17   20.04    1.25 
  -2   3  17   20.41    1.22 
  -1   3  17    5.84    0.54 
  -1   3  17    5.42    0.65 
   0   3  17    1.06    0.29 
   0   3  17    1.75    0.42 
   1   3  17    8.61    0.74 
   1   3  17    6.40    0.71 
   2   3  17    4.87    0.68 
   2   3  17    5.06    0.64 
   3   3  17    1.10    0.39 
   4   3  17    0.33    0.28 
   5   3  17    3.90    0.67 
  -6   4  17    0.68    0.60 
  -5   4  17    1.16    0.43 
  -4   4  17    2.23    0.53 
  -3   4  17    1.03    0.39 
  -2   4  17    2.91    0.55 
  -1   4  17    0.17    0.18 
  -1   4  17   -0.07    0.22 
   0   4  17    5.47    0.59 
   0   4  17    5.62    0.67 
   1   4  17    2.43    0.44 
   1   4  17    1.19    0.36 
   2   4  17    3.46    0.57 
   2   4  17    3.30    0.59 
   3   4  17    0.17    0.27 
   4   4  17    5.35    0.75 
  -5   5  17    0.93    0.36 
  -4   5  17    0.86    0.41 
  -3   5  17    1.58    0.49 
  -2   5  17    0.05    0.30 
  -1   5  17    1.22    0.30 
  -1   5  17    2.05    0.49 
   0   5  17    1.70    0.42 
   0   5  17    1.71    0.37 
   1   5  17    2.65    0.51 
   1   5  17    2.08    0.44 
   2   5  17    0.02    0.24 
   3   5  17   -0.10    0.28 
   4   5  17    1.40    0.39 
  -5   6  17    0.17    0.26 
  -4   6  17    1.77    0.46 
  -3   6  17   -0.23    0.31 
  -2   6  17    0.11    0.34 
  -1   6  17    1.67    0.35 
  -1   6  17    2.22    0.52 
   0   6  17    3.60    0.60 
   0   6  17    3.11    0.51 
   1   6  17    1.51    0.40 
   2   6  17   -0.08    0.29 
   3   6  17    2.57    0.64 
  -4   7  17    3.35    0.63 
  -3   7  17   -0.14    0.34 
  -2   7  17    0.96    0.44 
  -1   7  17    0.02    0.23 
   0   7  17    0.68    0.32 
   1   7  17    1.21    0.44 
   2   7  17    0.58    0.43 
   3   7  17    0.12    0.51 
   0   8  17    0.04    0.36 
   1   8  17    0.03    0.39 
   2   8 -18    0.63    0.38 
   1   8 -18    0.41    0.32 
   0   8 -18    1.38    0.41 
  -1   8 -18    0.44    0.29 
  -3  -7  18    1.48    0.56 
   2   7 -18    1.98    0.48 
   1   7 -18    0.67    0.34 
   0   7 -18    0.57    0.31 
  -1   7 -18    2.96    0.58 
  -2   7 -18    1.93    0.49 
  -4  -6  18    0.47    0.46 
  -3  -6  18    0.21    0.48 
   2   6 -18    2.50    0.54 
  -2  -6  18    4.23    0.71 
   1   6 -18    0.02    0.28 
   0   6 -18    0.36    0.33 
  -1   6 -18    0.19    0.30 
  -2   6 -18    0.97    0.39 
  -3   6 -18    0.96    0.58 
  -5  -5  18    0.65    0.35 
  -4  -5  18    0.82    0.43 
  -3  -5  18    1.26    0.48 
   2   5 -18    6.79    0.72 
  -2  -5  18    7.83    0.84 
  -2  -5  18    9.13    0.88 
   1   5 -18    2.51    0.50 
  -1  -5  18    2.71    0.54 
   0   5 -18    0.87    0.34 
  -1   5 -18    1.10    0.37 
  -2   5 -18    3.75    0.62 
  -3   5 -18    1.13    0.52 
  -4   5 -18   -0.31    0.49 
  -5  -4  18    1.62    0.49 
  -4  -4  18    0.53    0.38 
  -3  -4  18   -0.33    0.30 
  -3  -4  18   -0.01    0.22 
   2   4 -18    2.38    0.45 
  -2  -4  18    2.74    0.50 
  -2  -4  18    2.94    0.52 
   1   4 -18    6.44    0.65 
  -1  -4  18    5.82    0.74 
   0   4 -18    1.09    0.36 
   0  -4  18    1.37    0.42 
  -1   4 -18    0.11    0.25 
  -2   4 -18    0.26    0.27 
  -3   4 -18    3.76    0.66 
  -4   4 -18    0.32    0.42 
  -6  -3  18    0.87    0.41 
  -5  -3  18    0.20    0.33 
  -4  -3  18    1.33    0.41 
  -4  -3  18    1.47    0.39 
  -3  -3  18    1.19    0.36 
  -3  -3  18    1.63    0.40 
   2   3 -18    1.95    0.38 
  -2  -3  18    2.27    0.46 
   1   3 -18    0.19    0.18 
  -1  -3  18    0.46    0.27 
   0   3 -18    4.85    0.54 
   0  -3  18    4.25    0.65 
  -1   3 -18    2.73    0.46 
   1  -3  18    2.16    0.50 
  -2   3 -18    3.91    0.58 
  -3   3 -18    1.31    0.42 
  -4   3 -18    2.31    0.61 
  -6  -2  18    0.66    0.34 
  -5  -2  18    3.53    0.63 
  -5  -2  18    4.18    0.62 
  -4  -2  18    0.42    0.28 
  -4  -2  18    0.60    0.33 
  -3  -2  18   -0.06    0.23 
  -3  -2  18   -0.19    0.20 
   2   2 -18    2.62    0.38 
  -2  -2  18    1.76    0.42 
   1   2 -18   16.17    0.86 
  -1  -2  18   14.36    1.00 
   0   2 -18    2.39    0.38 
   0  -2  18    2.35    0.49 
  -1   2 -18    4.28    0.52 
   1  -2  18    2.84    0.57 
  -2   2 -18    3.37    0.52 
  -3   2 -18    0.74    0.35 
  -4   2 -18    1.66    0.50 
  -5   2 -18    0.11    0.46 
  -6  -1  18    0.80    0.39 
  -6  -1  18    0.30    0.42 
  -5  -1  18    2.74    0.49 
  -5  -1  18    2.23    0.53 
  -4  -1  18   -0.05    0.22 
  -4  -1  18    0.16    0.26 
  -3  -1  18    0.82    0.28 
  -3  -1  18    1.28    0.35 
   2   1 -18    0.07    0.12 
  -2  -1  18   -0.15    0.17 
   1   1 -18    0.36    0.17 
  -1  -1  18    0.46    0.28 
   0   1 -18    1.05    0.26 
   0  -1  18    0.49    0.28 
  -1   1 -18   24.86    1.20 
   1  -1  18   24.50    1.46 
  -2   1 -18   -0.11    0.17 
  -3   1 -18    5.36    0.65 
  -4   1 -18    0.40    0.34 
  -5   1 -18    4.24    0.78 
  -6   0  18    0.15    0.43 
  -6   0  18    0.50    0.32 
  -5   0  18   -0.44    0.25 
  -5   0  18    0.08    0.29 
  -4   0  18    0.18    0.23 
  -4   0  18    0.28    0.28 
  -3   0  18   -0.16    0.19 
   2   0 -18    3.67    0.36 
  -2   0  18    4.28    0.59 
   1   0 -18    0.01    0.13 
  -1   0  18   -0.13    0.16 
   0   0  18   20.31    1.22 
  -1   0 -18   -0.02    0.15 
   1   0  18    0.21    0.26 
  -2   0 -18    3.90    0.52 
   2   0  18    3.72    0.69 
  -3   0 -18   -0.10    0.21 
  -4   0 -18    5.70    0.73 
  -5   0 -18   -0.04    0.41 
  -6   1  18    0.87    0.39 
  -6   1  18    0.67    0.50 
  -5   1  18    3.12    0.51 
  -5   1  18    3.34    0.63 
  -4   1  18   -0.05    0.25 
  -4   1  18    0.08    0.21 
  -3   1  18    0.97    0.38 
  -2   1  18    0.19    0.24 
  -1   1  18    0.46    0.27 
  -1   1  18    0.21    0.22 
   0   1  18    0.49    0.29 
   0   1  18    0.79    0.26 
   1   1  18   26.24    1.46 
   1   1  18   22.77    1.21 
   2   1  18   -0.03    0.28 
   2   1  18    0.23    0.21 
   3   1  18    5.04    0.69 
   4   1  18    0.76    0.34 
   5   1  18    6.58    0.84 
  -6   2  18   -0.16    0.43 
  -5   2  18    4.82    0.79 
  -4   2  18    0.61    0.37 
  -3   2  18   -0.12    0.25 
  -2   2  18    1.55    0.42 
  -1   2  18   16.98    1.09 
  -1   2  18   16.12    0.88 
   0   2  18    2.44    0.50 
   0   2  18    2.26    0.39 
   1   2  18    2.79    0.54 
   1   2  18    3.33    0.49 
   2   2  18    2.65    0.54 
   2   2  18    2.97    0.51 
   3   2  18    0.92    0.34 
   4   2  18    1.53    0.40 
   5   2  18    0.49    0.26 
  -6   3  18    0.41    0.54 
  -5   3  18    0.07    0.37 
  -4   3  18    1.50    0.49 
  -3   3  18    1.78    0.48 
  -2   3  18    2.37    0.52 
  -1   3  18    0.23    0.16 
  -1   3  18    0.26    0.25 
   0   3  18    5.02    0.57 
   0   3  18    5.01    0.66 
   1   3  18    2.23    0.41 
   1   3  18    2.57    0.51 
   2   3  18    3.47    0.57 
   2   3  18    3.18    0.60 
   3   3  18    1.46    0.42 
   4   3  18    2.29    0.48 
  -5   4  18    1.55    0.48 
  -4   4  18    1.35    0.46 
  -3   4  18   -0.01    0.31 
  -2   4  18    2.92    0.56 
  -1   4  18    7.26    0.78 
  -1   4  18    6.03    0.59 
   0   4  18    1.14    0.39 
   0   4  18    1.24    0.32 
   1   4  18    0.02    0.24 
   1   4  18    0.23    0.21 
   2   4  18    0.69    0.35 
   2   4  18    0.49    0.27 
   3   4  18    4.25    0.70 
   4   4  18    0.63    0.30 
  -5   5  18    0.59    0.31 
  -4   5  18    1.11    0.42 
  -3   5  18    1.00    0.45 
  -2   5  18    7.35    0.83 
  -1   5  18    2.20    0.51 
  -1   5  18    2.61    0.43 
   0   5  18    0.55    0.25 
   0   5  18    0.12    0.29 
   1   5  18    1.35    0.39 
   1   5  18    0.38    0.31 
   2   5  18    4.53    0.70 
   3   5  18    1.73    0.55 
   4   5  18    0.04    0.19 
  -4   6  18    0.23    0.33 
  -3   6  18    0.99    0.42 
  -2   6  18    3.45    0.66 
  -1   6  18    0.62    0.29 
  -1   6  18    0.41    0.35 
   0   6  18    0.30    0.24 
   1   6  18    0.16    0.31 
   2   6  18    1.06    0.47 
   3   6  18    1.24    0.57 
  -3   7  18    1.47    0.43 
  -2   7  18    2.56    0.60 
  -1   7  18    0.04    0.28 
   0   7  18    0.59    0.34 
   1   7  18    1.39    0.50 
   2   7  18    0.90    0.51 
   0   8  18    1.11    0.53 
   1   8  18    0.01    0.45 
  -3  -7  19    0.30    0.46 
   2   7 -19    0.31    0.37 
   1   7 -19    0.12    0.28 
   0   7 -19    2.36    0.51 
  -1   7 -19    0.53    0.32 
  -2   7 -19   -0.18    0.22 
  -4  -6  19    0.75    0.50 
  -3  -6  19    0.07    0.41 
   2   6 -19    2.01    0.52 
   1   6 -19    0.81    0.36 
   0   6 -19    1.56    0.45 
  -1   6 -19    0.99    0.40 
  -2   6 -19    0.63    0.31 
  -3   6 -19    0.72    0.61 
  -5  -5  19    0.47    0.41 
  -4  -5  19    1.56    0.54 
  -3  -5  19    1.95    0.56 
   2   5 -19    1.52    0.42 
  -2  -5  19    1.58    0.44 
   1   5 -19    0.81    0.37 
  -1  -5  19    0.87    0.36 
   0   5 -19    1.24    0.41 
  -1   5 -19    6.41    0.76 
  -2   5 -19    0.57    0.33 
  -3   5 -19   -0.05    0.45 
  -5  -4  19    0.11    0.35 
  -4  -4  19    0.62    0.39 
  -3  -4  19    0.54    0.33 
  -3  -4  19    0.93    0.40 
   2   4 -19    0.57    0.28 
  -2  -4  19    0.00    0.26 
   1   4 -19    0.07    0.21 
  -1  -4  19    0.27    0.26 
   0   4 -19    2.24    0.45 
   0  -4  19    3.46    0.65 
  -1   4 -19    0.77    0.34 
  -2   4 -19    2.08    0.46 
  -3   4 -19   -0.02    0.36 
  -4   4 -19    0.18    0.52 
  -5  -3  19    0.33    0.34 
  -4  -3  19    0.10    0.32 
  -4  -3  19    0.19    0.28 
  -3  -3  19    5.05    0.67 
   2   3 -19    1.02    0.32 
  -2  -3  19    2.22    0.48 
   1   3 -19   -0.03    0.17 
  -1  -3  19   -0.02    0.21 
   0   3 -19    0.09    0.23 
   0  -3  19    0.49    0.31 
  -1   3 -19    8.31    0.75 
  -2   3 -19    1.62    0.41 
  -3   3 -19   -0.11    0.28 
  -4   3 -19    0.19    0.46 
  -6  -2  19    0.92    0.39 
  -5  -2  19    4.33    0.69 
  -5  -2  19    3.58    0.61 
  -4  -2  19    0.64    0.31 
  -4  -2  19    0.72    0.34 
  -3  -2  19    1.47    0.38 
   2   2 -19    2.11    0.36 
  -2  -2  19    2.00    0.45 
   1   2 -19    0.33    0.19 
  -1  -2  19   -0.10    0.23 
   0   2 -19    0.32    0.21 
   0  -2  19    0.05    0.25 
  -1   2 -19    0.16    0.22 
   1  -2  19    0.09    0.27 
  -2   2 -19    5.22    0.65 
  -3   2 -19    0.98    0.33 
  -4   2 -19    1.01    0.50 
  -6  -1  19   -0.07    0.33 
  -6  -1  19   -0.49    0.40 
  -5  -1  19    0.45    0.33 
  -5  -1  19    0.38    0.41 
  -4  -1  19    3.68    0.62 
  -3  -1  19    3.87    0.61 
  -2  -1  19    9.08    0.84 
   1   1 -19    0.70    0.22 
  -1  -1  19    0.17    0.22 
   0   1 -19    3.84    0.47 
   0  -1  19    3.32    0.58 
  -1   1 -19    0.95    0.28 
   1  -1  19    0.40    0.32 
  -2   1 -19    6.16    0.65 
  -3   1 -19    0.20    0.21 
  -4   1 -19    3.12    0.63 
  -6   0  19   -0.17    0.45 
  -6   0  19    0.40    0.31 
  -5   0  19    4.12    0.58 
  -5   0  19    3.82    0.69 
  -4   0  19   -0.15    0.25 
  -3   0  19    0.80    0.33 
  -2   0  19    0.08    0.20 
   1   0 -19    7.62    0.53 
  -1   0  19    6.78    0.76 
   0   0 -19    0.10    0.15 
   0   0  19    0.08    0.26 
  -1   0 -19    0.27    0.20 
   1   0  19    0.06    0.28 
  -2   0 -19   -0.05    0.19 
   2   0  19    0.18    0.32 
  -3   0 -19   10.81    0.90 
  -4   0 -19   -0.08    0.28 
  -5   0 -19    0.00    0.45 
  -6   1  19   -0.33    0.47 
  -6   1  19    0.59    0.34 
  -5   1  19    0.14    0.37 
  -4   1  19    4.16    0.67 
  -3   1  19    3.62    0.62 
  -2   1  19    9.09    0.84 
   1  -1 -19    0.77    0.22 
  -1   1  19    0.99    0.37 
   0   1  19    4.04    0.52 
   0   1  19    2.32    0.50 
   1   1  19    0.75    0.31 
   1   1  19    0.98    0.38 
   2   1  19    6.63    0.73 
   2   1  19    6.17    0.84 
   3   1  19    0.72    0.35 
   4   1  19    2.58    0.52 
  -6   2  19    0.17    0.53 
  -5   2  19    2.77    0.67 
  -4   2  19    0.75    0.40 
  -3   2  19    0.73    0.39 
  -2   2  19    2.20    0.50 
  -1   2  19    0.34    0.30 
  -1   2  19    0.15    0.17 
   0   2  19    0.29    0.20 
   0   2  19    0.04    0.24 
   1   2  19   -0.02    0.27 
   1   2  19    0.04    0.17 
   2   2  19    3.61    0.55 
   2   2  19    3.69    0.67 
   3   2  19    0.54    0.31 
   4   2  19    1.54    0.42 
  -5   3  19    0.57    0.48 
  -4   3  19    0.10    0.31 
  -3   3  19    3.74    0.66 
  -2   3  19    1.46    0.44 
  -1   3  19    0.05    0.26 
  -1   3  19    0.24    0.19 
   0   3  19    0.25    0.23 
   0   3  19    0.34    0.28 
   1   3  19    6.86    0.69 
   1   3  19    4.40    0.67 
   2   3  19    0.82    0.41 
   2   3  19    1.61    0.43 
   3   3  19   -0.08    0.29 
   4   3  19    0.40    0.27 
  -5   4  19    0.51    0.34 
  -4   4  19    1.57    0.48 
  -3   4  19    1.44    0.48 
  -2   4  19    0.10    0.33 
  -1   4  19   -0.06    0.27 
  -1   4  19   -0.19    0.16 
   0   4  19    2.25    0.42 
   0   4  19    1.23    0.44 
   1   4  19    0.89    0.32 
   1   4  19    0.66    0.34 
   2   4  19    1.91    0.47 
   3   4  19    0.02    0.35 
   4   4  19    0.73    0.27 
  -5   5  19    0.48    0.29 
  -4   5  19    1.54    0.45 
  -3   5  19    1.47    0.50 
  -2   5  19    1.45    0.47 
  -1   5  19    0.28    0.34 
  -1   5  19    0.71    0.29 
   0   5  19    1.08    0.43 
   0   5  19    1.14    0.37 
   1   5  19    6.88    0.78 
   2   5  19    0.03    0.33 
   3   5  19    0.19    0.39 
  -4   6  19    0.92    0.37 
  -3   6  19    0.44    0.33 
  -2   6  19    2.88    0.61 
  -1   6  19    0.58    0.41 
   0   6  19    2.11    0.46 
   1   6  19    0.99    0.42 
   2   6  19   -0.07    0.38 
   3   6  19    1.16    0.59 
  -3   7  19    0.79    0.35 
  -2   7  19    0.58    0.41 
   0   7  19    1.75    0.52 
   1   7  19    0.24    0.42 
   2   7  19    0.24    0.53 
   2   7 -20    1.05    0.42 
   1   7 -20    0.33    0.35 
   0   7 -20    0.57    0.35 
  -1   7 -20   -0.13    0.21 
   2   6 -20    1.12    0.42 
   1   6 -20    0.15    0.32 
   0   6 -20    0.04    0.26 
  -1   6 -20    0.62    0.35 
  -2   6 -20    0.37    0.26 
   2   5 -20    0.26    0.30 
  -2  -5  20    0.21    0.31 
   1   5 -20   -0.06    0.23 
  -1  -5  20    0.33    0.36 
   0   5 -20    2.87    0.56 
  -1   5 -20    0.04    0.28 
  -2   5 -20    1.22    0.38 
  -3   5 -20    0.21    0.54 
  -5  -4  20    1.15    0.46 
  -3  -4  20    0.55    0.34 
   2   4 -20    1.09    0.36 
  -2  -4  20    1.33    0.42 
   1   4 -20    6.02    0.67 
  -1  -4  20    4.32    0.70 
   0   4 -20    0.09    0.27 
   0  -4  20    0.50    0.37 
  -1   4 -20    0.25    0.26 
  -2   4 -20    0.40    0.29 
  -3   4 -20    2.27    0.48 
  -5  -3  20    0.22    0.36 
  -4  -3  20    0.10    0.31 
  -3  -3  20    1.09    0.39 
  -2  -3  20    0.14    0.25 
   1   3 -20    0.26    0.26 
  -1  -3  20    0.16    0.26 
   0   3 -20    3.76    0.53 
   0  -3  20    4.50    0.70 
  -1   3 -20    1.90    0.41 
  -2   3 -20    0.82    0.35 
  -3   3 -20    0.78    0.31 
  -4   3 -20    1.89    0.65 
  -5  -2  20    0.48    0.40 
  -4  -2  20   -0.11    0.28 
  -3  -2  20    1.17    0.39 
  -2  -2  20    2.03    0.46 
   1   2 -20    1.60    0.33 
  -1  -2  20    1.24    0.38 
   0   2 -20    7.42    0.67 
   0  -2  20    6.68    0.85 
  -1   2 -20    1.17    0.35 
   1  -2  20    1.31    0.47 
  -2   2 -20    0.22    0.27 
  -3   2 -20    2.65    0.49 
  -4   2 -20    1.49    0.58 
  -6  -1  20    0.76    0.39 
  -6  -1  20    0.01    0.50 
  -5  -1  20    0.33    0.39 
  -4  -1  20    0.46    0.31 
  -3  -1  20    4.61    0.68 
  -2  -1  20    0.18    0.23 
   1   1 -20    0.97    0.25 
  -1  -1  20    1.22    0.38 
   0   1 -20    0.48    0.23 
   0  -1  20   -0.01    0.24 
  -1   1 -20    4.63    0.55 
   1  -1  20    5.37    0.79 
  -2   1 -20    0.39    0.25 
  -3   1 -20    0.76    0.31 
  -4   1 -20    0.14    0.41 
  -6   0  20   -0.09    0.49 
  -5   0  20   -0.39    0.35 
  -4   0  20   -0.12    0.29 
  -3   0  20    0.33    0.26 
  -2   0  20    5.32    0.70 
   1   0 -20   -0.04    0.13 
  -1   0  20    0.03    0.25 
   0   0  20    7.32    0.84 
  -1   0 -20   -0.11    0.16 
   1   0  20    0.08    0.32 
  -2   0 -20    0.46    0.28 
   2   0  20    1.31    0.51 
  -3   0 -20    0.09    0.23 
  -4   0 -20    1.24    0.47 
  -6   1  20    0.25    0.55 
  -5   1  20    0.41    0.45 
  -4   1  20    0.64    0.39 
  -3   1  20    4.13    0.65 
  -2   1  20    0.33    0.30 
   1  -1 -20    0.65    0.21 
  -1   1  20    0.66    0.33 
   0   1  20    0.33    0.30 
   0   1  20    0.31    0.22 
   1   1  20    5.89    0.81 
   1   1  20    5.77    0.67 
   2   1  20   -0.18    0.32 
   2   1  20    0.19    0.24 
   3   1  20    0.68    0.39 
   4   1  20    0.61    0.25 
  -5   2  20    0.56    0.50 
  -4   2  20    0.12    0.34 
  -3   2  20    2.02    0.52 
  -2   2  20    1.81    0.48 
  -1   2  20    1.82    0.35 
  -1   2  20    1.76    0.46 
   0   2  20    5.38    0.59 
   0   2  20    5.32    0.73 
   1   2  20    1.28    0.35 
   1   2  20    1.55    0.47 
   2   2  20    0.68    0.40 
   2   2  20    0.62    0.31 
   3   2  20    2.42    0.55 
   4   2  20    1.58    0.42 
  -5   3  20   -0.20    0.40 
  -4   3  20    0.44    0.34 
  -3   3  20    1.49    0.46 
  -2   3  20    0.45    0.35 
  -1   3  20    0.27    0.33 
  -1   3  20    0.33    0.20 
   0   3  20    3.26    0.60 
   0   3  20    4.47    0.56 
   1   3  20    1.54    0.36 
   1   3  20    1.41    0.47 
   2   3  20    0.40    0.37 
   2   3  20    1.18    0.39 
   3   3  20   -0.12    0.29 
   4   3  20    1.90    0.44 
  -5   4  20    2.12    0.50 
  -4   4  20    0.50    0.31 
  -3   4  20    0.37    0.37 
  -2   4  20    1.19    0.45 
  -1   4  20    5.53    0.61 
  -1   4  20    5.48    0.77 
   0   4  20    0.01    0.21 
   0   4  20    0.16    0.32 
   1   4  20    0.22    0.26 
   1   4  20    0.07    0.35 
   2   4  20   -0.05    0.30 
   3   4  20    1.99    0.57 
  -4   5  20    0.89    0.41 
  -3   5  20    0.19    0.34 
  -2   5  20    0.60    0.38 
  -1   5  20   -0.26    0.29 
   0   5  20    2.49    0.51 
   0   5  20    2.31    0.57 
   1   5  20    0.35    0.32 
   2   5  20    0.37    0.41 
   3   5  20    0.65    0.51 
  -3   6  20    0.39    0.36 
  -2   6  20    1.61    0.54 
  -1   6  20    1.15    0.47 
   0   6  20   -0.03    0.29 
   1   6  20    0.01    0.37 
   2   6  20    0.36    0.50 
  -2   7  20    1.03    0.42 
   0   7  20    0.12    0.37 
   1   7  20   -0.06    0.45 
   1   7 -21    1.32    0.41 
   0   7 -21    1.80    0.44 
   1   6 -21    0.67    0.35 
   0   6 -21    2.06    0.48 
  -1   6 -21    0.27    0.32 
  -2  -5  21    0.00    0.34 
   1   5 -21    0.38    0.35 
  -1  -5  21    0.06    0.41 
   0   5 -21    0.58    0.33 
  -1   5 -21    1.28    0.35 
  -2   5 -21    0.32    0.28 
  -3  -4  21    1.04    0.46 
  -2  -4  21    5.90    0.82 
   1   4 -21    1.30    0.40 
  -1  -4  21    1.02    0.44 
   0   4 -21   -0.08    0.24 
   0  -4  21    0.43    0.39 
  -1   4 -21    0.98    0.37 
  -2   4 -21    1.38    0.38 
  -3   4 -21    0.53    0.28 
  -4  -3  21    0.76    0.41 
  -3  -3  21    1.47    0.46 
  -2  -3  21    0.25    0.33 
   1   3 -21    1.98    0.43 
  -1  -3  21    2.22    0.53 
   0   3 -21    0.45    0.28 
   0  -3  21    0.76    0.37 
  -1   3 -21    1.47    0.38 
  -2   3 -21    0.51    0.31 
  -3   3 -21    1.38    0.38 
  -5  -2  21    1.25    0.53 
  -4  -2  21    0.12    0.35 
  -3  -2  21   -0.08    0.25 
  -2  -2  21   -0.36    0.24 
   1   2 -21    3.44    0.47 
  -1  -2  21    3.95    0.64 
   0   2 -21   -0.07    0.20 
   0  -2  21    0.26    0.33 
  -1   2 -21    0.17    0.24 
   1  -2  21    0.17    0.33 
  -2   2 -21    1.59    0.39 
  -3   2 -21    1.89    0.43 
  -4   2 -21   -0.20    0.47 
  -5  -1  21    0.26    0.45 
  -4  -1  21    1.71    0.51 
  -3  -1  21    0.17    0.31 
  -2  -1  21   -0.02    0.23 
   1   1 -21   -0.12    0.16 
  -1  -1  21    0.23    0.26 
   0   1 -21    1.57    0.34 
   0  -1  21    1.21    0.43 
  -1   1 -21    2.40    0.43 
   1  -1  21    2.67    0.62 
  -2   1 -21    0.78    0.31 
  -3   1 -21    0.41    0.27 
  -4   1 -21    1.29    0.57 
  -5   0  21    2.44    0.66 
  -4   0  21   -0.15    0.31 
  -3   0  21    0.51    0.34 
  -2   0  21   -0.03    0.24 
   1   0 -21    2.89    0.41 
  -1   0  21    2.70    0.55 
   0   0 -21    0.09    0.18 
   0   0  21   -0.27    0.25 
  -1   0 -21    1.24    0.34 
   1   0  21    1.99    0.56 
  -2   0 -21    0.02    0.22 
   2   0  21    0.03    0.37 
  -3   0 -21    3.47    0.55 
  -4   0 -21    0.04    0.44 
  -5   1  21    0.33    0.51 
  -4   1  21    1.33    0.51 
  -3   1  21    0.25    0.31 
  -2   1  21    0.68    0.36 
   1  -1 -21   -0.05    0.16 
  -1   1  21    0.54    0.32 
   0  -1 -21    1.38    0.33 
   0   1  21    1.33    0.44 
   1   1  21    2.09    0.54 
   1   1  21    2.07    0.44 
   2   1  21    0.55    0.43 
   2   1  21    0.70    0.35 
   3   1  21    0.05    0.33 
  -4  -1 -21    1.38    0.56 
  -5   2  21    0.89    0.56 
  -4   2  21    0.87    0.47 
  -3   2  21    0.04    0.31 
  -2   2  21   -0.08    0.29 
  -1   2  21    3.24    0.63 
  -1   2  21    4.69    0.55 
   0   2  21    0.15    0.19 
   0   2  21    0.11    0.32 
   1   2  21    0.21    0.20 
   1   2  21    0.38    0.38 
   2   2  21    1.37    0.50 
   2   2  21    1.02    0.37 
   3   2  21    1.91    0.53 
   4   2  21    0.05    0.21 
  -5   3  21    0.66    0.60 
  -4   3  21    0.43    0.33 
  -3   3  21    1.14    0.44 
  -2   3  21    0.59    0.40 
  -1   3  21    1.82    0.37 
  -1   3  21    2.25    0.53 
   0   3  21   -0.07    0.32 
   0   3  21    0.57    0.26 
   1   3  21    1.34    0.38 
   1   3  21    1.81    0.54 
   2   3  21    0.53    0.45 
   2   3  21    0.24    0.29 
   3   3  21    0.64    0.43 
  -4   4  21    0.11    0.30 
  -3   4  21    1.29    0.48 
  -2   4  21    4.07    0.71 
  -1   4  21    0.70    0.41 
   0   4  21    0.35    0.26 
   0   4  21    0.25    0.36 
   1   4  21    0.83    0.37 
   1   4  21    1.84    0.57 
   2   4  21    1.41    0.49 
   3   4  21   -0.02    0.42 
  -4   5  21    0.33    0.32 
  -3   5  21    1.63    0.49 
  -2   5  21    0.27    0.36 
  -1   5  21    0.15    0.33 
   0   5  21    0.33    0.30 
   0   5  21    0.75    0.44 
   1   5  21    0.71    0.41 
   2   5  21   -0.19    0.34 
  -3   6  21    1.70    0.45 
  -2   6  21    0.83    0.43 
  -1   6  21    0.83    0.43 
   0   6  21    1.29    0.45 
   1   6  21    0.16    0.41 
   1   6 -22    1.61    0.44 
   0   6 -22    0.72    0.33 
  -1   6 -22    0.22    0.28 
  -2  -5  22   -0.10    0.41 
   1   5 -22   -0.23    0.27 
  -1  -5  22   -0.24    0.42 
   0   5 -22    1.24    0.42 
  -1   5 -22    0.31    0.28 
  -2   5 -22    0.06    0.25 
  -3  -4  22    1.23    0.51 
  -2  -4  22    1.16    0.49 
   1   4 -22    1.91    0.46 
  -1  -4  22    1.29    0.51 
   0   4 -22   -0.09    0.27 
   0  -4  22   -0.22    0.36 
  -1   4 -22    0.96    0.33 
  -2   4 -22    0.88    0.30 
  -4  -3  22    0.85    0.50 
  -3  -3  22    0.10    0.34 
  -2  -3  22    0.28    0.35 
   1   3 -22    1.26    0.39 
  -1  -3  22    1.99    0.56 
   0   3 -22    0.71    0.34 
   0  -3  22    0.52    0.39 
  -1   3 -22    0.87    0.32 
  -2   3 -22    0.42    0.24 
  -3   3 -22    0.41    0.25 
  -5  -2  22    0.45    0.51 
  -4  -2  22    0.21    0.40 
  -3  -2  22    1.58    0.49 
  -2  -2  22    1.01    0.42 
   1   2 -22    2.62    0.44 
  -1  -2  22    3.19    0.65 
   0   2 -22    0.98    0.31 
   0  -2  22    0.20    0.36 
  -1   2 -22    0.28    0.25 
   1  -2  22    0.45    0.37 
  -2   2 -22    1.35    0.37 
  -3   2 -22    1.52    0.39 
  -5  -1  22    0.23    0.49 
  -4  -1  22   -0.11    0.37 
  -3  -1  22    0.42    0.37 
  -2  -1  22    0.20    0.31 
   1   1 -22    1.11    0.29 
  -1  -1  22    0.93    0.40 
   0   1 -22    0.88    0.30 
   0  -1  22    0.94    0.48 
  -1   1 -22    2.41    0.45 
   1  -1  22    3.74    0.69 
  -2   1 -22    0.28    0.24 
  -3   1 -22    0.70    0.26 
  -5   0  22   -0.09    0.46 
  -4   0  22    0.81    0.48 
  -3   0  22    0.34    0.35 
  -2   0  22    3.02    0.60 
   1   0 -22   -0.03    0.16 
  -1   0  22   -0.17    0.27 
   0   0 -22   -0.30    0.14 
   0   0  22   -0.04    0.30 
  -1   0 -22   -0.05    0.20 
   1   0  22   -0.18    0.28 
  -2   0 -22    2.15    0.46 
   2   0  22    3.44    0.74 
  -3   0 -22    0.04    0.22 
  -5   1  22    0.39    0.55 
  -4   1  22   -0.26    0.35 
  -3   1  22    0.51    0.41 
  -2   1  22    0.34    0.35 
   1  -1 -22    0.97    0.25 
  -1   1  22    1.00    0.41 
   0  -1 -22    1.17    0.31 
   0   1  22    0.92    0.40 
  -1  -1 -22    2.08    0.41 
   1   1  22    2.45    0.60 
   2   1  22    0.02    0.28 
   2   1  22    0.04    0.36 
  -3  -1 -22    0.65    0.27 
  -5   2  22    0.02    0.51 
  -4   2  22    0.12    0.43 
  -3   2  22    1.69    0.50 
  -2   2  22    0.22    0.34 
  -1   2  22    1.88    0.51 
   0   2  22    0.71    0.38 
   0   2  22    0.46    0.25 
   1   2  22    0.66    0.33 
   1   2  22    0.77    0.43 
   2   2  22    1.21    0.50 
   2   2  22    1.32    0.44 
   3   2  22    0.80    0.48 
  -4   3  22    0.54    0.33 
  -3   3  22    0.31    0.36 
  -2   3  22    0.15    0.34 
  -1   3  22    1.86    0.51 
   0   3  22    1.31    0.36 
   0   3  22    0.91    0.45 
   1   3  22    0.90    0.46 
   1   3  22    0.32    0.30 
   2   3  22   -0.06    0.32 
   2   3  22    0.34    0.42 
   3   3  22   -0.09    0.42 
  -4   4  22    0.79    0.33 
  -3   4  22    1.77    0.49 
  -2   4  22    0.87    0.41 
  -1   4  22    1.27    0.46 
   0   4  22   -0.05    0.32 
   0   4  22    0.11    0.27 
   1   4  22    1.42    0.54 
   1   4  22    0.28    0.35 
   2   4  22    0.07    0.38 
  -3   5  22    0.69    0.38 
  -2   5  22    0.40    0.35 
  -1   5  22   -0.06    0.33 
   0   5  22    0.90    0.39 
   0   5  22    2.12    0.58 
   1   5  22    0.47    0.43 
   2   5  22   -0.55    0.42 
  -2   6  22    0.67    0.37 
  -1   6  22    0.69    0.45 
   0   6  22    0.67    0.47 
   1   6  22   -0.09    0.45 
  -2  -5  23   -0.10    0.49 
   1   5 -23    0.46    0.31 
  -1  -5  23    0.04    0.53 
   0   5 -23    0.64    0.36 
  -1   5 -23    0.82    0.35 
  -3  -4  23    0.54    0.48 
  -2  -4  23    0.72    0.51 
   1   4 -23    0.14    0.29 
  -1  -4  23   -0.05    0.40 
   0   4 -23    0.17    0.29 
   0  -4  23    0.30    0.48 
  -1   4 -23    0.27    0.27 
  -2   4 -23    1.98    0.45 
  -4  -3  23    0.28    0.49 
  -3  -3  23    1.33    0.52 
  -2  -3  23    1.90    0.57 
   1   3 -23    0.44    0.33 
  -1  -3  23    0.23    0.44 
   0   3 -23    0.20    0.27 
   0  -3  23    0.50    0.42 
  -1   3 -23    1.34    0.40 
  -2   3 -23    0.60    0.27 
  -4  -2  23    0.07    0.48 
  -3  -2  23    0.32    0.41 
  -2  -2  23   -0.10    0.33 
   1   2 -23    0.59    0.30 
  -1  -2  23    0.79    0.43 
   0   2 -23    0.00    0.23 
   0  -2  23    0.70    0.45 
  -1   2 -23    1.79    0.41 
   1  -2  23    1.13    0.44 
  -2   2 -23   -0.03    0.19 
  -3   2 -23    1.76    0.41 
  -5  -1  23    0.14    0.54 
  -4  -1  23   -0.07    0.42 
  -3  -1  23   -0.03    0.36 
  -2  -1  23    0.07    0.30 
   1   1 -23    0.55    0.27 
  -1  -1  23    0.85    0.41 
   0   1 -23    0.59    0.29 
   0  -1  23    0.32    0.31 
  -1   1 -23    0.25    0.26 
   1  -1  23    0.00    0.30 
  -2   1 -23    0.31    0.21 
  -3   1 -23    0.56    0.22 
  -5   0  23   -0.41    0.46 
  -4   0  23   -0.15    0.44 
  -3   0  23    1.73    0.55 
  -2   0  23    0.12    0.36 
   1   0 -23    0.90    0.29 
  -1   0  23    0.35    0.32 
   0   0 -23    0.47    0.24 
   0   0  23    0.06    0.31 
  -1   0 -23    1.40    0.36 
   1   0  23    1.32    0.43 
  -2   0 -23    0.24    0.20 
   2   0  23   -0.02    0.33 
  -3   0 -23    1.20    0.30 
  -5   1  23    0.48    0.58 
  -4   1  23    0.42    0.47 
  -3   1  23    0.20    0.39 
  -2   1  23    0.18    0.33 
  -1   1  23    0.82    0.39 
   0  -1 -23    0.26    0.21 
   0   1  23   -0.05    0.35 
  -1  -1 -23    0.07    0.23 
   1   1  23    0.10    0.35 
  -2  -1 -23    0.45    0.23 
   2   1  23    0.34    0.39 
  -3  -1 -23    0.76    0.26 
  -4   2  23    0.00    0.50 
  -3   2  23    0.32    0.33 
  -2   2  23    0.38    0.34 
  -1   2  23    0.74    0.38 
   0   2  23    0.20    0.25 
   0   2  23    0.33    0.33 
   1   2  23    0.71    0.43 
   1   2  23    0.13    0.31 
   2   2  23    0.50    0.39 
   2   2  23    1.04    0.51 
   3   2  23    0.68    0.54 
  -4   3  23    0.17    0.29 
  -3   3  23    1.12    0.41 
  -2   3  23    0.72    0.38 
  -1   3  23    0.50    0.39 
   0   3  23    0.14    0.28 
   0   3  23    0.46    0.38 
   1   3  23    0.75    0.37 
   1   3  23    1.25    0.51 
   2   3  23    0.21    0.40 
   2   3  23    0.67    0.44 
  -3   4  23    0.39    0.35 
  -2   4  23    0.64    0.39 
  -1   4  23    0.05    0.34 
   0   4  23    0.21    0.39 
   0   4  23   -0.11    0.25 
   1   4  23    0.40    0.40 
   1   4  23    0.84    0.45 
   2   4  23    2.09    0.62 
  -3   5  23    0.32    0.32 
  -2   5  23    0.78    0.36 
  -1   5  23    0.32    0.42 
   0   5  23    0.03    0.35 
   0   5  23    0.57    0.39 
   1   5  23    0.20    0.43 
   1   5 -24    2.72    0.55 
  -1  -5  24    2.86    0.85 
   0   5 -24    1.63    0.43 
  -3  -4  24   -0.21    0.53 
  -2  -4  24   -0.47    0.49 
   1   4 -24    0.74    0.37 
  -1  -4  24   -0.07    0.51 
   0   4 -24    0.41    0.29 
   0  -4  24    0.51    0.62 
  -1   4 -24    1.39    0.38 
  -3  -3  24    0.31    0.50 
  -2  -3  24    0.22    0.47 
   1   3 -24    0.37    0.34 
  -1  -3  24   -0.24    0.43 
   0   3 -24    0.73    0.32 
   0  -3  24    0.19    0.52 
  -1   3 -24    0.95    0.34 
  -2   3 -24    0.65    0.28 
  -4  -2  24    0.40    0.55 
  -3  -2  24    0.84    0.52 
  -2  -2  24    1.08    0.54 
   1   2 -24    0.34    0.30 
  -1  -2  24    0.29    0.42 
   0   2 -24    0.63    0.31 
   0  -2  24    0.37    0.48 
  -1   2 -24    0.65    0.30 
   1  -2  24    0.93    0.41 
  -2   2 -24    0.34    0.25 
  -4  -1  24   -0.06    0.48 
  -3  -1  24    0.02    0.43 
  -2  -1  24   -0.28    0.35 
  -1  -1  24    0.35    0.42 
   0   1 -24    0.00    0.25 
   0  -1  24    0.29    0.32 
  -1   1 -24    2.69    0.48 
   1  -1  24    2.14    0.58 
  -2   1 -24    0.37    0.21 
  -4   0  24   -0.04    0.50 
  -3   0  24   -0.04    0.39 
  -2   0  24    1.83    0.59 
  -1   0  24    0.22    0.31 
   0   0 -24    1.02    0.32 
   0   0  24    0.63    0.38 
  -1   0 -24   -0.05    0.22 
   1   0  24    0.03    0.29 
  -2   0 -24    1.01    0.31 
   2   0  24    1.37    0.48 
  -4   1  24    0.29    0.51 
  -3   1  24    0.03    0.44 
  -2   1  24    0.12    0.34 
  -1   1  24    1.01    0.39 
   0  -1 -24    0.13    0.21 
   0   1  24    0.35    0.33 
  -1  -1 -24    1.98    0.42 
   1   1  24    3.74    0.73 
  -2  -1 -24    0.16    0.20 
   2   1  24    0.44    0.42 
  -4   2  24   -0.06    0.60 
  -3   2  24    1.53    0.45 
  -2   2  24    1.69    0.48 
  -1   2  24    0.85    0.41 
   0   2  24    0.82    0.38 
   0   2  24    0.35    0.28 
   1   2  24    0.84    0.42 
   1   2  24    0.03    0.35 
   2   2  24    0.79    0.36 
   2   2  24    0.50    0.44 
  -3   3  24    1.25    0.38 
  -2   3  24    0.14    0.31 
  -1   3  24    0.09    0.30 
   0   3  24    0.59    0.36 
   0   3  24    0.31    0.33 
   1   3  24    0.42    0.44 
   1   3  24    0.33    0.38 
   2   3  24    0.00    0.42 
   2   3  24    1.26    0.49 
  -3   4  24    0.14    0.29 
  -2   4  24    0.32    0.33 
  -1   4  24    0.22    0.32 
   0   4  24    0.60    0.43 
   0   4  24    0.15    0.34 
   1   4  24    0.86    0.50 
   1   4  24    0.22    0.39 
  -1   5  24    2.64    0.60 
   0   5  24    1.28    0.48 
  -2  -4  25   -0.24    0.60 
  -1  -4  25   -0.22    0.57 
   0   4 -25    0.45    0.29 
   0  -4  25    0.34    0.69 
  -3  -3  25   -0.68    0.53 
  -2  -3  25   -0.51    0.52 
  -1  -3  25    0.08    0.54 
   0   3 -25    1.20    0.36 
   0  -3  25    0.20    0.54 
  -1   3 -25    0.63    0.36 
  -3  -2  25   -0.14    0.50 
  -2  -2  25   -0.03    0.49 
  -1  -2  25    0.18    0.51 
   0   2 -25    0.59    0.31 
   0  -2  25    1.54    0.66 
  -1   2 -25    1.03    0.33 
   1  -2  25    1.05    0.41 
  -3  -1  25    0.06    0.50 
  -2  -1  25    0.11    0.47 
  -1  -1  25    0.20    0.47 
   0   1 -25    1.67    0.40 
   0  -1  25    1.73    0.52 
  -1   1 -25    0.20    0.25 
   1  -1  25    0.37    0.35 
  -2   1 -25    0.55    0.26 
  -4   0  25   -0.21    0.52 
  -3   0  25    0.06    0.52 
  -2   0  25   -0.11    0.45 
  -1   0  25    0.72    0.37 
   0   0 -25    0.30    0.25 
   0   0  25    0.23    0.32 
  -1   0 -25    2.04    0.41 
   1   0  25    2.48    0.61 
  -2   0 -25    0.35    0.26 
  -3   1  25   -0.01    0.53 
  -2   1  25    0.14    0.32 
  -1   1  25    0.04    0.32 
   0  -1 -25    1.30    0.36 
   0   1  25    1.80    0.52 
  -1  -1 -25   -0.05    0.17 
   1   1  25    0.48    0.39 
  -2  -1 -25    0.23    0.20 
   2   1  25    0.82    0.43 
  -3   2  25    0.68    0.32 
  -2   2  25    0.39    0.32 
  -1   2  25    0.12    0.30 
   0  -2 -25    0.86    0.29 
   0   2  25    0.96    0.44 
   1   2  25    1.29    0.46 
   1   2  25    0.11    0.39 
  -3   3  25    0.26    0.27 
  -2   3  25    0.12    0.37 
  -1   3  25    0.97    0.43 
   0   3  25    0.40    0.39 
   0   3  25    1.08    0.43 
   1   3  25    0.41    0.44 
   1   3  25    0.74    0.40 
  -2   4  25    0.74    0.35 
  -1   4  25    0.81    0.35 
   0   4  25    0.70    0.37 
  -1  -3  26   -0.01    0.66 
   0   3 -26    1.63    0.40 
   0  -3  26    0.60    0.66 
  -2  -2  26   -0.12    0.57 
  -1  -2  26    0.34    0.59 
   0   2 -26    0.94    0.33 
   0  -2  26    0.35    0.67 
  -1   2 -26    0.53    0.32 
  -3  -1  26    0.32    0.62 
  -2  -1  26   -0.20    0.45 
  -1  -1  26    0.06    0.56 
   0   1 -26    0.49    0.29 
   0  -1  26    0.58    0.37 
  -1   1 -26    0.60    0.30 
   1  -1  26    0.39    0.33 
  -3   0  26   -0.33    0.49 
  -2   0  26    0.49    0.59 
  -1   0  26    0.13    0.33 
   0   0 -26    0.44    0.30 
   0   0  26    0.75    0.38 
  -1   0 -26    0.50    0.24 
   1   0  26    0.89    0.42 
  -3   1  26    0.03    0.60 
  -2   1  26    0.50    0.35 
  -1   1  26    0.59    0.32 
   0  -1 -26    0.41    0.26 
   0   1  26    0.73    0.39 
  -1  -1 -26    0.53    0.26 
   1   1  26    0.72    0.36 
  -2   2  26    0.55    0.29 
  -1   2  26    0.79    0.40 
   0  -2 -26    0.35    0.28 
   0   2  26    1.35    0.47 
  -1  -2 -26    0.29    0.23 
  -1   3  26    0.89    0.35 
  -1  -1  27   -0.32    0.60 
   0   1 -27    0.72    0.29 
  -1   0  27   -0.01    0.27 
   0   0 -27    0.45    0.30 
   0   0  27   -0.01    0.26 
  -1   1  27    0.30    0.26 
   0   0   0    0.00    0.00 
;
_shelx_hkl_checksum              90530
loop_
_space_group_symop_operation_xyz
'x, y, z'
'-x+1/2, y+1/2, -z+1/2'
'-x, -y, -z'
'x-1/2, -y-1/2, z-1/2'
loop_
_atom_site_label
_atom_site_type_symbol
_atom_site_fract_x
_atom_site_fract_y
_atom_site_fract_z
_atom_site_U_iso_or_equiv
_atom_site_adp_type
_atom_site_occupancy
_atom_site_site_symmetry_order
_atom_site_calc_flag
_atom_site_refinement_flags_posn
_atom_site_refinement_flags_adp
I1 I 1.12419(7) -0.05795(6) 0.21608(3) 0.0763(2) Uani 1 1 d . .
N1 N 1.4045(10) 0.7125(7) 0.0631(3) 0.0726(16) Uani 1 1 d . .
O1 O 0.7632(9) -0.0539(5) 0.0707(2) 0.0738(14) Uani 1 1 d . .
H1 H 0.6617 -0.1201 0.0707 0.111 Uiso 1 1 calc R U
F1 F 0.6554(5) -0.1260(4) 0.19166(18) 0.0617(9) Uani 1 1 d . .
F2 F 0.7189(7) 0.1148(5) 0.22745(18) 0.0743(11) Uani 1 1 d . .
C1 C 0.7825(9) 0.0064(6) 0.1850(3) 0.0449(12) Uani 1 1 d . .
C2 C 0.7332(9) 0.0682(6) 0.1150(3) 0.0488(13) Uani 1 1 d . .
H2 H 0.5751 0.1014 0.1078 0.059 Uiso 1 1 calc R U
C3 C 0.8762(8) 0.2131(6) 0.1024(2) 0.0431(12) Uani 1 1 d . .
C4 C 0.8284(9) 0.3619(7) 0.1266(3) 0.0517(13) Uani 1 1 d . .
H4 H 0.7050 0.3743 0.1495 0.062 Uiso 1 1 calc R U
C5 C 0.9629(10) 0.4940(7) 0.1170(3) 0.0539(14) Uani 1 1 d . .
H5 H 0.9305 0.5945 0.1335 0.065 Uiso 1 1 calc R U
C6 C 1.1455(9) 0.4743(6) 0.0825(3) 0.0465(12) Uani 1 1 d . .
C7 C 1.1905(9) 0.3263(7) 0.0571(3) 0.0528(14) Uani 1 1 d . .
H7 H 1.3111 0.3143 0.0329 0.063 Uiso 1 1 calc R U
C8 C 1.0575(9) 0.1955(7) 0.0672(3) 0.0504(13) Uani 1 1 d . .
H8 H 1.0897 0.0952 0.0504 0.060 Uiso 1 1 calc R U
C9 C 1.2878(10) 0.6103(7) 0.0718(3) 0.0560(14) Uani 1 1 d . .
loop_
_atom_site_aniso_label
_atom_site_aniso_U_11
_atom_site_aniso_U_22
_atom_site_aniso_U_33
_atom_site_aniso_U_23
_atom_site_aniso_U_13
_atom_site_aniso_U_12
I1 0.0410(2) 0.0810(4) 0.1033(4) 0.0239(3) -0.0050(2) -0.0066(2)
N1 0.077(4) 0.063(3) 0.079(4) -0.001(3) 0.011(3) -0.035(3)
O1 0.087(3) 0.068(3) 0.071(3) -0.021(2) 0.029(3) -0.045(3)
F1 0.0447(17) 0.058(2) 0.083(2) 0.0178(18) 0.0101(16) -0.0163(15)
F2 0.096(3) 0.065(2) 0.068(2) -0.0062(19) 0.037(2) 0.007(2)
C1 0.040(3) 0.039(3) 0.057(3) 0.001(2) 0.012(2) -0.005(2)
C2 0.042(3) 0.047(3) 0.057(3) -0.001(3) 0.006(2) -0.014(2)
C3 0.039(3) 0.046(3) 0.044(3) 0.002(2) 0.004(2) -0.014(2)
C4 0.043(3) 0.050(3) 0.064(3) 0.005(3) 0.012(3) -0.007(2)
C5 0.058(3) 0.042(3) 0.062(3) -0.005(3) 0.006(3) -0.006(3)
C6 0.047(3) 0.046(3) 0.045(3) 0.006(2) 0.000(2) -0.017(2)
C7 0.049(3) 0.062(4) 0.050(3) 0.000(3) 0.011(2) -0.017(3)
C8 0.055(3) 0.046(3) 0.051(3) -0.005(2) 0.011(3) -0.013(3)
C9 0.057(3) 0.054(3) 0.055(3) 0.003(3) -0.002(3) -0.020(3)
loop_
_atom_type_symbol
_atom_type_description
_atom_type_scat_dispersion_real
_atom_type_scat_dispersion_imag
_atom_type_scat_source
C C 0.0033 0.0016 'International Tables Vol C Tables 4.2.6.8 and 6.1.1.4'
H H 0.0000 0.0000 'International Tables Vol C Tables 4.2.6.8 and 6.1.1.4'
N N 0.0061 0.0033 'International Tables Vol C Tables 4.2.6.8 and 6.1.1.4'
O O 0.0106 0.0060 'International Tables Vol C Tables 4.2.6.8 and 6.1.1.4'
F F 0.0171 0.0103 'International Tables Vol C Tables 4.2.6.8 and 6.1.1.4'
I I -0.4742 1.8119 'International Tables Vol C Tables 4.2.6.8 and 6.1.1.4'
loop_
_geom_angle_atom_site_label_1
_geom_angle_atom_site_label_2
_geom_angle_atom_site_label_3
_geom_angle
C2 O1 H1 109.5
F2 C1 F1 105.7(4)
F2 C1 C2 110.3(5)
F1 C1 C2 108.9(4)
F2 C1 I1 108.4(4)
F1 C1 I1 107.4(3)
C2 C1 I1 115.7(3)
O1 C2 C1 110.1(5)
O1 C2 C3 110.3(4)
C1 C2 C3 112.4(4)
O1 C2 H2 108.0
C1 C2 H2 108.0
C3 C2 H2 108.0
C4 C3 C8 119.6(5)
C4 C3 C2 120.2(5)
C8 C3 C2 120.1(5)
C3 C4 C5 120.5(5)
C3 C4 H4 119.7
C5 C4 H4 119.7
C6 C5 C4 119.3(5)
C6 C5 H5 120.4
C4 C5 H5 120.4
C7 C6 C5 120.3(5)
C7 C6 C9 119.5(5)
C5 C6 C9 120.2(5)
C6 C7 C8 120.2(5)
C6 C7 H7 119.9
C8 C7 H7 119.9
C7 C8 C3 120.1(5)
C7 C8 H8 119.9
C3 C8 H8 119.9
N1 C9 C6 177.5(7)
loop_
_geom_bond_atom_site_label_1
_geom_bond_atom_site_label_2
_geom_bond_distance
I1 C1 2.135(5)
N1 C9 1.128(7)
O1 C2 1.386(7)
O1 H1 0.8200
F1 C1 1.354(6)
F2 C1 1.338(6)
C1 C2 1.515(8)
C2 C3 1.517(7)
C2 H2 0.9800
C3 C4 1.374(8)
C3 C8 1.384(7)
C4 C5 1.389(8)
C4 H4 0.9300
C5 C6 1.383(8)
C5 H5 0.9300
C6 C7 1.374(8)
C6 C9 1.448(7)
C7 C8 1.378(7)
C7 H7 0.9300
C8 H8 0.9300
loop_
_geom_hbond_atom_site_label_D
_geom_hbond_atom_site_label_H
_geom_hbond_atom_site_label_A
_geom_hbond_distance_DH
_geom_hbond_distance_HA
_geom_hbond_distance_DA
_geom_hbond_angle_DHA
_geom_hbond_site_symmetry_A
O1 H1 N1 0.82 2.07 2.885(6) 175.7 1_445
loop_
_geom_torsion_atom_site_label_1
_geom_torsion_atom_site_label_2
_geom_torsion_atom_site_label_3
_geom_torsion_atom_site_label_4
_geom_torsion
F2 C1 C2 O1 -169.9(4)
F1 C1 C2 O1 -54.3(6)
I1 C1 C2 O1 66.7(5)
F2 C1 C2 C3 66.7(6)
F1 C1 C2 C3 -177.6(4)
I1 C1 C2 C3 -56.7(5)
O1 C2 C3 C4 161.4(5)
C1 C2 C3 C4 -75.4(7)
O1 C2 C3 C8 -19.5(7)
C1 C2 C3 C8 103.8(6)
C8 C3 C4 C5 -1.2(9)
C2 C3 C4 C5 178.0(5)
C3 C4 C5 C6 0.3(9)
C4 C5 C6 C7 1.2(9)
C4 C5 C6 C9 179.9(5)
C5 C6 C7 C8 -1.7(9)
C9 C6 C7 C8 179.5(5)
C6 C7 C8 C3 0.8(9)
C4 C3 C8 C7 0.6(8)
C2 C3 C8 C7 -178.6(5)
